MODEL 1
REMARK VINA RESULT:      -8.1      0.000      0.000
REMARK  Name = 
REMARK  4 active torsions:
REMARK  status: ('A' for Active; 'I' for Inactive)
REMARK    1  A    between atoms: C_1  and  C_2
REMARK    2  A    between atoms: C_13  and  N_14
REMARK    3  A    between atoms: N_14  and  C_15
REMARK    4  A    between atoms: C_20  and  C_21
REMARK                            x       y       z     vdW  Elec       q    Type
REMARK                         _______ _______ _______ _____ _____    ______ ____
ROOT
ATOM      1  C   UNL     1       8.145   5.497  13.319  0.00  0.00    +0.000 C 
ATOM      2  C   UNL     1       7.068   4.989  14.206  0.00  0.00    +0.000 A 
ATOM      3  C   UNL     1       6.148   3.987  13.978  0.00  0.00    +0.000 A 
ATOM      4  N   UNL     1       5.276   3.729  15.014  0.00  0.00    +0.000 NA
ATOM      5  C   UNL     1       5.550   4.518  16.021  0.00  0.00    +0.000 A 
ATOM      6  N   UNL     1       4.976   4.580  17.262  0.00  0.00    +0.000 N 
ATOM      7  C   UNL     1       4.161   3.580  17.728  0.00  0.00    +0.000 C 
ATOM      8  O   UNL     1       3.909   2.544  17.121  0.00  0.00    +0.000 OA
ATOM      9  N   UNL     1       3.644   3.793  19.007  0.00  0.00    +0.000 N 
ATOM     10  C   UNL     1       2.914   2.700  19.652  0.00  0.00    +0.000 C 
ATOM     11  C   UNL     1       1.447   3.066  19.843  0.00  0.00    +0.000 C 
ATOM     12  C   UNL     1       1.312   4.362  20.644  0.00  0.00    +0.000 C 
ATOM     13  C   UNL     1       2.115   5.498  19.992  0.00  0.00    +0.000 C 
ATOM     14  C   UNL     1       3.576   5.072  19.717  0.00  0.00    +0.000 C 
ATOM     15  S   UNL     1       6.810   5.646  15.773  0.00  0.00    +0.000 S 
ATOM     16  H   UNL     1       5.400   5.226  17.901  0.00  0.00    +0.000 HD
ENDROOT
BRANCH  13  17
ATOM     17  N   UNL     1       2.080   6.676  20.876  0.00  0.00    +0.000 N 
ATOM     18  H   UNL     1       2.937   6.793  21.410  0.00  0.00    +0.000 HD
BRANCH  17  19
ATOM     19  C   UNL     1       1.583   7.885  20.385  0.00  0.00    +0.000 A 
ATOM     20  C   UNL     1       1.867   8.270  19.071  0.00  0.00    +0.000 A 
ATOM     21  C   UNL     1       1.412   9.494  18.563  0.00  0.00    +0.000 A 
ATOM     22  C   UNL     1       0.680  10.366  19.371  0.00  0.00    +0.000 A 
ATOM     23 CL   UNL     1       0.144  11.848  18.667  0.00  0.00    +0.000 Cl
ATOM     24  C   UNL     1       0.413  10.031  20.699  0.00  0.00    +0.000 A 
ATOM     25  C   UNL     1      -0.360  10.890  21.658  0.00  0.00    +0.000 C 
ATOM     26  C   UNL     1       0.897   8.802  21.190  0.00  0.00    +0.000 A 
ENDBRANCH  17  19
ENDBRANCH  13  17
TORSDOF 2
ENDMDL
MODEL 2
REMARK VINA RESULT:      -8.0      0.539      1.412
REMARK  Name = 
REMARK  4 active torsions:
REMARK  status: ('A' for Active; 'I' for Inactive)
REMARK    1  A    between atoms: C_1  and  C_2
REMARK    2  A    between atoms: C_13  and  N_14
REMARK    3  A    between atoms: N_14  and  C_15
REMARK    4  A    between atoms: C_20  and  C_21
REMARK                            x       y       z     vdW  Elec       q    Type
REMARK                         _______ _______ _______ _____ _____    ______ ____
ROOT
ATOM      1  C   UNL     1       8.014   5.494  13.546  0.00  0.00    +0.000 C 
ATOM      2  C   UNL     1       6.930   4.957  14.406  0.00  0.00    +0.000 A 
ATOM      3  C   UNL     1       5.998   3.978  14.129  0.00  0.00    +0.000 A 
ATOM      4  N   UNL     1       5.122   3.681  15.151  0.00  0.00    +0.000 NA
ATOM      5  C   UNL     1       5.405   4.416  16.196  0.00  0.00    +0.000 A 
ATOM      6  N   UNL     1       4.831   4.424  17.438  0.00  0.00    +0.000 N 
ATOM      7  C   UNL     1       4.004   3.413  17.855  0.00  0.00    +0.000 C 
ATOM      8  O   UNL     1       3.739   2.410  17.198  0.00  0.00    +0.000 OA
ATOM      9  N   UNL     1       3.488   3.569  19.143  0.00  0.00    +0.000 N 
ATOM     10  C   UNL     1       2.745   2.455  19.733  0.00  0.00    +0.000 C 
ATOM     11  C   UNL     1       1.282   2.829  19.942  0.00  0.00    +0.000 C 
ATOM     12  C   UNL     1       1.162   4.085  20.806  0.00  0.00    +0.000 C 
ATOM     13  C   UNL     1       1.980   5.242  20.210  0.00  0.00    +0.000 C 
ATOM     14  C   UNL     1       3.436   4.812  19.915  0.00  0.00    +0.000 C 
ATOM     15  S   UNL     1       6.679   5.539  16.004  0.00  0.00    +0.000 S 
ATOM     16  H   UNL     1       5.263   5.032  18.109  0.00  0.00    +0.000 HD
ENDROOT
BRANCH  13  17
ATOM     17  N   UNL     1       1.958   6.376  21.150  0.00  0.00    +0.000 N 
ATOM     18  H   UNL     1       2.821   6.462  21.683  0.00  0.00    +0.000 HD
BRANCH  17  19
ATOM     19  C   UNL     1       1.465   7.609  20.724  0.00  0.00    +0.000 A 
ATOM     20  C   UNL     1       0.486   8.264  21.479  0.00  0.00    +0.000 A 
ATOM     21  C   UNL     1      -0.055   9.486  21.057  0.00  0.00    +0.000 A 
ATOM     22  C   UNL     1       0.363  10.067  19.858  0.00  0.00    +0.000 A 
ATOM     23 CL   UNL     1      -0.340  11.580  19.415  0.00  0.00    +0.000 Cl
ATOM     24  C   UNL     1       1.309   9.421  19.060  0.00  0.00    +0.000 A 
ATOM     25  C   UNL     1       1.827   9.949  17.753  0.00  0.00    +0.000 C 
ATOM     26  C   UNL     1       1.823   8.184  19.499  0.00  0.00    +0.000 A 
ENDBRANCH  17  19
ENDBRANCH  13  17
TORSDOF 2
ENDMDL
MODEL 3
REMARK VINA RESULT:      -7.2      3.378      4.915
REMARK  Name = 
REMARK  4 active torsions:
REMARK  status: ('A' for Active; 'I' for Inactive)
REMARK    1  A    between atoms: C_1  and  C_2
REMARK    2  A    between atoms: C_13  and  N_14
REMARK    3  A    between atoms: N_14  and  C_15
REMARK    4  A    between atoms: C_20  and  C_21
REMARK                            x       y       z     vdW  Elec       q    Type
REMARK                         _______ _______ _______ _____ _____    ______ ____
ROOT
ATOM      1  C   UNL     1       6.225   4.314  15.198  0.00  0.00    +0.000 C 
ATOM      2  C   UNL     1       5.244   4.771  16.214  0.00  0.00    +0.000 A 
ATOM      3  C   UNL     1       4.564   4.037  17.164  0.00  0.00    +0.000 A 
ATOM      4  N   UNL     1       3.725   4.757  17.987  0.00  0.00    +0.000 NA
ATOM      5  C   UNL     1       3.788   6.026  17.672  0.00  0.00    +0.000 A 
ATOM      6  N   UNL     1       3.165   7.100  18.248  0.00  0.00    +0.000 N 
ATOM      7  C   UNL     1       2.560   7.007  19.475  0.00  0.00    +0.000 C 
ATOM      8  O   UNL     1       2.554   6.001  20.178  0.00  0.00    +0.000 OA
ATOM      9  N   UNL     1       1.960   8.185  19.924  0.00  0.00    +0.000 N 
ATOM     10  C   UNL     1       1.450   8.225  21.296  0.00  0.00    +0.000 C 
ATOM     11  C   UNL     1      -0.068   8.366  21.306  0.00  0.00    +0.000 C 
ATOM     12  C   UNL     1      -0.503   9.607  20.524  0.00  0.00    +0.000 C 
ATOM     13  C   UNL     1       0.070   9.586  19.098  0.00  0.00    +0.000 C 
ATOM     14  C   UNL     1       1.598   9.345  19.106  0.00  0.00    +0.000 C 
ATOM     15  S   UNL     1       4.793   6.424  16.348  0.00  0.00    +0.000 S 
ATOM     16  H   UNL     1       3.420   7.996  17.876  0.00  0.00    +0.000 HD
ENDROOT
BRANCH  13  17
ATOM     17  N   UNL     1      -0.245  10.865  18.438  0.00  0.00    +0.000 N 
ATOM     18  H   UNL     1       0.435  11.119  17.726  0.00  0.00    +0.000 HD
BRANCH  17  19
ATOM     19  C   UNL     1      -1.558  11.126  18.044  0.00  0.00    +0.000 A 
ATOM     20  C   UNL     1      -2.435  11.762  18.929  0.00  0.00    +0.000 A 
ATOM     21  C   UNL     1      -3.769  12.005  18.574  0.00  0.00    +0.000 A 
ATOM     22  C   UNL     1      -4.255  11.595  17.331  0.00  0.00    +0.000 A 
ATOM     23 CL   UNL     1      -5.905  11.943  16.964  0.00  0.00    +0.000 Cl
ATOM     24  C   UNL     1      -3.418  10.921  16.440  0.00  0.00    +0.000 A 
ATOM     25  C   UNL     1      -3.833  10.433  15.082  0.00  0.00    +0.000 C 
ATOM     26  C   UNL     1      -2.086  10.675  16.829  0.00  0.00    +0.000 A 
ENDBRANCH  17  19
ENDBRANCH  13  17
TORSDOF 2
ENDMDL
MODEL 4
REMARK VINA RESULT:      -7.0      4.937      9.564
REMARK  Name = 
REMARK  4 active torsions:
REMARK  status: ('A' for Active; 'I' for Inactive)
REMARK    1  A    between atoms: C_1  and  C_2
REMARK    2  A    between atoms: C_13  and  N_14
REMARK    3  A    between atoms: N_14  and  C_15
REMARK    4  A    between atoms: C_20  and  C_21
REMARK                            x       y       z     vdW  Elec       q    Type
REMARK                         _______ _______ _______ _____ _____    ______ ____
ROOT
ATOM      1  C   UNL     1      -4.262  13.266  24.274  0.00  0.00    +0.000 C 
ATOM      2  C   UNL     1      -3.471  12.736  23.135  0.00  0.00    +0.000 A 
ATOM      3  C   UNL     1      -3.694  12.869  21.780  0.00  0.00    +0.000 A 
ATOM      4  N   UNL     1      -2.760  12.273  20.960  0.00  0.00    +0.000 NA
ATOM      5  C   UNL     1      -1.831  11.714  21.691  0.00  0.00    +0.000 A 
ATOM      6  N   UNL     1      -0.695  11.054  21.305  0.00  0.00    +0.000 N 
ATOM      7  C   UNL     1      -0.221  11.131  20.020  0.00  0.00    +0.000 C 
ATOM      8  O   UNL     1      -0.723  11.809  19.128  0.00  0.00    +0.000 OA
ATOM      9  N   UNL     1       0.941  10.396  19.778  0.00  0.00    +0.000 N 
ATOM     10  C   UNL     1       1.612  10.564  18.489  0.00  0.00    +0.000 C 
ATOM     11  C   UNL     1       1.559   9.274  17.678  0.00  0.00    +0.000 C 
ATOM     12  C   UNL     1       2.169   8.113  18.466  0.00  0.00    +0.000 C 
ATOM     13  C   UNL     1       1.494   7.966  19.839  0.00  0.00    +0.000 C 
ATOM     14  C   UNL     1       1.472   9.309  20.605  0.00  0.00    +0.000 C 
ATOM     15  S   UNL     1      -2.046  11.809  23.385  0.00  0.00    +0.000 S 
ATOM     16  H   UNL     1      -0.090  10.766  22.051  0.00  0.00    +0.000 HD
ENDROOT
BRANCH  13  17
ATOM     17  N   UNL     1       2.212   6.942  20.617  0.00  0.00    +0.000 N 
ATOM     18  H   UNL     1       1.839   6.827  21.556  0.00  0.00    +0.000 HD
BRANCH  17  19
ATOM     19  C   UNL     1       2.533   5.725  20.014  0.00  0.00    +0.000 A 
ATOM     20  C   UNL     1       1.591   4.691  19.993  0.00  0.00    +0.000 A 
ATOM     21  C   UNL     1       1.898   3.447  19.426  0.00  0.00    +0.000 A 
ATOM     22  C   UNL     1       3.164   3.208  18.887  0.00  0.00    +0.000 A 
ATOM     23 CL   UNL     1       3.459   1.654  18.196  0.00  0.00    +0.000 Cl
ATOM     24  C   UNL     1       4.141   4.205  18.928  0.00  0.00    +0.000 A 
ATOM     25  C   UNL     1       5.532   4.059  18.383  0.00  0.00    +0.000 C 
ATOM     26  C   UNL     1       3.811   5.441  19.519  0.00  0.00    +0.000 A 
ENDBRANCH  17  19
ENDBRANCH  13  17
TORSDOF 2
ENDMDL
MODEL 5
REMARK VINA RESULT:      -6.8      5.356      9.725
REMARK  Name = 
REMARK  4 active torsions:
REMARK  status: ('A' for Active; 'I' for Inactive)
REMARK    1  A    between atoms: C_1  and  C_2
REMARK    2  A    between atoms: C_13  and  N_14
REMARK    3  A    between atoms: N_14  and  C_15
REMARK    4  A    between atoms: C_20  and  C_21
REMARK                            x       y       z     vdW  Elec       q    Type
REMARK                         _______ _______ _______ _____ _____    ______ ____
ROOT
ATOM      1  C   UNL     1      -5.186  13.347  23.797  0.00  0.00    +0.000 C 
ATOM      2  C   UNL     1      -4.218  12.974  22.735  0.00  0.00    +0.000 A 
ATOM      3  C   UNL     1      -4.257  13.245  21.383  0.00  0.00    +0.000 A 
ATOM      4  N   UNL     1      -3.189  12.776  20.648  0.00  0.00    +0.000 NA
ATOM      5  C   UNL     1      -2.343  12.174  21.445  0.00  0.00    +0.000 A 
ATOM      6  N   UNL     1      -1.133  11.602  21.160  0.00  0.00    +0.000 N 
ATOM      7  C   UNL     1      -0.489  11.835  19.971  0.00  0.00    +0.000 C 
ATOM      8  O   UNL     1      -0.897  12.587  19.091  0.00  0.00    +0.000 OA
ATOM      9  N   UNL     1       0.731  11.173  19.825  0.00  0.00    +0.000 N 
ATOM     10  C   UNL     1       1.566  11.504  18.669  0.00  0.00    +0.000 C 
ATOM     11  C   UNL     1       1.692  10.309  17.731  0.00  0.00    +0.000 C 
ATOM     12  C   UNL     1       2.244   9.092  18.475  0.00  0.00    +0.000 C 
ATOM     13  C   UNL     1       1.394   8.772  19.715  0.00  0.00    +0.000 C 
ATOM     14  C   UNL     1       1.197  10.023  20.603  0.00  0.00    +0.000 C 
ATOM     15  S   UNL     1      -2.796  12.077  23.090  0.00  0.00    +0.000 S 
ATOM     16  H   UNL     1      -0.623  11.256  21.951  0.00  0.00    +0.000 HD
ENDROOT
BRANCH  13  17
ATOM     17  N   UNL     1       2.048   7.696  20.478  0.00  0.00    +0.000 N 
ATOM     18  H   UNL     1       1.848   7.742  21.475  0.00  0.00    +0.000 HD
BRANCH  17  19
ATOM     19  C   UNL     1       2.020   6.391  19.984  0.00  0.00    +0.000 A 
ATOM     20  C   UNL     1       2.274   6.157  18.629  0.00  0.00    +0.000 A 
ATOM     21  C   UNL     1       2.217   4.862  18.097  0.00  0.00    +0.000 A 
ATOM     22  C   UNL     1       1.884   3.778  18.912  0.00  0.00    +0.000 A 
ATOM     23 CL   UNL     1       1.849   2.212  18.184  0.00  0.00    +0.000 Cl
ATOM     24  C   UNL     1       1.585   3.981  20.260  0.00  0.00    +0.000 A 
ATOM     25  C   UNL     1       1.213   2.893  21.225  0.00  0.00    +0.000 C 
ATOM     26  C   UNL     1       1.633   5.296  20.765  0.00  0.00    +0.000 A 
ENDBRANCH  17  19
ENDBRANCH  13  17
TORSDOF 2
ENDMDL
MODEL 6
REMARK VINA RESULT:      -6.7      5.931     10.628
REMARK  Name = 
REMARK  4 active torsions:
REMARK  status: ('A' for Active; 'I' for Inactive)
REMARK    1  A    between atoms: C_1  and  C_2
REMARK    2  A    between atoms: C_13  and  N_14
REMARK    3  A    between atoms: N_14  and  C_15
REMARK    4  A    between atoms: C_20  and  C_21
REMARK                            x       y       z     vdW  Elec       q    Type
REMARK                         _______ _______ _______ _____ _____    ______ ____
ROOT
ATOM      1  C   UNL     1      -3.387  15.836  25.273  0.00  0.00    +0.000 C 
ATOM      2  C   UNL     1      -3.397  14.948  24.084  0.00  0.00    +0.000 A 
ATOM      3  C   UNL     1      -4.457  14.292  23.492  0.00  0.00    +0.000 A 
ATOM      4  N   UNL     1      -4.149  13.546  22.374  0.00  0.00    +0.000 NA
ATOM      5  C   UNL     1      -2.871  13.657  22.115  0.00  0.00    +0.000 A 
ATOM      6  N   UNL     1      -2.141  13.130  21.084  0.00  0.00    +0.000 N 
ATOM      7  C   UNL     1      -2.745  12.601  19.972  0.00  0.00    +0.000 C 
ATOM      8  O   UNL     1      -3.957  12.585  19.775  0.00  0.00    +0.000 OA
ATOM      9  N   UNL     1      -1.868  12.094  19.012  0.00  0.00    +0.000 N 
ATOM     10  C   UNL     1      -2.417  11.675  17.721  0.00  0.00    +0.000 C 
ATOM     11  C   UNL     1      -2.263  10.171  17.529  0.00  0.00    +0.000 C 
ATOM     12  C   UNL     1      -0.798   9.754  17.661  0.00  0.00    +0.000 C 
ATOM     13  C   UNL     1      -0.208  10.233  18.998  0.00  0.00    +0.000 C 
ATOM     14  C   UNL     1      -0.460  11.743  19.218  0.00  0.00    +0.000 C 
ATOM     15  S   UNL     1      -1.958  14.595  23.214  0.00  0.00    +0.000 S 
ATOM     16  H   UNL     1      -1.178  13.408  21.051  0.00  0.00    +0.000 HD
ENDROOT
BRANCH  13  17
ATOM     17  N   UNL     1       1.236   9.945  19.013  0.00  0.00    +0.000 N 
ATOM     18  H   UNL     1       1.768  10.625  19.550  0.00  0.00    +0.000 HD
BRANCH  17  19
ATOM     19  C   UNL     1       1.670   8.636  19.224  0.00  0.00    +0.000 A 
ATOM     20  C   UNL     1       1.387   7.997  20.436  0.00  0.00    +0.000 A 
ATOM     21  C   UNL     1       1.841   6.696  20.690  0.00  0.00    +0.000 A 
ATOM     22  C   UNL     1       2.606   6.016  19.739  0.00  0.00    +0.000 A 
ATOM     23 CL   UNL     1       3.115   4.412  20.122  0.00  0.00    +0.000 Cl
ATOM     24  C   UNL     1       2.940   6.639  18.535  0.00  0.00    +0.000 A 
ATOM     25  C   UNL     1       3.757   6.006  17.446  0.00  0.00    +0.000 C 
ATOM     26  C   UNL     1       2.486   7.954  18.313  0.00  0.00    +0.000 A 
ENDBRANCH  17  19
ENDBRANCH  13  17
TORSDOF 2
ENDMDL
MODEL 7
REMARK VINA RESULT:      -6.6      4.993      8.453
REMARK  Name = 
REMARK  4 active torsions:
REMARK  status: ('A' for Active; 'I' for Inactive)
REMARK    1  A    between atoms: C_1  and  C_2
REMARK    2  A    between atoms: C_13  and  N_14
REMARK    3  A    between atoms: N_14  and  C_15
REMARK    4  A    between atoms: C_20  and  C_21
REMARK                            x       y       z     vdW  Elec       q    Type
REMARK                         _______ _______ _______ _____ _____    ______ ____
ROOT
ATOM      1  C   UNL     1       2.713  16.952  18.533  0.00  0.00    +0.000 C 
ATOM      2  C   UNL     1       2.495  15.613  19.136  0.00  0.00    +0.000 A 
ATOM      3  C   UNL     1       2.516  15.238  20.464  0.00  0.00    +0.000 A 
ATOM      4  N   UNL     1       2.254  13.908  20.714  0.00  0.00    +0.000 NA
ATOM      5  C   UNL     1       2.018  13.291  19.584  0.00  0.00    +0.000 A 
ATOM      6  N   UNL     1       1.672  11.986  19.359  0.00  0.00    +0.000 N 
ATOM      7  C   UNL     1       1.244  11.170  20.375  0.00  0.00    +0.000 C 
ATOM      8  O   UNL     1       1.090  11.525  21.540  0.00  0.00    +0.000 OA
ATOM      9  N   UNL     1       0.937   9.864  19.989  0.00  0.00    +0.000 N 
ATOM     10  C   UNL     1       0.305   8.980  20.970  0.00  0.00    +0.000 C 
ATOM     11  C   UNL     1       1.231   7.826  21.337  0.00  0.00    +0.000 C 
ATOM     12  C   UNL     1       1.648   7.048  20.088  0.00  0.00    +0.000 C 
ATOM     13  C   UNL     1       2.270   7.983  19.040  0.00  0.00    +0.000 C 
ATOM     14  C   UNL     1       1.358   9.199  18.754  0.00  0.00    +0.000 C 
ATOM     15  S   UNL     1       2.155  14.235  18.166  0.00  0.00    +0.000 S 
ATOM     16  H   UNL     1       1.473  11.751  18.405  0.00  0.00    +0.000 HD
ENDROOT
BRANCH  13  17
ATOM     17  N   UNL     1       2.513   7.220  17.804  0.00  0.00    +0.000 N 
ATOM     18  H   UNL     1       2.199   7.710  16.970  0.00  0.00    +0.000 HD
BRANCH  17  19
ATOM     19  C   UNL     1       3.743   6.585  17.622  0.00  0.00    +0.000 A 
ATOM     20  C   UNL     1       3.796   5.191  17.527  0.00  0.00    +0.000 A 
ATOM     21  C   UNL     1       5.020   4.523  17.380  0.00  0.00    +0.000 A 
ATOM     22  C   UNL     1       6.217   5.242  17.346  0.00  0.00    +0.000 A 
ATOM     23 CL   UNL     1       7.680   4.348  17.149  0.00  0.00    +0.000 Cl
ATOM     24  C   UNL     1       6.203   6.631  17.479  0.00  0.00    +0.000 A 
ATOM     25  C   UNL     1       7.425   7.503  17.460  0.00  0.00    +0.000 C 
ATOM     26  C   UNL     1       4.960   7.275  17.643  0.00  0.00    +0.000 A 
ENDBRANCH  17  19
ENDBRANCH  13  17
TORSDOF 2
ENDMDL
MODEL 8
REMARK VINA RESULT:      -6.6      3.513      8.078
REMARK  Name = 
REMARK  4 active torsions:
REMARK  status: ('A' for Active; 'I' for Inactive)
REMARK    1  A    between atoms: C_1  and  C_2
REMARK    2  A    between atoms: C_13  and  N_14
REMARK    3  A    between atoms: N_14  and  C_15
REMARK    4  A    between atoms: C_20  and  C_21
REMARK                            x       y       z     vdW  Elec       q    Type
REMARK                         _______ _______ _______ _____ _____    ______ ____
ROOT
ATOM      1  C   UNL     1      -0.591  11.690  21.078  0.00  0.00    +0.000 C 
ATOM      2  C   UNL     1       0.100  10.378  21.012  0.00  0.00    +0.000 A 
ATOM      3  C   UNL     1       0.120   9.354  21.936  0.00  0.00    +0.000 A 
ATOM      4  N   UNL     1       0.844   8.237  21.576  0.00  0.00    +0.000 NA
ATOM      5  C   UNL     1       1.347   8.412  20.381  0.00  0.00    +0.000 A 
ATOM      6  N   UNL     1       2.090   7.556  19.614  0.00  0.00    +0.000 N 
ATOM      7  C   UNL     1       2.185   6.221  19.913  0.00  0.00    +0.000 C 
ATOM      8  O   UNL     1       1.599   5.668  20.839  0.00  0.00    +0.000 OA
ATOM      9  N   UNL     1       2.986   5.480  19.043  0.00  0.00    +0.000 N 
ATOM     10  C   UNL     1       2.999   4.022  19.181  0.00  0.00    +0.000 C 
ATOM     11  C   UNL     1       4.373   3.531  19.622  0.00  0.00    +0.000 C 
ATOM     12  C   UNL     1       5.454   3.997  18.646  0.00  0.00    +0.000 C 
ATOM     13  C   UNL     1       5.411   5.523  18.466  0.00  0.00    +0.000 C 
ATOM     14  C   UNL     1       3.987   6.011  18.114  0.00  0.00    +0.000 C 
ATOM     15  S   UNL     1       1.044   9.927  19.649  0.00  0.00    +0.000 S 
ATOM     16  H   UNL     1       2.311   7.884  18.692  0.00  0.00    +0.000 HD
ENDROOT
BRANCH  13  17
ATOM     17  N   UNL     1       6.362   5.906  17.408  0.00  0.00    +0.000 N 
ATOM     18  H   UNL     1       7.320   5.970  17.744  0.00  0.00    +0.000 HD
BRANCH  17  19
ATOM     19  C   UNL     1       6.272   5.299  16.154  0.00  0.00    +0.000 A 
ATOM     20  C   UNL     1       5.312   4.305  15.932  0.00  0.00    +0.000 A 
ATOM     21  C   UNL     1       5.222   3.653  14.695  0.00  0.00    +0.000 A 
ATOM     22  C   UNL     1       6.106   3.971  13.662  0.00  0.00    +0.000 A 
ATOM     23 CL   UNL     1       5.921   3.133  12.164  0.00  0.00    +0.000 Cl
ATOM     24  C   UNL     1       7.101   4.929  13.863  0.00  0.00    +0.000 A 
ATOM     25  C   UNL     1       8.105   5.347  12.828  0.00  0.00    +0.000 C 
ATOM     26  C   UNL     1       7.181   5.557  15.122  0.00  0.00    +0.000 A 
ENDBRANCH  17  19
ENDBRANCH  13  17
TORSDOF 2
ENDMDL
MODEL 9
REMARK VINA RESULT:      -6.5      4.846      8.321
REMARK  Name = 
REMARK  4 active torsions:
REMARK  status: ('A' for Active; 'I' for Inactive)
REMARK    1  A    between atoms: C_1  and  C_2
REMARK    2  A    between atoms: C_13  and  N_14
REMARK    3  A    between atoms: N_14  and  C_15
REMARK    4  A    between atoms: C_20  and  C_21
REMARK                            x       y       z     vdW  Elec       q    Type
REMARK                         _______ _______ _______ _____ _____    ______ ____
ROOT
ATOM      1  C   UNL     1       3.148  16.591  17.604  0.00  0.00    +0.000 C 
ATOM      2  C   UNL     1       2.836  15.381  18.406  0.00  0.00    +0.000 A 
ATOM      3  C   UNL     1       2.827  15.220  19.776  0.00  0.00    +0.000 A 
ATOM      4  N   UNL     1       2.473  13.966  20.228  0.00  0.00    +0.000 NA
ATOM      5  C   UNL     1       2.197  13.196  19.206  0.00  0.00    +0.000 A 
ATOM      6  N   UNL     1       1.763  11.899  19.184  0.00  0.00    +0.000 N 
ATOM      7  C   UNL     1       1.277  11.284  20.309  0.00  0.00    +0.000 C 
ATOM      8  O   UNL     1       1.145  11.828  21.402  0.00  0.00    +0.000 OA
ATOM      9  N   UNL     1       0.881   9.958  20.129  0.00  0.00    +0.000 N 
ATOM     10  C   UNL     1       0.187   9.284  21.228  0.00  0.00    +0.000 C 
ATOM     11  C   UNL     1       1.030   8.142  21.784  0.00  0.00    +0.000 C 
ATOM     12  C   UNL     1       1.395   7.151  20.678  0.00  0.00    +0.000 C 
ATOM     13  C   UNL     1       2.083   7.865  19.504  0.00  0.00    +0.000 C 
ATOM     14  C   UNL     1       1.258   9.079  19.019  0.00  0.00    +0.000 C 
ATOM     15  S   UNL     1       2.403  13.895  17.660  0.00  0.00    +0.000 S 
ATOM     16  H   UNL     1       1.550  11.531  18.275  0.00  0.00    +0.000 HD
ENDROOT
BRANCH  13  17
ATOM     17  N   UNL     1       2.276   6.902  18.406  0.00  0.00    +0.000 N 
ATOM     18  H   UNL     1       1.851   7.209  17.534  0.00  0.00    +0.000 HD
BRANCH  17  19
ATOM     19  C   UNL     1       3.531   6.321  18.218  0.00  0.00    +0.000 A 
ATOM     20  C   UNL     1       4.248   5.845  19.320  0.00  0.00    +0.000 A 
ATOM     21  C   UNL     1       5.526   5.290  19.166  0.00  0.00    +0.000 A 
ATOM     22  C   UNL     1       6.117   5.220  17.903  0.00  0.00    +0.000 A 
ATOM     23 CL   UNL     1       7.687   4.510  17.794  0.00  0.00    +0.000 Cl
ATOM     24  C   UNL     1       5.446   5.722  16.787  0.00  0.00    +0.000 A 
ATOM     25  C   UNL     1       5.986   5.703  15.386  0.00  0.00    +0.000 C 
ATOM     26  C   UNL     1       4.170   6.291  16.973  0.00  0.00    +0.000 A 
ENDBRANCH  17  19
ENDBRANCH  13  17
TORSDOF 2
ENDMDL
