MODEL 1
REMARK VINA RESULT:      -7.3      0.000      0.000
REMARK  Name = 
REMARK  8 active torsions:
REMARK  status: ('A' for Active; 'I' for Inactive)
REMARK    1  A    between atoms: C_1  and  O_2
REMARK    2  A    between atoms: O_2  and  C_3
REMARK    3  A    between atoms: C_7  and  O_8
REMARK    4  A    between atoms: O_8  and  C_9
REMARK    5  A    between atoms: C_9  and  C_10
REMARK    6  A    between atoms: C_10  and  N_11
REMARK    7  A    between atoms: C_15  and  C_16
REMARK    8  A    between atoms: C_18  and  O_19
REMARK                            x       y       z     vdW  Elec       q    Type
REMARK                         _______ _______ _______ _____ _____    ______ ____
ROOT
ATOM      1  N   UNL     1       4.656   6.643  17.984  0.00  0.00    +0.000 NA
ATOM      2  C   UNL     1       3.172   6.469  18.057  0.00  0.00    +0.000 C 
ATOM      3  C   UNL     1       2.948   5.031  18.439  0.00  0.00    +0.000 A 
ATOM      4  N   UNL     1       1.783   4.370  18.398  0.00  0.00    +0.000 NA
ATOM      5  C   UNL     1       1.858   3.082  18.792  0.00  0.00    +0.000 A 
ATOM      6  C   UNL     1       0.587   2.291  18.807  0.00  0.00    +0.000 C 
ATOM      7  N   UNL     1       2.990   2.446  19.182  0.00  0.00    +0.000 NA
ATOM      8  C   UNL     1       4.105   3.190  19.193  0.00  0.00    +0.000 A 
ATOM      9  C   UNL     1       4.141   4.493  18.836  0.00  0.00    +0.000 A 
ATOM     10  C   UNL     1       5.214   5.510  18.791  0.00  0.00    +0.000 C 
ENDROOT
BRANCH   8  11
ATOM     11  O   UNL     1       5.222   2.525  19.573  0.00  0.00    +0.000 OA
ATOM     12  H   UNL     1       5.191   2.669  20.536  0.00  0.00    +0.000 HD
ENDBRANCH   8  11
BRANCH   1  13
ATOM     13  C   UNL     1       5.170   6.552  16.598  0.00  0.00    +0.000 C 
BRANCH  13  14
ATOM     14  C   UNL     1       6.542   5.876  16.442  0.00  0.00    +0.000 C 
BRANCH  14  15
ATOM     15  O   UNL     1       6.391   4.548  15.938  0.00  0.00    +0.000 OA
BRANCH  15  20
ATOM     16  C   UNL     1       6.019   3.451  12.408  0.00  0.00    +0.000 A 
ATOM     17  C   UNL     1       7.045   4.212  11.845  0.00  0.00    +0.000 A 
ATOM     18  C   UNL     1       7.811   5.064  12.640  0.00  0.00    +0.000 A 
ATOM     19  C   UNL     1       7.557   5.152  14.009  0.00  0.00    +0.000 A 
ATOM     20  C   UNL     1       6.541   4.391  14.586  0.00  0.00    +0.000 A 
ATOM     21  C   UNL     1       5.773   3.546  13.779  0.00  0.00    +0.000 A 
BRANCH  16  23
ATOM     22  C   UNL     1       4.025   3.066  11.174  0.00  0.00    +0.000 C 
ATOM     23  O   UNL     1       5.337   2.648  11.533  0.00  0.00    +0.000 OA
ENDBRANCH  16  23
ENDBRANCH  15  20
ENDBRANCH  14  15
ENDBRANCH  13  14
ENDBRANCH   1  13
TORSDOF 6
ENDMDL
MODEL 2
REMARK VINA RESULT:      -7.0      1.558      1.886
REMARK  Name = 
REMARK  8 active torsions:
REMARK  status: ('A' for Active; 'I' for Inactive)
REMARK    1  A    between atoms: C_1  and  O_2
REMARK    2  A    between atoms: O_2  and  C_3
REMARK    3  A    between atoms: C_7  and  O_8
REMARK    4  A    between atoms: O_8  and  C_9
REMARK    5  A    between atoms: C_9  and  C_10
REMARK    6  A    between atoms: C_10  and  N_11
REMARK    7  A    between atoms: C_15  and  C_16
REMARK    8  A    between atoms: C_18  and  O_19
REMARK                            x       y       z     vdW  Elec       q    Type
REMARK                         _______ _______ _______ _____ _____    ______ ____
ROOT
ATOM      1  N   UNL     1       5.208   4.479  17.640  0.00  0.00    +0.000 NA
ATOM      2  C   UNL     1       5.064   4.512  19.129  0.00  0.00    +0.000 C 
ATOM      3  C   UNL     1       3.831   3.707  19.438  0.00  0.00    +0.000 A 
ATOM      4  N   UNL     1       3.190   3.655  20.613  0.00  0.00    +0.000 NA
ATOM      5  C   UNL     1       2.103   2.856  20.622  0.00  0.00    +0.000 A 
ATOM      6  C   UNL     1       1.357   2.719  21.913  0.00  0.00    +0.000 C 
ATOM      7  N   UNL     1       1.633   2.160  19.556  0.00  0.00    +0.000 NA
ATOM      8  C   UNL     1       2.342   2.273  18.425  0.00  0.00    +0.000 A 
ATOM      9  C   UNL     1       3.456   3.031  18.309  0.00  0.00    +0.000 A 
ATOM     10  C   UNL     1       4.405   3.290  17.206  0.00  0.00    +0.000 C 
ENDROOT
BRANCH   8  11
ATOM     11  O   UNL     1       1.842   1.579  17.375  0.00  0.00    +0.000 OA
ATOM     12  H   UNL     1       2.620   1.565  16.788  0.00  0.00    +0.000 HD
ENDBRANCH   8  11
BRANCH   1  13
ATOM     13  C   UNL     1       4.668   5.694  16.991  0.00  0.00    +0.000 C 
BRANCH  13  14
ATOM     14  C   UNL     1       5.575   6.341  15.932  0.00  0.00    +0.000 C 
BRANCH  14  15
ATOM     15  O   UNL     1       6.686   5.492  15.639  0.00  0.00    +0.000 OA
BRANCH  15  20
ATOM     16  C   UNL     1       6.026   3.541  12.546  0.00  0.00    +0.000 A 
ATOM     17  C   UNL     1       7.052   4.056  11.753  0.00  0.00    +0.000 A 
ATOM     18  C   UNL     1       7.915   5.030  12.257  0.00  0.00    +0.000 A 
ATOM     19  C   UNL     1       7.756   5.489  13.565  0.00  0.00    +0.000 A 
ATOM     20  C   UNL     1       6.739   4.977  14.370  0.00  0.00    +0.000 A 
ATOM     21  C   UNL     1       5.875   4.007  13.854  0.00  0.00    +0.000 A 
BRANCH  16  23
ATOM     22  C   UNL     1       4.120   3.054  11.212  0.00  0.00    +0.000 C 
ATOM     23  O   UNL     1       5.245   2.588  11.950  0.00  0.00    +0.000 OA
ENDBRANCH  16  23
ENDBRANCH  15  20
ENDBRANCH  14  15
ENDBRANCH  13  14
ENDBRANCH   1  13
TORSDOF 6
ENDMDL
MODEL 3
REMARK VINA RESULT:      -7.0      3.465      7.178
REMARK  Name = 
REMARK  8 active torsions:
REMARK  status: ('A' for Active; 'I' for Inactive)
REMARK    1  A    between atoms: C_1  and  O_2
REMARK    2  A    between atoms: O_2  and  C_3
REMARK    3  A    between atoms: C_7  and  O_8
REMARK    4  A    between atoms: O_8  and  C_9
REMARK    5  A    between atoms: C_9  and  C_10
REMARK    6  A    between atoms: C_10  and  N_11
REMARK    7  A    between atoms: C_15  and  C_16
REMARK    8  A    between atoms: C_18  and  O_19
REMARK                            x       y       z     vdW  Elec       q    Type
REMARK                         _______ _______ _______ _____ _____    ______ ____
ROOT
ATOM      1  N   UNL     1       2.535   3.229  18.917  0.00  0.00    +0.000 NA
ATOM      2  C   UNL     1       2.903   3.045  17.479  0.00  0.00    +0.000 C 
ATOM      3  C   UNL     1       4.264   3.666  17.322  0.00  0.00    +0.000 A 
ATOM      4  N   UNL     1       4.886   3.937  16.166  0.00  0.00    +0.000 NA
ATOM      5  C   UNL     1       6.103   4.501  16.305  0.00  0.00    +0.000 A 
ATOM      6  C   UNL     1       6.873   4.797  15.056  0.00  0.00    +0.000 C 
ATOM      7  N   UNL     1       6.691   4.816  17.487  0.00  0.00    +0.000 NA
ATOM      8  C   UNL     1       5.994   4.505  18.588  0.00  0.00    +0.000 A 
ATOM      9  C   UNL     1       4.774   3.922  18.565  0.00  0.00    +0.000 A 
ATOM     10  C   UNL     1       3.840   3.467  19.616  0.00  0.00    +0.000 C 
ENDROOT
BRANCH   8  11
ATOM     11  O   UNL     1       6.598   4.843  19.752  0.00  0.00    +0.000 OA
ATOM     12  H   UNL     1       6.717   5.801  19.614  0.00  0.00    +0.000 HD
ENDBRANCH   8  11
BRANCH   1  13
ATOM     13  C   UNL     1       1.650   4.397  19.130  0.00  0.00    +0.000 C 
BRANCH  13  14
ATOM     14  C   UNL     1       2.023   5.306  20.312  0.00  0.00    +0.000 C 
BRANCH  14  15
ATOM     15  O   UNL     1       2.823   6.402  19.867  0.00  0.00    +0.000 OA
BRANCH  15  20
ATOM     16  C   UNL     1       0.717   9.458  20.057  0.00  0.00    +0.000 A 
ATOM     17  C   UNL     1       0.859   9.890  18.737  0.00  0.00    +0.000 A 
ATOM     18  C   UNL     1       1.647   9.170  17.838  0.00  0.00    +0.000 A 
ATOM     19  C   UNL     1       2.293   8.007  18.258  0.00  0.00    +0.000 A 
ATOM     20  C   UNL     1       2.154   7.561  19.571  0.00  0.00    +0.000 A 
ATOM     21  C   UNL     1       1.369   8.292  20.467  0.00  0.00    +0.000 A 
BRANCH  16  23
ATOM     22  C   UNL     1      -0.550  11.457  20.276  0.00  0.00    +0.000 C 
ATOM     23  O   UNL     1      -0.083  10.239  20.847  0.00  0.00    +0.000 OA
ENDBRANCH  16  23
ENDBRANCH  15  20
ENDBRANCH  14  15
ENDBRANCH  13  14
ENDBRANCH   1  13
TORSDOF 6
ENDMDL
MODEL 4
REMARK VINA RESULT:      -6.9      3.099      5.165
REMARK  Name = 
REMARK  8 active torsions:
REMARK  status: ('A' for Active; 'I' for Inactive)
REMARK    1  A    between atoms: C_1  and  O_2
REMARK    2  A    between atoms: O_2  and  C_3
REMARK    3  A    between atoms: C_7  and  O_8
REMARK    4  A    between atoms: O_8  and  C_9
REMARK    5  A    between atoms: C_9  and  C_10
REMARK    6  A    between atoms: C_10  and  N_11
REMARK    7  A    between atoms: C_15  and  C_16
REMARK    8  A    between atoms: C_18  and  O_19
REMARK                            x       y       z     vdW  Elec       q    Type
REMARK                         _______ _______ _______ _____ _____    ______ ____
ROOT
ATOM      1  N   UNL     1       1.905   2.956  18.921  0.00  0.00    +0.000 NA
ATOM      2  C   UNL     1       1.140   3.634  20.014  0.00  0.00    +0.000 C 
ATOM      3  C   UNL     1       1.506   5.090  19.926  0.00  0.00    +0.000 A 
ATOM      4  N   UNL     1       1.241   6.033  20.842  0.00  0.00    +0.000 NA
ATOM      5  C   UNL     1       1.684   7.265  20.518  0.00  0.00    +0.000 A 
ATOM      6  C   UNL     1       1.391   8.377  21.478  0.00  0.00    +0.000 C 
ATOM      7  N   UNL     1       2.368   7.582  19.390  0.00  0.00    +0.000 NA
ATOM      8  C   UNL     1       2.582   6.574  18.534  0.00  0.00    +0.000 A 
ATOM      9  C   UNL     1       2.168   5.305  18.749  0.00  0.00    +0.000 A 
ATOM     10  C   UNL     1       2.256   4.055  17.964  0.00  0.00    +0.000 C 
ENDROOT
BRANCH   8  11
ATOM     11  O   UNL     1       3.279   6.916  17.424  0.00  0.00    +0.000 OA
ATOM     12  H   UNL     1       3.833   6.122  17.314  0.00  0.00    +0.000 HD
ENDBRANCH   8  11
BRANCH   1  13
ATOM     13  C   UNL     1       3.150   2.322  19.409  0.00  0.00    +0.000 C 
BRANCH  13  14
ATOM     14  C   UNL     1       4.420   2.645  18.606  0.00  0.00    +0.000 C 
BRANCH  14  15
ATOM     15  O   UNL     1       5.231   3.586  19.310  0.00  0.00    +0.000 OA
BRANCH  15  20
ATOM     16  C   UNL     1       7.391   6.384  18.164  0.00  0.00    +0.000 A 
ATOM     17  C   UNL     1       7.182   6.257  16.789  0.00  0.00    +0.000 A 
ATOM     18  C   UNL     1       6.352   5.253  16.290  0.00  0.00    +0.000 A 
ATOM     19  C   UNL     1       5.719   4.374  17.169  0.00  0.00    +0.000 A 
ATOM     20  C   UNL     1       5.912   4.494  18.544  0.00  0.00    +0.000 A 
ATOM     21  C   UNL     1       6.753   5.498  19.035  0.00  0.00    +0.000 A 
BRANCH  16  23
ATOM     22  C   UNL     1       8.064   8.641  17.849  0.00  0.00    +0.000 C 
ATOM     23  O   UNL     1       8.220   7.406  18.539  0.00  0.00    +0.000 OA
ENDBRANCH  16  23
ENDBRANCH  15  20
ENDBRANCH  14  15
ENDBRANCH  13  14
ENDBRANCH   1  13
TORSDOF 6
ENDMDL
MODEL 5
REMARK VINA RESULT:      -6.9      3.853      7.681
REMARK  Name = 
REMARK  8 active torsions:
REMARK  status: ('A' for Active; 'I' for Inactive)
REMARK    1  A    between atoms: C_1  and  O_2
REMARK    2  A    between atoms: O_2  and  C_3
REMARK    3  A    between atoms: C_7  and  O_8
REMARK    4  A    between atoms: O_8  and  C_9
REMARK    5  A    between atoms: C_9  and  C_10
REMARK    6  A    between atoms: C_10  and  N_11
REMARK    7  A    between atoms: C_15  and  C_16
REMARK    8  A    between atoms: C_18  and  O_19
REMARK                            x       y       z     vdW  Elec       q    Type
REMARK                         _______ _______ _______ _____ _____    ______ ____
ROOT
ATOM      1  N   UNL     1       4.875   4.449  17.395  0.00  0.00    +0.000 NA
ATOM      2  C   UNL     1       5.151   5.691  16.608  0.00  0.00    +0.000 C 
ATOM      3  C   UNL     1       6.286   6.380  17.315  0.00  0.00    +0.000 A 
ATOM      4  N   UNL     1       6.713   7.632  17.100  0.00  0.00    +0.000 NA
ATOM      5  C   UNL     1       7.751   8.009  17.875  0.00  0.00    +0.000 A 
ATOM      6  C   UNL     1       8.305   9.383  17.665  0.00  0.00    +0.000 C 
ATOM      7  N   UNL     1       8.339   7.240  18.826  0.00  0.00    +0.000 NA
ATOM      8  C   UNL     1       7.845   6.002  18.965  0.00  0.00    +0.000 A 
ATOM      9  C   UNL     1       6.820   5.516  18.230  0.00  0.00    +0.000 A 
ATOM     10  C   UNL     1       6.131   4.209  18.178  0.00  0.00    +0.000 C 
ENDROOT
BRANCH   8  11
ATOM     11  O   UNL     1       8.442   5.263  19.930  0.00  0.00    +0.000 OA
ATOM     12  H   UNL     1       7.768   4.572  20.062  0.00  0.00    +0.000 HD
ENDBRANCH   8  11
BRANCH   1  13
ATOM     13  C   UNL     1       3.742   4.612  18.333  0.00  0.00    +0.000 C 
BRANCH  13  14
ATOM     14  C   UNL     1       2.900   5.885  18.144  0.00  0.00    +0.000 C 
BRANCH  14  15
ATOM     15  O   UNL     1       2.630   6.498  19.405  0.00  0.00    +0.000 OA
BRANCH  15  20
ATOM     16  C   UNL     1       0.863   9.647  20.279  0.00  0.00    +0.000 A 
ATOM     17  C   UNL     1       0.967  10.293  19.046  0.00  0.00    +0.000 A 
ATOM     18  C   UNL     1       1.621   9.677  17.978  0.00  0.00    +0.000 A 
ATOM     19  C   UNL     1       2.170   8.405  18.141  0.00  0.00    +0.000 A 
ATOM     20  C   UNL     1       2.067   7.746  19.365  0.00  0.00    +0.000 A 
ATOM     21  C   UNL     1       1.416   8.374  20.432  0.00  0.00    +0.000 A 
BRANCH  16  23
ATOM     22  C   UNL     1      -0.051  11.722  20.994  0.00  0.00    +0.000 C 
ATOM     23  O   UNL     1       0.196  10.344  21.251  0.00  0.00    +0.000 OA
ENDBRANCH  16  23
ENDBRANCH  15  20
ENDBRANCH  14  15
ENDBRANCH  13  14
ENDBRANCH   1  13
TORSDOF 6
ENDMDL
MODEL 6
REMARK VINA RESULT:      -6.9      2.585      6.855
REMARK  Name = 
REMARK  8 active torsions:
REMARK  status: ('A' for Active; 'I' for Inactive)
REMARK    1  A    between atoms: C_1  and  O_2
REMARK    2  A    between atoms: O_2  and  C_3
REMARK    3  A    between atoms: C_7  and  O_8
REMARK    4  A    between atoms: O_8  and  C_9
REMARK    5  A    between atoms: C_9  and  C_10
REMARK    6  A    between atoms: C_10  and  N_11
REMARK    7  A    between atoms: C_15  and  C_16
REMARK    8  A    between atoms: C_18  and  O_19
REMARK                            x       y       z     vdW  Elec       q    Type
REMARK                         _______ _______ _______ _____ _____    ______ ____
ROOT
ATOM      1  N   UNL     1       6.214   5.415  17.261  0.00  0.00    +0.000 NA
ATOM      2  C   UNL     1       5.362   4.372  16.610  0.00  0.00    +0.000 C 
ATOM      3  C   UNL     1       5.820   4.307  15.178  0.00  0.00    +0.000 A 
ATOM      4  N   UNL     1       5.194   3.681  14.172  0.00  0.00    +0.000 NA
ATOM      5  C   UNL     1       5.817   3.779  12.979  0.00  0.00    +0.000 A 
ATOM      6  C   UNL     1       5.194   3.074  11.815  0.00  0.00    +0.000 C 
ATOM      7  N   UNL     1       6.967   4.462  12.750  0.00  0.00    +0.000 NA
ATOM      8  C   UNL     1       7.520   5.052  13.818  0.00  0.00    +0.000 A 
ATOM      9  C   UNL     1       6.991   5.003  15.061  0.00  0.00    +0.000 A 
ATOM     10  C   UNL     1       7.416   5.535  16.373  0.00  0.00    +0.000 C 
ENDROOT
BRANCH   8  11
ATOM     11  O   UNL     1       8.659   5.737  13.556  0.00  0.00    +0.000 OA
ATOM     12  H   UNL     1       9.307   5.186  14.032  0.00  0.00    +0.000 HD
ENDBRANCH   8  11
BRANCH   1  13
ATOM     13  C   UNL     1       5.538   6.729  17.343  0.00  0.00    +0.000 C 
BRANCH  13  14
ATOM     14  C   UNL     1       4.026   6.717  17.064  0.00  0.00    +0.000 C 
BRANCH  14  15
ATOM     15  O   UNL     1       3.292   6.886  18.278  0.00  0.00    +0.000 OA
BRANCH  15  20
ATOM     16  C   UNL     1       2.050   4.194  20.517  0.00  0.00    +0.000 A 
ATOM     17  C   UNL     1       1.372   3.430  19.567  0.00  0.00    +0.000 A 
ATOM     18  C   UNL     1       1.337   3.831  18.231  0.00  0.00    +0.000 A 
ATOM     19  C   UNL     1       1.991   4.999  17.840  0.00  0.00    +0.000 A 
ATOM     20  C   UNL     1       2.679   5.768  18.778  0.00  0.00    +0.000 A 
ATOM     21  C   UNL     1       2.701   5.363  20.116  0.00  0.00    +0.000 A 
BRANCH  16  23
ATOM     22  C   UNL     1       1.565   2.362  21.953  0.00  0.00    +0.000 C 
ATOM     23  O   UNL     1       2.021   3.702  21.795  0.00  0.00    +0.000 OA
ENDBRANCH  16  23
ENDBRANCH  15  20
ENDBRANCH  14  15
ENDBRANCH  13  14
ENDBRANCH   1  13
TORSDOF 6
ENDMDL
MODEL 7
REMARK VINA RESULT:      -6.9      0.962      1.040
REMARK  Name = 
REMARK  8 active torsions:
REMARK  status: ('A' for Active; 'I' for Inactive)
REMARK    1  A    between atoms: C_1  and  O_2
REMARK    2  A    between atoms: O_2  and  C_3
REMARK    3  A    between atoms: C_7  and  O_8
REMARK    4  A    between atoms: O_8  and  C_9
REMARK    5  A    between atoms: C_9  and  C_10
REMARK    6  A    between atoms: C_10  and  N_11
REMARK    7  A    between atoms: C_15  and  C_16
REMARK    8  A    between atoms: C_18  and  O_19
REMARK                            x       y       z     vdW  Elec       q    Type
REMARK                         _______ _______ _______ _____ _____    ______ ____
ROOT
ATOM      1  N   UNL     1       5.638   6.072  18.480  0.00  0.00    +0.000 NA
ATOM      2  C   UNL     1       4.156   6.141  18.287  0.00  0.00    +0.000 C 
ATOM      3  C   UNL     1       3.635   4.774  18.638  0.00  0.00    +0.000 A 
ATOM      4  N   UNL     1       2.402   4.307  18.395  0.00  0.00    +0.000 NA
ATOM      5  C   UNL     1       2.193   3.041  18.810  0.00  0.00    +0.000 A 
ATOM      6  C   UNL     1       0.827   2.465  18.605  0.00  0.00    +0.000 C 
ATOM      7  N   UNL     1       3.119   2.248  19.406  0.00  0.00    +0.000 NA
ATOM      8  C   UNL     1       4.321   2.804  19.610  0.00  0.00    +0.000 A 
ATOM      9  C   UNL     1       4.634   4.069  19.250  0.00  0.00    +0.000 A 
ATOM     10  C   UNL     1       5.850   4.898  19.388  0.00  0.00    +0.000 C 
ENDROOT
BRANCH   8  11
ATOM     11  O   UNL     1       5.228   1.984  20.193  0.00  0.00    +0.000 OA
ATOM     12  H   UNL     1       6.051   2.331  19.803  0.00  0.00    +0.000 HD
ENDBRANCH   8  11
BRANCH   1  13
ATOM     13  C   UNL     1       6.366   5.843  17.212  0.00  0.00    +0.000 C 
BRANCH  13  14
ATOM     14  C   UNL     1       5.523   5.960  15.932  0.00  0.00    +0.000 C 
BRANCH  14  15
ATOM     15  O   UNL     1       5.191   4.664  15.431  0.00  0.00    +0.000 OA
BRANCH  15  20
ATOM     16  C   UNL     1       5.861   3.095  12.131  0.00  0.00    +0.000 A 
ATOM     17  C   UNL     1       7.049   3.759  11.823  0.00  0.00    +0.000 A 
ATOM     18  C   UNL     1       7.580   4.703  12.702  0.00  0.00    +0.000 A 
ATOM     19  C   UNL     1       6.924   4.982  13.901  0.00  0.00    +0.000 A 
ATOM     20  C   UNL     1       5.740   4.320  14.225  0.00  0.00    +0.000 A 
ATOM     21  C   UNL     1       5.211   3.382  13.334  0.00  0.00    +0.000 A 
BRANCH  16  23
ATOM     22  C   UNL     1       6.183   0.980  11.096  0.00  0.00    +0.000 C 
ATOM     23  O   UNL     1       5.437   2.188  11.197  0.00  0.00    +0.000 OA
ENDBRANCH  16  23
ENDBRANCH  15  20
ENDBRANCH  14  15
ENDBRANCH  13  14
ENDBRANCH   1  13
TORSDOF 6
ENDMDL
MODEL 8
REMARK VINA RESULT:      -6.9      5.445      7.574
REMARK  Name = 
REMARK  8 active torsions:
REMARK  status: ('A' for Active; 'I' for Inactive)
REMARK    1  A    between atoms: C_1  and  O_2
REMARK    2  A    between atoms: O_2  and  C_3
REMARK    3  A    between atoms: C_7  and  O_8
REMARK    4  A    between atoms: O_8  and  C_9
REMARK    5  A    between atoms: C_9  and  C_10
REMARK    6  A    between atoms: C_10  and  N_11
REMARK    7  A    between atoms: C_15  and  C_16
REMARK    8  A    between atoms: C_18  and  O_19
REMARK                            x       y       z     vdW  Elec       q    Type
REMARK                         _______ _______ _______ _____ _____    ______ ____
ROOT
ATOM      1  N   UNL     1       7.830   6.704  17.657  0.00  0.00    +0.000 NA
ATOM      2  C   UNL     1       7.568   5.935  18.913  0.00  0.00    +0.000 C 
ATOM      3  C   UNL     1       6.422   5.014  18.598  0.00  0.00    +0.000 A 
ATOM      4  N   UNL     1       5.704   4.307  19.481  0.00  0.00    +0.000 NA
ATOM      5  C   UNL     1       4.725   3.558  18.933  0.00  0.00    +0.000 A 
ATOM      6  C   UNL     1       3.904   2.713  19.857  0.00  0.00    +0.000 C 
ATOM      7  N   UNL     1       4.426   3.504  17.611  0.00  0.00    +0.000 NA
ATOM      8  C   UNL     1       5.202   4.242  16.805  0.00  0.00    +0.000 A 
ATOM      9  C   UNL     1       6.220   5.015  17.245  0.00  0.00    +0.000 A 
ATOM     10  C   UNL     1       7.213   5.877  16.569  0.00  0.00    +0.000 C 
ENDROOT
BRANCH   8  11
ATOM     11  O   UNL     1       4.872   4.179  15.493  0.00  0.00    +0.000 OA
ATOM     12  H   UNL     1       4.092   4.763  15.481  0.00  0.00    +0.000 HD
ENDBRANCH   8  11
BRANCH   1  13
ATOM     13  C   UNL     1       7.198   8.042  17.669  0.00  0.00    +0.000 C 
BRANCH  13  14
ATOM     14  C   UNL     1       8.167   9.235  17.702  0.00  0.00    +0.000 C 
BRANCH  14  15
ATOM     15  O   UNL     1       8.807   9.324  18.975  0.00  0.00    +0.000 OA
BRANCH  15  20
ATOM     16  C   UNL     1      10.931  12.352  18.626  0.00  0.00    +0.000 A 
ATOM     17  C   UNL     1      10.909  12.776  19.955  0.00  0.00    +0.000 A 
ATOM     18  C   UNL     1      10.190  12.061  20.914  0.00  0.00    +0.000 A 
ATOM     19  C   UNL     1       9.495  10.910  20.544  0.00  0.00    +0.000 A 
ATOM     20  C   UNL     1       9.514  10.471  19.220  0.00  0.00    +0.000 A 
ATOM     21  C   UNL     1      10.231  11.199  18.265  0.00  0.00    +0.000 A 
BRANCH  16  23
ATOM     22  C   UNL     1      11.131  14.402  17.438  0.00  0.00    +0.000 C 
ATOM     23  O   UNL     1      11.671  13.128  17.775  0.00  0.00    +0.000 OA
ENDBRANCH  16  23
ENDBRANCH  15  20
ENDBRANCH  14  15
ENDBRANCH  13  14
ENDBRANCH   1  13
TORSDOF 6
ENDMDL
MODEL 9
REMARK VINA RESULT:      -6.9      3.940      8.057
REMARK  Name = 
REMARK  8 active torsions:
REMARK  status: ('A' for Active; 'I' for Inactive)
REMARK    1  A    between atoms: C_1  and  O_2
REMARK    2  A    between atoms: O_2  and  C_3
REMARK    3  A    between atoms: C_7  and  O_8
REMARK    4  A    between atoms: O_8  and  C_9
REMARK    5  A    between atoms: C_9  and  C_10
REMARK    6  A    between atoms: C_10  and  N_11
REMARK    7  A    between atoms: C_15  and  C_16
REMARK    8  A    between atoms: C_18  and  O_19
REMARK                            x       y       z     vdW  Elec       q    Type
REMARK                         _______ _______ _______ _____ _____    ______ ____
ROOT
ATOM      1  N   UNL     1       4.535   4.745  17.471  0.00  0.00    +0.000 NA
ATOM      2  C   UNL     1       4.876   5.975  16.691  0.00  0.00    +0.000 C 
ATOM      3  C   UNL     1       6.100   6.551  17.350  0.00  0.00    +0.000 A 
ATOM      4  N   UNL     1       6.621   7.767  17.135  0.00  0.00    +0.000 NA
ATOM      5  C   UNL     1       7.725   8.038  17.861  0.00  0.00    +0.000 A 
ATOM      6  C   UNL     1       8.383   9.365  17.645  0.00  0.00    +0.000 C 
ATOM      7  N   UNL     1       8.291   7.203  18.768  0.00  0.00    +0.000 NA
ATOM      8  C   UNL     1       7.701   6.008  18.912  0.00  0.00    +0.000 A 
ATOM      9  C   UNL     1       6.603   5.626  18.223  0.00  0.00    +0.000 A 
ATOM     10  C   UNL     1       5.803   4.383  18.185  0.00  0.00    +0.000 C 
ENDROOT
BRANCH   8  11
ATOM     11  O   UNL     1       8.280   5.202  19.833  0.00  0.00    +0.000 OA
ATOM     12  H   UNL     1       8.536   4.449  19.269  0.00  0.00    +0.000 HD
ENDBRANCH   8  11
BRANCH   1  13
ATOM     13  C   UNL     1       3.468   4.983  18.469  0.00  0.00    +0.000 C 
BRANCH  13  14
ATOM     14  C   UNL     1       2.666   6.282  18.286  0.00  0.00    +0.000 C 
BRANCH  14  15
ATOM     15  O   UNL     1       2.953   7.200  19.342  0.00  0.00    +0.000 OA
BRANCH  15  20
ATOM     16  C   UNL     1       0.207   8.840  21.232  0.00  0.00    +0.000 A 
ATOM     17  C   UNL     1      -0.155   9.798  20.284  0.00  0.00    +0.000 A 
ATOM     18  C   UNL     1       0.520   9.877  19.065  0.00  0.00    +0.000 A 
ATOM     19  C   UNL     1       1.561   8.990  18.789  0.00  0.00    +0.000 A 
ATOM     20  C   UNL     1       1.928   8.024  19.725  0.00  0.00    +0.000 A 
ATOM     21  C   UNL     1       1.250   7.957  20.947  0.00  0.00    +0.000 A 
BRANCH  16  23
ATOM     22  C   UNL     1      -0.690  10.113  23.028  0.00  0.00    +0.000 C 
ATOM     23  O   UNL     1      -0.527   8.852  22.388  0.00  0.00    +0.000 OA
ENDBRANCH  16  23
ENDBRANCH  15  20
ENDBRANCH  14  15
ENDBRANCH  13  14
ENDBRANCH   1  13
TORSDOF 6
ENDMDL
