MODEL 1
REMARK VINA RESULT:      -8.3      0.000      0.000
REMARK  Name = 
REMARK  12 active torsions:
REMARK  status: ('A' for Active; 'I' for Inactive)
REMARK    1  A    between atoms: C_1  and  C_2
REMARK    2  A    between atoms: C_2  and  C_3
REMARK    3  A    between atoms: C_2  and  C_4
REMARK    4  A    between atoms: C_4  and  C_5
REMARK    5  A    between atoms: C_5  and  C_6
REMARK    6  A    between atoms: C_6  and  C_7
REMARK    7  A    between atoms: C_7  and  O_8
REMARK    8  A    between atoms: N_11  and  C_12
REMARK    9  A    between atoms: C_12  and  C_13
REMARK   10  A    between atoms: C_12  and  C_14
REMARK   11  A    between atoms: C_17  and  C_18
REMARK   12  A    between atoms: N_21  and  C_22
REMARK                            x       y       z     vdW  Elec       q    Type
REMARK                         _______ _______ _______ _____ _____    ______ ____
ROOT
ATOM      1  C   UNL     1       6.747   4.884  17.278  0.00  0.00    +0.000 C 
ATOM      2  C   UNL     1       7.046   4.647  15.793  0.00  0.00    +0.000 C 
ENDROOT
BRANCH   1   6
ATOM      3  C   UNL     1       2.670   4.487  18.563  0.00  0.00    +0.000 C 
ATOM      4  C   UNL     1       2.959   4.360  17.068  0.00  0.00    +0.000 C 
ATOM      5  C   UNL     1       4.331   4.888  16.727  0.00  0.00    +0.000 C 
ATOM      6  N   UNL     1       5.367   4.534  17.681  0.00  0.00    +0.000 N 
ATOM      7  C   UNL     1       5.070   4.107  18.970  0.00  0.00    +0.000 C 
ATOM      8  O   UNL     1       5.903   3.940  19.853  0.00  0.00    +0.000 OA
ATOM      9  O   UNL     1       3.760   3.841  19.262  0.00  0.00    +0.000 OA
BRANCH   3  11
ATOM     10  C   UNL     1       1.446   2.203  18.728  0.00  0.00    +0.000 C 
ATOM     11  C   UNL     1       1.351   3.720  18.945  0.00  0.00    +0.000 C 
ATOM     12  C   UNL     1       0.874   3.981  20.384  0.00  0.00    +0.000 C 
ENDBRANCH   3  11
BRANCH   3  13
ATOM     13  C   UNL     1       2.626   5.974  19.044  0.00  0.00    +0.000 C 
BRANCH  13  14
ATOM     14  C   UNL     1       1.999   6.961  18.037  0.00  0.00    +0.000 C 
BRANCH  14  15
ATOM     15  C   UNL     1       2.847   8.217  17.853  0.00  0.00    +0.000 C 
BRANCH  15  16
ATOM     16  O   UNL     1       2.040   9.321  17.472  0.00  0.00    +0.000 OA
ATOM     17  H   UNL     1       2.127   9.997  18.167  0.00  0.00    +0.000 HD
ENDBRANCH  15  16
ENDBRANCH  14  15
ENDBRANCH  13  14
ENDBRANCH   3  13
ENDBRANCH   1   6
BRANCH   1  18
ATOM     18  C   UNL     1       7.238   6.251  17.751  0.00  0.00    +0.000 A 
ATOM     19  C   UNL     1       8.056   6.346  18.894  0.00  0.00    +0.000 A 
ATOM     20  C   UNL     1       8.637   7.566  19.271  0.00  0.00    +0.000 A 
ATOM     21  C   UNL     1       8.409   8.718  18.514  0.00  0.00    +0.000 A 
ATOM     22  C   UNL     1       7.566   8.643  17.403  0.00  0.00    +0.000 A 
ATOM     23  C   UNL     1       6.995   7.424  17.025  0.00  0.00    +0.000 A 
BRANCH  21  24
ATOM     24  C   UNL     1       9.073   9.988  18.842  0.00  0.00    +0.000 A 
ATOM     25  C   UNL     1       9.381  10.394  20.198  0.00  0.00    +0.000 A 
ATOM     26  C   UNL     1       9.936  11.587  20.443  0.00  0.00    +0.000 A 
ATOM     27  N   UNL     1      10.236  12.458  19.413  0.00  0.00    +0.000 N 
ATOM     28  C   UNL     1      10.813  13.759  19.699  0.00  0.00    +0.000 C 
ATOM     29  C   UNL     1       9.990  12.144  18.076  0.00  0.00    +0.000 A 
ATOM     30  O   UNL     1      10.246  12.883  17.128  0.00  0.00    +0.000 OA
ATOM     31  C   UNL     1       9.365  10.818  17.823  0.00  0.00    +0.000 A 
ENDBRANCH  21  24
ENDBRANCH   1  18
TORSDOF 8
ENDMDL
MODEL 2
REMARK VINA RESULT:      -8.2      0.885      1.196
REMARK  Name = 
REMARK  12 active torsions:
REMARK  status: ('A' for Active; 'I' for Inactive)
REMARK    1  A    between atoms: C_1  and  C_2
REMARK    2  A    between atoms: C_2  and  C_3
REMARK    3  A    between atoms: C_2  and  C_4
REMARK    4  A    between atoms: C_4  and  C_5
REMARK    5  A    between atoms: C_5  and  C_6
REMARK    6  A    between atoms: C_6  and  C_7
REMARK    7  A    between atoms: C_7  and  O_8
REMARK    8  A    between atoms: N_11  and  C_12
REMARK    9  A    between atoms: C_12  and  C_13
REMARK   10  A    between atoms: C_12  and  C_14
REMARK   11  A    between atoms: C_17  and  C_18
REMARK   12  A    between atoms: N_21  and  C_22
REMARK                            x       y       z     vdW  Elec       q    Type
REMARK                         _______ _______ _______ _____ _____    ______ ____
ROOT
ATOM      1  C   UNL     1       6.584   4.822  17.430  0.00  0.00    +0.000 C 
ATOM      2  C   UNL     1       6.808   4.494  15.949  0.00  0.00    +0.000 C 
ENDROOT
BRANCH   1   6
ATOM      3  C   UNL     1       2.575   4.402  18.911  0.00  0.00    +0.000 C 
ATOM      4  C   UNL     1       2.830   4.060  17.444  0.00  0.00    +0.000 C 
ATOM      5  C   UNL     1       4.157   4.605  16.975  0.00  0.00    +0.000 C 
ATOM      6  N   UNL     1       5.239   4.462  17.933  0.00  0.00    +0.000 N 
ATOM      7  C   UNL     1       5.004   4.225  19.283  0.00  0.00    +0.000 C 
ATOM      8  O   UNL     1       5.871   4.245  20.149  0.00  0.00    +0.000 OA
ATOM      9  O   UNL     1       3.722   3.935  19.660  0.00  0.00    +0.000 OA
BRANCH   3  11
ATOM     10  C   UNL     1       0.961   2.389  18.627  0.00  0.00    +0.000 C 
ATOM     11  C   UNL     1       1.317   3.632  19.455  0.00  0.00    +0.000 C 
ATOM     12  C   UNL     1       1.430   3.221  20.933  0.00  0.00    +0.000 C 
ENDBRANCH   3  11
BRANCH   3  13
ATOM     13  C   UNL     1       2.454   5.941  19.159  0.00  0.00    +0.000 C 
BRANCH  13  14
ATOM     14  C   UNL     1       2.042   6.764  17.921  0.00  0.00    +0.000 C 
BRANCH  14  15
ATOM     15  C   UNL     1       2.731   8.126  17.876  0.00  0.00    +0.000 C 
BRANCH  15  16
ATOM     16  O   UNL     1       1.849   9.153  18.305  0.00  0.00    +0.000 OA
ATOM     17  H   UNL     1       2.320  10.000  18.206  0.00  0.00    +0.000 HD
ENDBRANCH  15  16
ENDBRANCH  14  15
ENDBRANCH  13  14
ENDBRANCH   3  13
ENDBRANCH   1   6
BRANCH   1  18
ATOM     18  C   UNL     1       7.057   6.231  17.784  0.00  0.00    +0.000 A 
ATOM     19  C   UNL     1       8.060   6.412  18.757  0.00  0.00    +0.000 A 
ATOM     20  C   UNL     1       8.613   7.677  19.001  0.00  0.00    +0.000 A 
ATOM     21  C   UNL     1       8.173   8.790  18.280  0.00  0.00    +0.000 A 
ATOM     22  C   UNL     1       7.150   8.628  17.343  0.00  0.00    +0.000 A 
ATOM     23  C   UNL     1       6.606   7.365  17.096  0.00  0.00    +0.000 A 
BRANCH  21  24
ATOM     24  C   UNL     1       8.797  10.109  18.461  0.00  0.00    +0.000 A 
ATOM     25  C   UNL     1       8.515  11.242  17.604  0.00  0.00    +0.000 A 
ATOM     26  C   UNL     1       9.155  12.405  17.780  0.00  0.00    +0.000 A 
ATOM     27  N   UNL     1      10.092  12.558  18.783  0.00  0.00    +0.000 N 
ATOM     28  C   UNL     1      10.796  13.817  18.941  0.00  0.00    +0.000 C 
ATOM     29  C   UNL     1      10.414  11.526  19.665  0.00  0.00    +0.000 A 
ATOM     30  O   UNL     1      11.235  11.618  20.575  0.00  0.00    +0.000 OA
ATOM     31  C   UNL     1       9.701  10.239  19.449  0.00  0.00    +0.000 A 
ENDBRANCH  21  24
ENDBRANCH   1  18
TORSDOF 8
ENDMDL
MODEL 3
REMARK VINA RESULT:      -8.1      1.014      1.120
REMARK  Name = 
REMARK  12 active torsions:
REMARK  status: ('A' for Active; 'I' for Inactive)
REMARK    1  A    between atoms: C_1  and  C_2
REMARK    2  A    between atoms: C_2  and  C_3
REMARK    3  A    between atoms: C_2  and  C_4
REMARK    4  A    between atoms: C_4  and  C_5
REMARK    5  A    between atoms: C_5  and  C_6
REMARK    6  A    between atoms: C_6  and  C_7
REMARK    7  A    between atoms: C_7  and  O_8
REMARK    8  A    between atoms: N_11  and  C_12
REMARK    9  A    between atoms: C_12  and  C_13
REMARK   10  A    between atoms: C_12  and  C_14
REMARK   11  A    between atoms: C_17  and  C_18
REMARK   12  A    between atoms: N_21  and  C_22
REMARK                            x       y       z     vdW  Elec       q    Type
REMARK                         _______ _______ _______ _____ _____    ______ ____
ROOT
ATOM      1  C   UNL     1       6.434   4.674  17.395  0.00  0.00    +0.000 C 
ATOM      2  C   UNL     1       6.594   4.369  15.901  0.00  0.00    +0.000 C 
ENDROOT
BRANCH   1   6
ATOM      3  C   UNL     1       2.475   4.251  19.001  0.00  0.00    +0.000 C 
ATOM      4  C   UNL     1       2.695   3.854  17.542  0.00  0.00    +0.000 C 
ATOM      5  C   UNL     1       4.001   4.400  17.016  0.00  0.00    +0.000 C 
ATOM      6  N   UNL     1       5.109   4.313  17.949  0.00  0.00    +0.000 N 
ATOM      7  C   UNL     1       4.915   4.126  19.313  0.00  0.00    +0.000 C 
ATOM      8  O   UNL     1       5.804   4.194  20.153  0.00  0.00    +0.000 OA
ATOM      9  O   UNL     1       3.649   3.832  19.736  0.00  0.00    +0.000 OA
BRANCH   3  11
ATOM     10  C   UNL     1       0.659   2.425  18.662  0.00  0.00    +0.000 C 
ATOM     11  C   UNL     1       1.244   3.483  19.609  0.00  0.00    +0.000 C 
ATOM     12  C   UNL     1       1.535   2.818  20.965  0.00  0.00    +0.000 C 
ENDBRANCH   3  11
BRANCH   3  13
ATOM     13  C   UNL     1       2.334   5.796  19.191  0.00  0.00    +0.000 C 
BRANCH  13  14
ATOM     14  C   UNL     1       1.789   6.230  20.567  0.00  0.00    +0.000 C 
BRANCH  14  15
ATOM     15  C   UNL     1       1.573   7.739  20.654  0.00  0.00    +0.000 C 
BRANCH  15  16
ATOM     16  O   UNL     1       1.652   8.337  19.369  0.00  0.00    +0.000 OA
ATOM     17  H   UNL     1       0.747   8.385  19.015  0.00  0.00    +0.000 HD
ENDBRANCH  15  16
ENDBRANCH  14  15
ENDBRANCH  13  14
ENDBRANCH   3  13
ENDBRANCH   1   6
BRANCH   1  18
ATOM     18  C   UNL     1       6.931   6.073  17.752  0.00  0.00    +0.000 A 
ATOM     19  C   UNL     1       7.952   6.234  18.710  0.00  0.00    +0.000 A 
ATOM     20  C   UNL     1       8.526   7.489  18.956  0.00  0.00    +0.000 A 
ATOM     21  C   UNL     1       8.089   8.613  18.250  0.00  0.00    +0.000 A 
ATOM     22  C   UNL     1       7.048   8.473  17.329  0.00  0.00    +0.000 A 
ATOM     23  C   UNL     1       6.484   7.219  17.081  0.00  0.00    +0.000 A 
BRANCH  21  24
ATOM     24  C   UNL     1       8.732   9.923  18.431  0.00  0.00    +0.000 A 
ATOM     25  C   UNL     1       9.776  10.165  19.407  0.00  0.00    +0.000 A 
ATOM     26  C   UNL     1      10.288  11.392  19.567  0.00  0.00    +0.000 A 
ATOM     27  N   UNL     1       9.841  12.454  18.806  0.00  0.00    +0.000 N 
ATOM     28  C   UNL     1      10.388  13.783  19.014  0.00  0.00    +0.000 C 
ATOM     29  C   UNL     1       8.852  12.311  17.833  0.00  0.00    +0.000 A 
ATOM     30  O   UNL     1       8.429  13.225  17.130  0.00  0.00    +0.000 OA
ATOM     31  C   UNL     1       8.288  10.944  17.675  0.00  0.00    +0.000 A 
ENDBRANCH  21  24
ENDBRANCH   1  18
TORSDOF 8
ENDMDL
MODEL 4
REMARK VINA RESULT:      -8.0      0.944      1.533
REMARK  Name = 
REMARK  12 active torsions:
REMARK  status: ('A' for Active; 'I' for Inactive)
REMARK    1  A    between atoms: C_1  and  C_2
REMARK    2  A    between atoms: C_2  and  C_3
REMARK    3  A    between atoms: C_2  and  C_4
REMARK    4  A    between atoms: C_4  and  C_5
REMARK    5  A    between atoms: C_5  and  C_6
REMARK    6  A    between atoms: C_6  and  C_7
REMARK    7  A    between atoms: C_7  and  O_8
REMARK    8  A    between atoms: N_11  and  C_12
REMARK    9  A    between atoms: C_12  and  C_13
REMARK   10  A    between atoms: C_12  and  C_14
REMARK   11  A    between atoms: C_17  and  C_18
REMARK   12  A    between atoms: N_21  and  C_22
REMARK                            x       y       z     vdW  Elec       q    Type
REMARK                         _______ _______ _______ _____ _____    ______ ____
ROOT
ATOM      1  C   UNL     1       6.739   4.708  17.417  0.00  0.00    +0.000 C 
ATOM      2  C   UNL     1       6.944   4.220  15.977  0.00  0.00    +0.000 C 
ENDROOT
BRANCH   1   6
ATOM      3  C   UNL     1       2.714   4.857  18.903  0.00  0.00    +0.000 C 
ATOM      4  C   UNL     1       2.916   4.480  17.437  0.00  0.00    +0.000 C 
ATOM      5  C   UNL     1       4.306   4.832  16.965  0.00  0.00    +0.000 C 
ATOM      6  N   UNL     1       5.358   4.541  17.922  0.00  0.00    +0.000 N 
ATOM      7  C   UNL     1       5.095   4.342  19.272  0.00  0.00    +0.000 C 
ATOM      8  O   UNL     1       5.957   4.241  20.137  0.00  0.00    +0.000 OA
ATOM      9  O   UNL     1       3.786   4.235  19.652  0.00  0.00    +0.000 OA
BRANCH   3  11
ATOM     10  C   UNL     1       0.886   3.026  18.689  0.00  0.00    +0.000 C 
ATOM     11  C   UNL     1       1.361   4.271  19.450  0.00  0.00    +0.000 C 
ATOM     12  C   UNL     1       1.387   3.946  20.954  0.00  0.00    +0.000 C 
ENDBRANCH   3  11
BRANCH   3  13
ATOM     13  C   UNL     1       2.810   6.398  19.148  0.00  0.00    +0.000 C 
BRANCH  13  14
ATOM     14  C   UNL     1       1.982   7.260  18.173  0.00  0.00    +0.000 C 
BRANCH  14  15
ATOM     15  C   UNL     1       2.723   8.526  17.747  0.00  0.00    +0.000 C 
BRANCH  15  16
ATOM     16  O   UNL     1       1.808   9.541  17.362  0.00  0.00    +0.000 OA
ATOM     17  H   UNL     1       1.003   9.099  17.040  0.00  0.00    +0.000 HD
ENDBRANCH  15  16
ENDBRANCH  14  15
ENDBRANCH  13  14
ENDBRANCH   3  13
ENDBRANCH   1   6
BRANCH   1  18
ATOM     18  C   UNL     1       7.357   6.086  17.649  0.00  0.00    +0.000 A 
ATOM     19  C   UNL     1       7.041   7.153  16.784  0.00  0.00    +0.000 A 
ATOM     20  C   UNL     1       7.479   8.458  17.053  0.00  0.00    +0.000 A 
ATOM     21  C   UNL     1       8.244   8.724  18.190  0.00  0.00    +0.000 A 
ATOM     22  C   UNL     1       8.598   7.667  19.032  0.00  0.00    +0.000 A 
ATOM     23  C   UNL     1       8.154   6.369  18.766  0.00  0.00    +0.000 A 
BRANCH  21  24
ATOM     24  C   UNL     1       8.643  10.097  18.535  0.00  0.00    +0.000 A 
ATOM     25  C   UNL     1       8.366  11.239  17.688  0.00  0.00    +0.000 A 
ATOM     26  C   UNL     1       8.802  12.459  18.025  0.00  0.00    +0.000 A 
ATOM     27  N   UNL     1       9.519  12.663  19.187  0.00  0.00    +0.000 N 
ATOM     28  C   UNL     1      10.007  13.988  19.522  0.00  0.00    +0.000 C 
ATOM     29  C   UNL     1       9.817  11.626  20.071  0.00  0.00    +0.000 A 
ATOM     30  O   UNL     1      10.445  11.761  21.118  0.00  0.00    +0.000 OA
ATOM     31  C   UNL     1       9.333  10.275  19.676  0.00  0.00    +0.000 A 
ENDBRANCH  21  24
ENDBRANCH   1  18
TORSDOF 8
ENDMDL
MODEL 5
REMARK VINA RESULT:      -7.7      0.688      1.116
REMARK  Name = 
REMARK  12 active torsions:
REMARK  status: ('A' for Active; 'I' for Inactive)
REMARK    1  A    between atoms: C_1  and  C_2
REMARK    2  A    between atoms: C_2  and  C_3
REMARK    3  A    between atoms: C_2  and  C_4
REMARK    4  A    between atoms: C_4  and  C_5
REMARK    5  A    between atoms: C_5  and  C_6
REMARK    6  A    between atoms: C_6  and  C_7
REMARK    7  A    between atoms: C_7  and  O_8
REMARK    8  A    between atoms: N_11  and  C_12
REMARK    9  A    between atoms: C_12  and  C_13
REMARK   10  A    between atoms: C_12  and  C_14
REMARK   11  A    between atoms: C_17  and  C_18
REMARK   12  A    between atoms: N_21  and  C_22
REMARK                            x       y       z     vdW  Elec       q    Type
REMARK                         _______ _______ _______ _____ _____    ______ ____
ROOT
ATOM      1  C   UNL     1       6.446   4.557  17.235  0.00  0.00    +0.000 C 
ATOM      2  C   UNL     1       6.505   4.218  15.741  0.00  0.00    +0.000 C 
ENDROOT
BRANCH   1   6
ATOM      3  C   UNL     1       2.563   4.695  19.062  0.00  0.00    +0.000 C 
ATOM      4  C   UNL     1       2.632   4.419  17.562  0.00  0.00    +0.000 C 
ATOM      5  C   UNL     1       3.988   4.771  17.000  0.00  0.00    +0.000 C 
ATOM      6  N   UNL     1       5.106   4.387  17.842  0.00  0.00    +0.000 N 
ATOM      7  C   UNL     1       4.950   4.098  19.193  0.00  0.00    +0.000 C 
ATOM      8  O   UNL     1       5.877   3.915  19.973  0.00  0.00    +0.000 OA
ATOM      9  O   UNL     1       3.674   3.996  19.673  0.00  0.00    +0.000 OA
BRANCH   3  11
ATOM     10  C   UNL     1       0.690   2.905  18.897  0.00  0.00    +0.000 C 
ATOM     11  C   UNL     1       1.243   4.104  19.680  0.00  0.00    +0.000 C 
ATOM     12  C   UNL     1       1.372   3.705  21.160  0.00  0.00    +0.000 C 
ENDBRANCH   3  11
BRANCH   3  13
ATOM     13  C   UNL     1       2.725   6.212  19.405  0.00  0.00    +0.000 C 
BRANCH  13  14
ATOM     14  C   UNL     1       2.395   7.174  18.245  0.00  0.00    +0.000 C 
BRANCH  14  15
ATOM     15  C   UNL     1       1.933   8.542  18.742  0.00  0.00    +0.000 C 
BRANCH  15  16
ATOM     16  O   UNL     1       1.272   9.258  17.709  0.00  0.00    +0.000 OA
ATOM     17  H   UNL     1       0.399   9.521  18.051  0.00  0.00    +0.000 HD
ENDBRANCH  15  16
ENDBRANCH  14  15
ENDBRANCH  13  14
ENDBRANCH   3  13
ENDBRANCH   1   6
BRANCH   1  18
ATOM     18  C   UNL     1       7.143   5.879  17.551  0.00  0.00    +0.000 A 
ATOM     19  C   UNL     1       6.856   7.026  16.785  0.00  0.00    +0.000 A 
ATOM     20  C   UNL     1       7.370   8.282  17.138  0.00  0.00    +0.000 A 
ATOM     21  C   UNL     1       8.186   8.418  18.264  0.00  0.00    +0.000 A 
ATOM     22  C   UNL     1       8.510   7.280  19.007  0.00  0.00    +0.000 A 
ATOM     23  C   UNL     1       7.989   6.031  18.657  0.00  0.00    +0.000 A 
BRANCH  21  24
ATOM     24  C   UNL     1       8.667   9.737  18.700  0.00  0.00    +0.000 A 
ATOM     25  C   UNL     1       9.144  10.002  20.043  0.00  0.00    +0.000 A 
ATOM     26  C   UNL     1       9.518  11.237  20.401  0.00  0.00    +0.000 A 
ATOM     27  N   UNL     1       9.466  12.285  19.504  0.00  0.00    +0.000 N 
ATOM     28  C   UNL     1       9.850  13.622  19.918  0.00  0.00    +0.000 C 
ATOM     29  C   UNL     1       9.037  12.119  18.187  0.00  0.00    +0.000 A 
ATOM     30  O   UNL     1       8.981  13.019  17.353  0.00  0.00    +0.000 OA
ATOM     31  C   UNL     1       8.616  10.743  17.808  0.00  0.00    +0.000 A 
ENDBRANCH  21  24
ENDBRANCH   1  18
TORSDOF 8
ENDMDL
MODEL 6
REMARK VINA RESULT:      -7.7      1.378      1.868
REMARK  Name = 
REMARK  12 active torsions:
REMARK  status: ('A' for Active; 'I' for Inactive)
REMARK    1  A    between atoms: C_1  and  C_2
REMARK    2  A    between atoms: C_2  and  C_3
REMARK    3  A    between atoms: C_2  and  C_4
REMARK    4  A    between atoms: C_4  and  C_5
REMARK    5  A    between atoms: C_5  and  C_6
REMARK    6  A    between atoms: C_6  and  C_7
REMARK    7  A    between atoms: C_7  and  O_8
REMARK    8  A    between atoms: N_11  and  C_12
REMARK    9  A    between atoms: C_12  and  C_13
REMARK   10  A    between atoms: C_12  and  C_14
REMARK   11  A    between atoms: C_17  and  C_18
REMARK   12  A    between atoms: N_21  and  C_22
REMARK                            x       y       z     vdW  Elec       q    Type
REMARK                         _______ _______ _______ _____ _____    ______ ____
ROOT
ATOM      1  C   UNL     1       6.391   4.387  17.275  0.00  0.00    +0.000 C 
ATOM      2  C   UNL     1       6.451   3.940  15.810  0.00  0.00    +0.000 C 
ENDROOT
BRANCH   1   6
ATOM      3  C   UNL     1       2.459   4.474  19.000  0.00  0.00    +0.000 C 
ATOM      4  C   UNL     1       2.623   3.798  17.640  0.00  0.00    +0.000 C 
ATOM      5  C   UNL     1       3.938   4.169  16.997  0.00  0.00    +0.000 C 
ATOM      6  N   UNL     1       5.066   4.204  17.910  0.00  0.00    +0.000 N 
ATOM      7  C   UNL     1       4.899   4.289  19.288  0.00  0.00    +0.000 C 
ATOM      8  O   UNL     1       5.812   4.469  20.085  0.00  0.00    +0.000 OA
ATOM      9  O   UNL     1       3.632   4.143  19.781  0.00  0.00    +0.000 OA
BRANCH   3  11
ATOM     10  C   UNL     1       0.506   2.763  19.007  0.00  0.00    +0.000 C 
ATOM     11  C   UNL     1       1.212   3.897  19.764  0.00  0.00    +0.000 C 
ATOM     12  C   UNL     1       1.525   3.413  21.190  0.00  0.00    +0.000 C 
ENDBRANCH   3  11
BRANCH   3  13
ATOM     13  C   UNL     1       2.395   6.032  18.896  0.00  0.00    +0.000 C 
BRANCH  13  14
ATOM     14  C   UNL     1       2.217   6.763  20.243  0.00  0.00    +0.000 C 
BRANCH  14  15
ATOM     15  C   UNL     1       1.722   8.196  20.063  0.00  0.00    +0.000 C 
BRANCH  15  16
ATOM     16  O   UNL     1       0.682   8.491  20.984  0.00  0.00    +0.000 OA
ATOM     17  H   UNL     1       0.348   7.642  21.325  0.00  0.00    +0.000 HD
ENDBRANCH  15  16
ENDBRANCH  14  15
ENDBRANCH  13  14
ENDBRANCH   3  13
ENDBRANCH   1   6
BRANCH   1  18
ATOM     18  C   UNL     1       7.030   5.759  17.484  0.00  0.00    +0.000 A 
ATOM     19  C   UNL     1       6.606   6.857  16.711  0.00  0.00    +0.000 A 
ATOM     20  C   UNL     1       7.071   8.153  16.975  0.00  0.00    +0.000 A 
ATOM     21  C   UNL     1       7.975   8.378  18.017  0.00  0.00    +0.000 A 
ATOM     22  C   UNL     1       8.434   7.290  18.763  0.00  0.00    +0.000 A 
ATOM     23  C   UNL     1       7.962   6.001  18.503  0.00  0.00    +0.000 A 
BRANCH  21  24
ATOM     24  C   UNL     1       8.411   9.739  18.365  0.00  0.00    +0.000 A 
ATOM     25  C   UNL     1       8.184  10.887  17.511  0.00  0.00    +0.000 A 
ATOM     26  C   UNL     1       8.653  12.093  17.852  0.00  0.00    +0.000 A 
ATOM     27  N   UNL     1       9.358  12.277  19.025  0.00  0.00    +0.000 N 
ATOM     28  C   UNL     1       9.883  13.587  19.364  0.00  0.00    +0.000 C 
ATOM     29  C   UNL     1       9.610  11.234  19.915  0.00  0.00    +0.000 A 
ATOM     30  O   UNL     1      10.226  11.352  20.972  0.00  0.00    +0.000 OA
ATOM     31  C   UNL     1       9.089   9.898  19.516  0.00  0.00    +0.000 A 
ENDBRANCH  21  24
ENDBRANCH   1  18
TORSDOF 8
ENDMDL
MODEL 7
REMARK VINA RESULT:      -7.6      5.458      9.260
REMARK  Name = 
REMARK  12 active torsions:
REMARK  status: ('A' for Active; 'I' for Inactive)
REMARK    1  A    between atoms: C_1  and  C_2
REMARK    2  A    between atoms: C_2  and  C_3
REMARK    3  A    between atoms: C_2  and  C_4
REMARK    4  A    between atoms: C_4  and  C_5
REMARK    5  A    between atoms: C_5  and  C_6
REMARK    6  A    between atoms: C_6  and  C_7
REMARK    7  A    between atoms: C_7  and  O_8
REMARK    8  A    between atoms: N_11  and  C_12
REMARK    9  A    between atoms: C_12  and  C_13
REMARK   10  A    between atoms: C_12  and  C_14
REMARK   11  A    between atoms: C_17  and  C_18
REMARK   12  A    between atoms: N_21  and  C_22
REMARK                            x       y       z     vdW  Elec       q    Type
REMARK                         _______ _______ _______ _____ _____    ______ ____
ROOT
ATOM      1  C   UNL     1       0.787  11.077  19.166  0.00  0.00    +0.000 C 
ATOM      2  C   UNL     1       1.186  11.763  20.479  0.00  0.00    +0.000 C 
ENDROOT
BRANCH   1   6
ATOM      3  C   UNL     1      -3.240  11.174  17.679  0.00  0.00    +0.000 C 
ATOM      4  C   UNL     1      -2.810   9.950  18.484  0.00  0.00    +0.000 C 
ATOM      5  C   UNL     1      -1.307   9.875  18.610  0.00  0.00    +0.000 C 
ATOM      6  N   UNL     1      -0.660  11.150  18.861  0.00  0.00    +0.000 N 
ATOM      7  C   UNL     1      -1.293  12.362  18.611  0.00  0.00    +0.000 C 
ATOM      8  O   UNL     1      -0.741  13.454  18.665  0.00  0.00    +0.000 OA
ATOM      9  O   UNL     1      -2.624  12.327  18.301  0.00  0.00    +0.000 OA
BRANCH   3  11
ATOM     10  C   UNL     1      -5.276  11.874  19.131  0.00  0.00    +0.000 C 
ATOM     11  C   UNL     1      -4.797  11.377  17.759  0.00  0.00    +0.000 C 
ATOM     12  C   UNL     1      -5.359  12.313  16.676  0.00  0.00    +0.000 C 
ENDBRANCH   3  11
BRANCH   3  13
ATOM     13  C   UNL     1      -2.745  11.126  16.197  0.00  0.00    +0.000 C 
BRANCH  13  14
ATOM     14  C   UNL     1      -3.108   9.834  15.437  0.00  0.00    +0.000 C 
BRANCH  14  15
ATOM     15  C   UNL     1      -3.373  10.089  13.955  0.00  0.00    +0.000 C 
BRANCH  15  16
ATOM     16  O   UNL     1      -4.688   9.687  13.600  0.00  0.00    +0.000 OA
ATOM     17  H   UNL     1      -4.607   8.985  12.931  0.00  0.00    +0.000 HD
ENDBRANCH  15  16
ENDBRANCH  14  15
ENDBRANCH  13  14
ENDBRANCH   3  13
ENDBRANCH   1   6
BRANCH   1  18
ATOM     18  C   UNL     1       1.414   9.692  19.028  0.00  0.00    +0.000 A 
ATOM     19  C   UNL     1       1.439   8.818  20.134  0.00  0.00    +0.000 A 
ATOM     20  C   UNL     1       1.879   7.493  20.001  0.00  0.00    +0.000 A 
ATOM     21  C   UNL     1       2.307   7.013  18.761  0.00  0.00    +0.000 A 
ATOM     22  C   UNL     1       2.326   7.883  17.668  0.00  0.00    +0.000 A 
ATOM     23  C   UNL     1       1.879   9.201  17.801  0.00  0.00    +0.000 A 
BRANCH  21  24
ATOM     24  C   UNL     1       2.692   5.606  18.581  0.00  0.00    +0.000 A 
ATOM     25  C   UNL     1       1.894   4.654  17.836  0.00  0.00    +0.000 A 
ATOM     26  C   UNL     1       2.265   3.371  17.752  0.00  0.00    +0.000 A 
ATOM     27  N   UNL     1       3.418   2.922  18.365  0.00  0.00    +0.000 N 
ATOM     28  C   UNL     1       3.790   1.521  18.287  0.00  0.00    +0.000 C 
ATOM     29  C   UNL     1       4.256   3.770  19.089  0.00  0.00    +0.000 A 
ATOM     30  O   UNL     1       5.293   3.417  19.645  0.00  0.00    +0.000 OA
ATOM     31  C   UNL     1       3.824   5.190  19.180  0.00  0.00    +0.000 A 
ENDBRANCH  21  24
ENDBRANCH   1  18
TORSDOF 8
ENDMDL
MODEL 8
REMARK VINA RESULT:      -7.5      1.376      2.897
REMARK  Name = 
REMARK  12 active torsions:
REMARK  status: ('A' for Active; 'I' for Inactive)
REMARK    1  A    between atoms: C_1  and  C_2
REMARK    2  A    between atoms: C_2  and  C_3
REMARK    3  A    between atoms: C_2  and  C_4
REMARK    4  A    between atoms: C_4  and  C_5
REMARK    5  A    between atoms: C_5  and  C_6
REMARK    6  A    between atoms: C_6  and  C_7
REMARK    7  A    between atoms: C_7  and  O_8
REMARK    8  A    between atoms: N_11  and  C_12
REMARK    9  A    between atoms: C_12  and  C_13
REMARK   10  A    between atoms: C_12  and  C_14
REMARK   11  A    between atoms: C_17  and  C_18
REMARK   12  A    between atoms: N_21  and  C_22
REMARK                            x       y       z     vdW  Elec       q    Type
REMARK                         _______ _______ _______ _____ _____    ______ ____
ROOT
ATOM      1  C   UNL     1       6.395   5.575  17.286  0.00  0.00    +0.000 C 
ATOM      2  C   UNL     1       6.161   5.493  15.773  0.00  0.00    +0.000 C 
ENDROOT
BRANCH   1   6
ATOM      3  C   UNL     1       2.698   4.554  19.216  0.00  0.00    +0.000 C 
ATOM      4  C   UNL     1       3.994   4.070  19.864  0.00  0.00    +0.000 C 
ATOM      5  C   UNL     1       5.157   4.166  18.905  0.00  0.00    +0.000 C 
ATOM      6  N   UNL     1       5.175   5.374  18.100  0.00  0.00    +0.000 N 
ATOM      7  C   UNL     1       4.045   6.165  17.929  0.00  0.00    +0.000 C 
ATOM      8  O   UNL     1       3.972   7.105  17.146  0.00  0.00    +0.000 OA
ATOM      9  O   UNL     1       2.952   5.882  18.699  0.00  0.00    +0.000 OA
BRANCH   3  11
ATOM     10  C   UNL     1       1.670   3.660  21.426  0.00  0.00    +0.000 C 
ATOM     11  C   UNL     1       1.552   4.680  20.285  0.00  0.00    +0.000 C 
ATOM     12  C   UNL     1       1.422   6.086  20.895  0.00  0.00    +0.000 C 
ENDBRANCH   3  11
BRANCH   3  13
ATOM     13  C   UNL     1       2.258   3.663  18.008  0.00  0.00    +0.000 C 
BRANCH  13  14
ATOM     14  C   UNL     1       2.309   2.144  18.275  0.00  0.00    +0.000 C 
BRANCH  14  15
ATOM     15  C   UNL     1       3.524   1.483  17.628  0.00  0.00    +0.000 C 
BRANCH  15  16
ATOM     16  O   UNL     1       4.234   0.696  18.573  0.00  0.00    +0.000 OA
ATOM     17  H   UNL     1       3.592   0.093  18.989  0.00  0.00    +0.000 HD
ENDBRANCH  15  16
ENDBRANCH  14  15
ENDBRANCH  13  14
ENDBRANCH   3  13
ENDBRANCH   1   6
BRANCH   1  18
ATOM     18  C   UNL     1       7.243   6.787  17.671  0.00  0.00    +0.000 A 
ATOM     19  C   UNL     1       7.088   8.002  16.975  0.00  0.00    +0.000 A 
ATOM     20  C   UNL     1       7.747   9.167  17.394  0.00  0.00    +0.000 A 
ATOM     21  C   UNL     1       8.578   9.140  18.517  0.00  0.00    +0.000 A 
ATOM     22  C   UNL     1       8.772   7.931  19.188  0.00  0.00    +0.000 A 
ATOM     23  C   UNL     1       8.107   6.774  18.773  0.00  0.00    +0.000 A 
BRANCH  21  24
ATOM     24  C   UNL     1       9.213  10.367  19.023  0.00  0.00    +0.000 A 
ATOM     25  C   UNL     1       9.366  10.655  20.435  0.00  0.00    +0.000 A 
ATOM     26  C   UNL     1       9.901  11.813  20.839  0.00  0.00    +0.000 A 
ATOM     27  N   UNL     1      10.325  12.759  19.926  0.00  0.00    +0.000 N 
ATOM     28  C   UNL     1      10.877  14.021  20.384  0.00  0.00    +0.000 C 
ATOM     29  C   UNL     1      10.232  12.560  18.549  0.00  0.00    +0.000 A 
ATOM     30  O   UNL     1      10.602  13.369  17.701  0.00  0.00    +0.000 OA
ATOM     31  C   UNL     1       9.627  11.272  18.117  0.00  0.00    +0.000 A 
ENDBRANCH  21  24
ENDBRANCH   1  18
TORSDOF 8
ENDMDL
MODEL 9
REMARK VINA RESULT:      -7.5      5.300      8.830
REMARK  Name = 
REMARK  12 active torsions:
REMARK  status: ('A' for Active; 'I' for Inactive)
REMARK    1  A    between atoms: C_1  and  C_2
REMARK    2  A    between atoms: C_2  and  C_3
REMARK    3  A    between atoms: C_2  and  C_4
REMARK    4  A    between atoms: C_4  and  C_5
REMARK    5  A    between atoms: C_5  and  C_6
REMARK    6  A    between atoms: C_6  and  C_7
REMARK    7  A    between atoms: C_7  and  O_8
REMARK    8  A    between atoms: N_11  and  C_12
REMARK    9  A    between atoms: C_12  and  C_13
REMARK   10  A    between atoms: C_12  and  C_14
REMARK   11  A    between atoms: C_17  and  C_18
REMARK   12  A    between atoms: N_21  and  C_22
REMARK                            x       y       z     vdW  Elec       q    Type
REMARK                         _______ _______ _______ _____ _____    ______ ____
ROOT
ATOM      1  C   UNL     1      -0.098  10.783  20.124  0.00  0.00    +0.000 C 
ATOM      2  C   UNL     1      -0.187  10.704  21.653  0.00  0.00    +0.000 C 
ENDROOT
BRANCH   1   6
ATOM      3  C   UNL     1      -3.573  10.927  17.607  0.00  0.00    +0.000 C 
ATOM      4  C   UNL     1      -3.261   9.608  18.311  0.00  0.00    +0.000 C 
ATOM      5  C   UNL     1      -1.846   9.587  18.837  0.00  0.00    +0.000 C 
ATOM      6  N   UNL     1      -1.411  10.833  19.442  0.00  0.00    +0.000 N 
ATOM      7  C   UNL     1      -2.065  12.037  19.207  0.00  0.00    +0.000 C 
ATOM      8  O   UNL     1      -1.652  13.131  19.574  0.00  0.00    +0.000 OA
ATOM      9  O   UNL     1      -3.256  11.989  18.538  0.00  0.00    +0.000 OA
BRANCH   3  11
ATOM     10  C   UNL     1      -6.010  10.692  18.473  0.00  0.00    +0.000 C 
ATOM     11  C   UNL     1      -5.107  11.036  17.280  0.00  0.00    +0.000 C 
ATOM     12  C   UNL     1      -5.529  12.407  16.726  0.00  0.00    +0.000 C 
ENDBRANCH   3  11
BRANCH   3  13
ATOM     13  C   UNL     1      -2.699  11.152  16.330  0.00  0.00    +0.000 C 
BRANCH  13  14
ATOM     14  C   UNL     1      -2.675   9.964  15.347  0.00  0.00    +0.000 C 
BRANCH  14  15
ATOM     15  C   UNL     1      -3.366  10.292  14.025  0.00  0.00    +0.000 C 
BRANCH  15  16
ATOM     16  O   UNL     1      -4.683   9.763  13.999  0.00  0.00    +0.000 OA
ATOM     17  H   UNL     1      -5.137  10.072  14.803  0.00  0.00    +0.000 HD
ENDBRANCH  15  16
ENDBRANCH  14  15
ENDBRANCH  13  14
ENDBRANCH   3  13
ENDBRANCH   1   6
BRANCH   1  18
ATOM     18  C   UNL     1       0.895   9.772  19.554  0.00  0.00    +0.000 A 
ATOM     19  C   UNL     1       1.238   8.627  20.299  0.00  0.00    +0.000 A 
ATOM     20  C   UNL     1       2.035   7.613  19.747  0.00  0.00    +0.000 A 
ATOM     21  C   UNL     1       2.507   7.724  18.437  0.00  0.00    +0.000 A 
ATOM     22  C   UNL     1       2.208   8.874  17.704  0.00  0.00    +0.000 A 
ATOM     23  C   UNL     1       1.407   9.879  18.254  0.00  0.00    +0.000 A 
BRANCH  21  24
ATOM     24  C   UNL     1       3.273   6.637  17.810  0.00  0.00    +0.000 A 
ATOM     25  C   UNL     1       2.908   5.239  17.929  0.00  0.00    +0.000 A 
ATOM     26  C   UNL     1       3.674   4.287  17.384  0.00  0.00    +0.000 A 
ATOM     27  N   UNL     1       4.824   4.608  16.690  0.00  0.00    +0.000 N 
ATOM     28  C   UNL     1       5.657   3.559  16.129  0.00  0.00    +0.000 C 
ATOM     29  C   UNL     1       5.243   5.926  16.511  0.00  0.00    +0.000 A 
ATOM     30  O   UNL     1       6.254   6.259  15.896  0.00  0.00    +0.000 OA
ATOM     31  C   UNL     1       4.386   6.971  17.131  0.00  0.00    +0.000 A 
ENDBRANCH  21  24
ENDBRANCH   1  18
TORSDOF 8
ENDMDL
