MODEL 1
REMARK VINA RESULT:      -7.6      0.000      0.000
REMARK  Name = 
REMARK  5 active torsions:
REMARK  status: ('A' for Active; 'I' for Inactive)
REMARK    1  A    between atoms: C_1  and  C_2
REMARK    2  A    between atoms: C_7  and  C_8
REMARK    3  A    between atoms: C_9  and  C_10
REMARK    4  A    between atoms: C_10  and  C_11
REMARK    5  A    between atoms: C_23  and  O_24
REMARK                            x       y       z     vdW  Elec       q    Type
REMARK                         _______ _______ _______ _____ _____    ______ ____
ROOT
ATOM      1  C   UNL     1       2.170   7.007  19.625  0.00  0.00    +0.000 C 
ATOM      2  O   UNL     1       2.433   6.976  18.421  0.00  0.00    +0.000 OA
ATOM      3  N   UNL     1       1.624   8.146  20.206  0.00  0.00    +0.000 N 
ATOM      4  C   UNL     1       1.224   9.245  19.333  0.00  0.00    +0.000 C 
ATOM      5  C   UNL     1      -0.024   9.925  19.891  0.00  0.00    +0.000 C 
ATOM      6  C   UNL     1       0.197  10.421  21.338  0.00  0.00    +0.000 C 
ATOM      7  C   UNL     1       0.707   9.247  22.200  0.00  0.00    +0.000 C 
ATOM      8  C   UNL     1       1.910   8.561  21.574  0.00  0.00    +0.000 C 
ATOM      9  O   UNL     1       1.216  11.444  21.406  0.00  0.00    +0.000 OA
ATOM     10  C   UNL     1       0.903  12.657  20.719  0.00  0.00    +0.000 C 
ATOM     11  C   UNL     1      -0.389  13.283  21.226  0.00  0.00    +0.000 C 
ATOM     12  C   UNL     1      -1.537  12.277  21.268  0.00  0.00    +0.000 C 
ATOM     13  C   UNL     1      -1.108  10.984  21.956  0.00  0.00    +0.000 C 
ENDROOT
BRANCH  13  14
ATOM     14  O   UNL     1      -0.915  11.271  23.348  0.00  0.00    +0.000 OA
ATOM     15  H   UNL     1      -0.896  12.244  23.433  0.00  0.00    +0.000 HD
ENDBRANCH  13  14
BRANCH   1  16
ATOM     16  C   UNL     1       2.422   5.769  20.492  0.00  0.00    +0.000 C 
BRANCH  16  25
ATOM     17  C   UNL     1       0.518   3.388  20.083  0.00  0.00    +0.000 C 
ATOM     18  C   UNL     1       1.943   3.403  19.620  0.00  0.00    +0.000 A 
ATOM     19  N   UNL     1       2.334   2.225  19.087  0.00  0.00    +0.000 NA
ATOM     20  C   UNL     1       3.600   2.101  18.700  0.00  0.00    +0.000 A 
ATOM     21  N   UNL     1       3.996   0.881  18.210  0.00  0.00    +0.000 N 
ATOM     22  N   UNL     1       4.493   3.082  18.749  0.00  0.00    +0.000 NA
ATOM     23  C   UNL     1       4.101   4.263  19.289  0.00  0.00    +0.000 A 
ATOM     24  C   UNL     1       5.205   5.275  19.386  0.00  0.00    +0.000 C 
ATOM     25  C   UNL     1       2.807   4.497  19.761  0.00  0.00    +0.000 A 
ATOM     26  H   UNL     1       3.191   0.372  17.875  0.00  0.00    +0.000 HD
ATOM     27  H   UNL     1       4.776   1.001  17.578  0.00  0.00    +0.000 HD
ENDBRANCH  16  25
ENDBRANCH   1  16
TORSDOF 3
ENDMDL
MODEL 2
REMARK VINA RESULT:      -7.6      1.383      1.511
REMARK  Name = 
REMARK  5 active torsions:
REMARK  status: ('A' for Active; 'I' for Inactive)
REMARK    1  A    between atoms: C_1  and  C_2
REMARK    2  A    between atoms: C_7  and  C_8
REMARK    3  A    between atoms: C_9  and  C_10
REMARK    4  A    between atoms: C_10  and  C_11
REMARK    5  A    between atoms: C_23  and  O_24
REMARK                            x       y       z     vdW  Elec       q    Type
REMARK                         _______ _______ _______ _____ _____    ______ ____
ROOT
ATOM      1  C   UNL     1       2.608   7.007  18.821  0.00  0.00    +0.000 C 
ATOM      2  O   UNL     1       3.204   6.822  17.758  0.00  0.00    +0.000 OA
ATOM      3  N   UNL     1       1.893   8.178  19.043  0.00  0.00    +0.000 N 
ATOM      4  C   UNL     1       1.735   9.114  17.933  0.00  0.00    +0.000 C 
ATOM      5  C   UNL     1       0.366   9.784  18.009  0.00  0.00    +0.000 C 
ATOM      6  C   UNL     1       0.153  10.495  19.365  0.00  0.00    +0.000 C 
ATOM      7  C   UNL     1       0.422   9.490  20.505  0.00  0.00    +0.000 C 
ATOM      8  C   UNL     1       1.768   8.802  20.354  0.00  0.00    +0.000 C 
ATOM      9  O   UNL     1       1.088  11.581  19.554  0.00  0.00    +0.000 OA
ATOM     10  C   UNL     1       0.957  12.661  18.628  0.00  0.00    +0.000 C 
ATOM     11  C   UNL     1      -0.440  13.267  18.652  0.00  0.00    +0.000 C 
ATOM     12  C   UNL     1      -1.530  12.205  18.527  0.00  0.00    +0.000 C 
ATOM     13  C   UNL     1      -1.286  11.053  19.499  0.00  0.00    +0.000 C 
ENDROOT
BRANCH  13  14
ATOM     14  O   UNL     1      -1.505  11.548  20.828  0.00  0.00    +0.000 OA
ATOM     15  H   UNL     1      -2.060  12.346  20.742  0.00  0.00    +0.000 HD
ENDBRANCH  13  14
BRANCH   1  16
ATOM     16  C   UNL     1       2.628   5.924  19.904  0.00  0.00    +0.000 C 
BRANCH  16  25
ATOM     17  C   UNL     1       0.723   3.531  19.585  0.00  0.00    +0.000 C 
ATOM     18  C   UNL     1       2.204   3.449  19.372  0.00  0.00    +0.000 A 
ATOM     19  N   UNL     1       2.628   2.192  19.116  0.00  0.00    +0.000 NA
ATOM     20  C   UNL     1       3.934   1.988  18.974  0.00  0.00    +0.000 A 
ATOM     21  N   UNL     1       4.356   0.698  18.768  0.00  0.00    +0.000 N 
ATOM     22  N   UNL     1       4.846   2.953  19.007  0.00  0.00    +0.000 NA
ATOM     23  C   UNL     1       4.420   4.214  19.269  0.00  0.00    +0.000 A 
ATOM     24  C   UNL     1       5.533   5.214  19.380  0.00  0.00    +0.000 C 
ATOM     25  C   UNL     1       3.076   4.541  19.472  0.00  0.00    +0.000 A 
ATOM     26  H   UNL     1       3.596   0.149  18.392  0.00  0.00    +0.000 HD
ATOM     27  H   UNL     1       5.232   0.698  18.265  0.00  0.00    +0.000 HD
ENDBRANCH  16  25
ENDBRANCH   1  16
TORSDOF 3
ENDMDL
MODEL 3
REMARK VINA RESULT:      -7.6      1.375      2.313
REMARK  Name = 
REMARK  5 active torsions:
REMARK  status: ('A' for Active; 'I' for Inactive)
REMARK    1  A    between atoms: C_1  and  C_2
REMARK    2  A    between atoms: C_7  and  C_8
REMARK    3  A    between atoms: C_9  and  C_10
REMARK    4  A    between atoms: C_10  and  C_11
REMARK    5  A    between atoms: C_23  and  O_24
REMARK                            x       y       z     vdW  Elec       q    Type
REMARK                         _______ _______ _______ _____ _____    ______ ____
ROOT
ATOM      1  C   UNL     1       2.552   6.949  18.957  0.00  0.00    +0.000 C 
ATOM      2  O   UNL     1       3.138   6.705  17.901  0.00  0.00    +0.000 OA
ATOM      3  N   UNL     1       1.857   8.141  19.128  0.00  0.00    +0.000 N 
ATOM      4  C   UNL     1       1.707   9.027  17.977  0.00  0.00    +0.000 C 
ATOM      5  C   UNL     1       0.349   9.721  18.029  0.00  0.00    +0.000 C 
ATOM      6  C   UNL     1       0.157  10.497  19.351  0.00  0.00    +0.000 C 
ATOM      7  C   UNL     1       0.415   9.543  20.536  0.00  0.00    +0.000 C 
ATOM      8  C   UNL     1       1.749   8.826  20.410  0.00  0.00    +0.000 C 
ATOM      9  O   UNL     1       1.109  11.576  19.486  0.00  0.00    +0.000 OA
ATOM     10  C   UNL     1       0.990  12.613  18.511  0.00  0.00    +0.000 C 
ATOM     11  C   UNL     1      -0.397  13.243  18.514  0.00  0.00    +0.000 C 
ATOM     12  C   UNL     1      -1.504  12.194  18.444  0.00  0.00    +0.000 C 
ATOM     13  C   UNL     1      -1.273  11.085  19.467  0.00  0.00    +0.000 C 
ENDROOT
BRANCH  13  14
ATOM     14  O   UNL     1      -1.476  11.644  20.773  0.00  0.00    +0.000 OA
ATOM     15  H   UNL     1      -2.416  11.502  20.995  0.00  0.00    +0.000 HD
ENDBRANCH  13  14
BRANCH   1  16
ATOM     16  C   UNL     1       2.561   5.917  20.090  0.00  0.00    +0.000 C 
BRANCH  16  25
ATOM     17  C   UNL     1       5.450   5.126  19.389  0.00  0.00    +0.000 C 
ATOM     18  C   UNL     1       4.296   4.171  19.361  0.00  0.00    +0.000 A 
ATOM     19  N   UNL     1       4.639   2.946  18.905  0.00  0.00    +0.000 NA
ATOM     20  C   UNL     1       3.681   2.034  18.776  0.00  0.00    +0.000 A 
ATOM     21  N   UNL     1       4.035   0.811  18.260  0.00  0.00    +0.000 N 
ATOM     22  N   UNL     1       2.414   2.230  19.124  0.00  0.00    +0.000 NA
ATOM     23  C   UNL     1       2.069   3.461  19.576  0.00  0.00    +0.000 A 
ATOM     24  C   UNL     1       0.602   3.610  19.852  0.00  0.00    +0.000 C 
ATOM     25  C   UNL     1       2.984   4.508  19.720  0.00  0.00    +0.000 A 
ATOM     26  H   UNL     1       5.024   0.660  18.397  0.00  0.00    +0.000 HD
ATOM     27  H   UNL     1       3.397   0.101  18.592  0.00  0.00    +0.000 HD
ENDBRANCH  16  25
ENDBRANCH   1  16
TORSDOF 3
ENDMDL
MODEL 4
REMARK VINA RESULT:      -7.5      1.816      2.490
REMARK  Name = 
REMARK  5 active torsions:
REMARK  status: ('A' for Active; 'I' for Inactive)
REMARK    1  A    between atoms: C_1  and  C_2
REMARK    2  A    between atoms: C_7  and  C_8
REMARK    3  A    between atoms: C_9  and  C_10
REMARK    4  A    between atoms: C_10  and  C_11
REMARK    5  A    between atoms: C_23  and  O_24
REMARK                            x       y       z     vdW  Elec       q    Type
REMARK                         _______ _______ _______ _____ _____    ______ ____
ROOT
ATOM      1  C   UNL     1       2.385   6.969  19.435  0.00  0.00    +0.000 C 
ATOM      2  O   UNL     1       2.083   6.253  20.392  0.00  0.00    +0.000 OA
ATOM      3  N   UNL     1       1.838   8.238  19.293  0.00  0.00    +0.000 N 
ATOM      4  C   UNL     1       1.018   8.765  20.382  0.00  0.00    +0.000 C 
ATOM      5  C   UNL     1       1.228  10.271  20.507  0.00  0.00    +0.000 C 
ATOM      6  C   UNL     1       0.920  11.002  19.181  0.00  0.00    +0.000 C 
ATOM      7  C   UNL     1       1.738  10.351  18.046  0.00  0.00    +0.000 C 
ATOM      8  C   UNL     1       1.548   8.844  17.999  0.00  0.00    +0.000 C 
ATOM      9  O   UNL     1      -0.469  10.870  18.804  0.00  0.00    +0.000 OA
ATOM     10  C   UNL     1      -1.401  11.476  19.702  0.00  0.00    +0.000 C 
ATOM     11  C   UNL     1      -1.130  12.964  19.886  0.00  0.00    +0.000 C 
ATOM     12  C   UNL     1       0.333  13.244  20.223  0.00  0.00    +0.000 C 
ATOM     13  C   UNL     1       1.267  12.511  19.264  0.00  0.00    +0.000 C 
ENDROOT
BRANCH  13  14
ATOM     14  O   UNL     1       1.137  13.122  17.973  0.00  0.00    +0.000 OA
ATOM     15  H   UNL     1       1.054  12.395  17.327  0.00  0.00    +0.000 HD
ENDBRANCH  13  14
BRANCH   1  16
ATOM     16  C   UNL     1       3.399   6.469  18.400  0.00  0.00    +0.000 C 
BRANCH  16  25
ATOM     17  C   UNL     1       1.339   4.367  17.505  0.00  0.00    +0.000 C 
ATOM     18  C   UNL     1       2.708   4.027  18.013  0.00  0.00    +0.000 A 
ATOM     19  N   UNL     1       2.910   2.696  18.125  0.00  0.00    +0.000 NA
ATOM     20  C   UNL     1       4.068   2.278  18.627  0.00  0.00    +0.000 A 
ATOM     21  N   UNL     1       4.239   0.925  18.786  0.00  0.00    +0.000 N 
ATOM     22  N   UNL     1       5.065   3.086  18.971  0.00  0.00    +0.000 NA
ATOM     23  C   UNL     1       4.859   4.422  18.863  0.00  0.00    +0.000 A 
ATOM     24  C   UNL     1       6.006   5.249  19.364  0.00  0.00    +0.000 C 
ATOM     25  C   UNL     1       3.669   4.977  18.382  0.00  0.00    +0.000 A 
ATOM     26  H   UNL     1       3.615   0.430  18.165  0.00  0.00    +0.000 HD
ATOM     27  H   UNL     1       5.222   0.696  18.750  0.00  0.00    +0.000 HD
ENDBRANCH  16  25
ENDBRANCH   1  16
TORSDOF 3
ENDMDL
MODEL 5
REMARK VINA RESULT:      -7.4      1.854      3.031
REMARK  Name = 
REMARK  5 active torsions:
REMARK  status: ('A' for Active; 'I' for Inactive)
REMARK    1  A    between atoms: C_1  and  C_2
REMARK    2  A    between atoms: C_7  and  C_8
REMARK    3  A    between atoms: C_9  and  C_10
REMARK    4  A    between atoms: C_10  and  C_11
REMARK    5  A    between atoms: C_23  and  O_24
REMARK                            x       y       z     vdW  Elec       q    Type
REMARK                         _______ _______ _______ _____ _____    ______ ____
ROOT
ATOM      1  C   UNL     1       2.249   7.027  19.483  0.00  0.00    +0.000 C 
ATOM      2  O   UNL     1       1.862   6.380  20.458  0.00  0.00    +0.000 OA
ATOM      3  N   UNL     1       1.814   8.330  19.273  0.00  0.00    +0.000 N 
ATOM      4  C   UNL     1       1.012   8.969  20.313  0.00  0.00    +0.000 C 
ATOM      5  C   UNL     1       1.343  10.457  20.385  0.00  0.00    +0.000 C 
ATOM      6  C   UNL     1       1.134  11.153  19.021  0.00  0.00    +0.000 C 
ATOM      7  C   UNL     1       1.926  10.388  17.940  0.00  0.00    +0.000 C 
ATOM      8  C   UNL     1       1.612   8.902  17.947  0.00  0.00    +0.000 C 
ATOM      9  O   UNL     1      -0.250  11.120  18.607  0.00  0.00    +0.000 OA
ATOM     10  C   UNL     1      -1.152  11.839  19.450  0.00  0.00    +0.000 C 
ATOM     11  C   UNL     1      -0.763  13.306  19.582  0.00  0.00    +0.000 C 
ATOM     12  C   UNL     1       0.708  13.479  19.953  0.00  0.00    +0.000 C 
ATOM     13  C   UNL     1       1.604  12.630  19.054  0.00  0.00    +0.000 C 
ENDROOT
BRANCH  13  14
ATOM     14  O   UNL     1       1.562  13.194  17.736  0.00  0.00    +0.000 OA
ATOM     15  H   UNL     1       1.900  14.107  17.811  0.00  0.00    +0.000 HD
ENDBRANCH  13  14
BRANCH   1  16
ATOM     16  C   UNL     1       3.245   6.401  18.502  0.00  0.00    +0.000 C 
BRANCH  16  25
ATOM     17  C   UNL     1       5.864   5.147  19.515  0.00  0.00    +0.000 C 
ATOM     18  C   UNL     1       4.686   4.348  19.049  0.00  0.00    +0.000 A 
ATOM     19  N   UNL     1       4.927   3.019  19.031  0.00  0.00    +0.000 NA
ATOM     20  C   UNL     1       3.972   2.215  18.573  0.00  0.00    +0.000 A 
ATOM     21  N   UNL     1       4.251   0.872  18.509  0.00  0.00    +0.000 N 
ATOM     22  N   UNL     1       2.771   2.630  18.185  0.00  0.00    +0.000 NA
ATOM     23  C   UNL     1       2.532   3.965  18.199  0.00  0.00    +0.000 A 
ATOM     24  C   UNL     1       1.185   4.339  17.656  0.00  0.00    +0.000 C 
ATOM     25  C   UNL     1       3.472   4.907  18.626  0.00  0.00    +0.000 A 
ATOM     26  H   UNL     1       4.994   0.650  19.156  0.00  0.00    +0.000 HD
ATOM     27  H   UNL     1       3.394   0.340  18.573  0.00  0.00    +0.000 HD
ENDBRANCH  16  25
ENDBRANCH   1  16
TORSDOF 3
ENDMDL
MODEL 6
REMARK VINA RESULT:      -7.0      2.679      8.092
REMARK  Name = 
REMARK  5 active torsions:
REMARK  status: ('A' for Active; 'I' for Inactive)
REMARK    1  A    between atoms: C_1  and  C_2
REMARK    2  A    between atoms: C_7  and  C_8
REMARK    3  A    between atoms: C_9  and  C_10
REMARK    4  A    between atoms: C_10  and  C_11
REMARK    5  A    between atoms: C_23  and  O_24
REMARK                            x       y       z     vdW  Elec       q    Type
REMARK                         _______ _______ _______ _____ _____    ______ ____
ROOT
ATOM      1  C   UNL     1       1.285   7.886  20.968  0.00  0.00    +0.000 C 
ATOM      2  O   UNL     1       0.614   7.712  21.987  0.00  0.00    +0.000 OA
ATOM      3  N   UNL     1       1.845   6.810  20.291  0.00  0.00    +0.000 N 
ATOM      4  C   UNL     1       1.493   5.460  20.723  0.00  0.00    +0.000 C 
ATOM      5  C   UNL     1       1.422   4.530  19.515  0.00  0.00    +0.000 C 
ATOM      6  C   UNL     1       2.747   4.527  18.719  0.00  0.00    +0.000 C 
ATOM      7  C   UNL     1       3.124   5.981  18.366  0.00  0.00    +0.000 C 
ATOM      8  C   UNL     1       3.120   6.884  19.588  0.00  0.00    +0.000 C 
ATOM      9  O   UNL     1       3.844   4.004  19.503  0.00  0.00    +0.000 OA
ATOM     10  C   UNL     1       3.719   2.631  19.879  0.00  0.00    +0.000 C 
ATOM     11  C   UNL     1       3.563   1.720  18.669  0.00  0.00    +0.000 C 
ATOM     12  C   UNL     1       2.471   2.207  17.719  0.00  0.00    +0.000 C 
ATOM     13  C   UNL     1       2.631   3.695  17.417  0.00  0.00    +0.000 C 
ENDROOT
BRANCH  13  14
ATOM     14  O   UNL     1       3.812   3.855  16.618  0.00  0.00    +0.000 OA
ATOM     15  H   UNL     1       4.151   4.753  16.797  0.00  0.00    +0.000 HD
ENDBRANCH  13  14
BRANCH   1  16
ATOM     16  C   UNL     1       1.483   9.303  20.421  0.00  0.00    +0.000 C 
BRANCH  16  25
ATOM     17  C   UNL     1       0.914   9.005  17.413  0.00  0.00    +0.000 C 
ATOM     18  C   UNL     1       0.071   9.824  18.342  0.00  0.00    +0.000 A 
ATOM     19  N   UNL     1      -0.913  10.495  17.703  0.00  0.00    +0.000 NA
ATOM     20  C   UNL     1      -1.686  11.306  18.420  0.00  0.00    +0.000 A 
ATOM     21  N   UNL     1      -2.646  12.023  17.749  0.00  0.00    +0.000 N 
ATOM     22  N   UNL     1      -1.591  11.455  19.736  0.00  0.00    +0.000 NA
ATOM     23  C   UNL     1      -0.600  10.785  20.375  0.00  0.00    +0.000 A 
ATOM     24  C   UNL     1      -0.516  11.091  21.842  0.00  0.00    +0.000 C 
ATOM     25  C   UNL     1       0.294   9.933  19.720  0.00  0.00    +0.000 A 
ATOM     26  H   UNL     1      -2.867  11.561  16.879  0.00  0.00    +0.000 HD
ATOM     27  H   UNL     1      -3.409  12.244  18.374  0.00  0.00    +0.000 HD
ENDBRANCH  16  25
ENDBRANCH   1  16
TORSDOF 3
ENDMDL
MODEL 7
REMARK VINA RESULT:      -7.0      0.232      1.768
REMARK  Name = 
REMARK  5 active torsions:
REMARK  status: ('A' for Active; 'I' for Inactive)
REMARK    1  A    between atoms: C_1  and  C_2
REMARK    2  A    between atoms: C_7  and  C_8
REMARK    3  A    between atoms: C_9  and  C_10
REMARK    4  A    between atoms: C_10  and  C_11
REMARK    5  A    between atoms: C_23  and  O_24
REMARK                            x       y       z     vdW  Elec       q    Type
REMARK                         _______ _______ _______ _____ _____    ______ ____
ROOT
ATOM      1  C   UNL     1       2.053   6.946  19.694  0.00  0.00    +0.000 C 
ATOM      2  O   UNL     1       2.277   6.837  18.487  0.00  0.00    +0.000 OA
ATOM      3  N   UNL     1       1.571   8.136  20.226  0.00  0.00    +0.000 N 
ATOM      4  C   UNL     1       1.189   9.202  19.304  0.00  0.00    +0.000 C 
ATOM      5  C   UNL     1      -0.012   9.963  19.859  0.00  0.00    +0.000 C 
ATOM      6  C   UNL     1       0.274  10.529  21.269  0.00  0.00    +0.000 C 
ATOM      7  C   UNL     1       0.763   9.383  22.180  0.00  0.00    +0.000 C 
ATOM      8  C   UNL     1       1.917   8.613  21.559  0.00  0.00    +0.000 C 
ATOM      9  O   UNL     1       1.335  11.510  21.249  0.00  0.00    +0.000 OA
ATOM     10  C   UNL     1       1.050  12.695  20.505  0.00  0.00    +0.000 C 
ATOM     11  C   UNL     1      -0.200  13.402  21.014  0.00  0.00    +0.000 C 
ATOM     12  C   UNL     1      -1.386  12.449  21.145  0.00  0.00    +0.000 C 
ATOM     13  C   UNL     1      -0.988  11.179  21.892  0.00  0.00    +0.000 C 
ENDROOT
BRANCH  13  14
ATOM     14  O   UNL     1      -0.739  11.534  23.259  0.00  0.00    +0.000 OA
ATOM     15  H   UNL     1      -0.083  10.895  23.599  0.00  0.00    +0.000 HD
ENDBRANCH  13  14
BRANCH   1  16
ATOM     16  C   UNL     1       2.281   5.748  20.621  0.00  0.00    +0.000 C 
BRANCH  16  25
ATOM     17  C   UNL     1       5.114   5.507  19.448  0.00  0.00    +0.000 C 
ATOM     18  C   UNL     1       4.102   4.404  19.409  0.00  0.00    +0.000 A 
ATOM     19  N   UNL     1       4.530   3.323  18.722  0.00  0.00    +0.000 NA
ATOM     20  C   UNL     1       3.689   2.305  18.566  0.00  0.00    +0.000 A 
ATOM     21  N   UNL     1       4.119   1.236  17.819  0.00  0.00    +0.000 N 
ATOM     22  N   UNL     1       2.472   2.257  19.095  0.00  0.00    +0.000 NA
ATOM     23  C   UNL     1       2.041   3.345  19.781  0.00  0.00    +0.000 A 
ATOM     24  C   UNL     1       0.623   3.231  20.258  0.00  0.00    +0.000 C 
ATOM     25  C   UNL     1       2.824   4.486  19.978  0.00  0.00    +0.000 A 
ATOM     26  H   UNL     1       5.128   1.216  17.805  0.00  0.00    +0.000 HD
ATOM     27  H   UNL     1       3.634   0.397  18.107  0.00  0.00    +0.000 HD
ENDBRANCH  16  25
ENDBRANCH   1  16
TORSDOF 3
ENDMDL
MODEL 8
REMARK VINA RESULT:      -7.0      3.124      8.363
REMARK  Name = 
REMARK  5 active torsions:
REMARK  status: ('A' for Active; 'I' for Inactive)
REMARK    1  A    between atoms: C_1  and  C_2
REMARK    2  A    between atoms: C_7  and  C_8
REMARK    3  A    between atoms: C_9  and  C_10
REMARK    4  A    between atoms: C_10  and  C_11
REMARK    5  A    between atoms: C_23  and  O_24
REMARK                            x       y       z     vdW  Elec       q    Type
REMARK                         _______ _______ _______ _____ _____    ______ ____
ROOT
ATOM      1  C   UNL     1       1.933   8.602  18.250  0.00  0.00    +0.000 C 
ATOM      2  O   UNL     1       2.027   9.652  17.612  0.00  0.00    +0.000 OA
ATOM      3  N   UNL     1       2.828   7.559  18.042  0.00  0.00    +0.000 N 
ATOM      4  C   UNL     1       3.973   7.793  17.167  0.00  0.00    +0.000 C 
ATOM      5  C   UNL     1       5.187   7.025  17.683  0.00  0.00    +0.000 C 
ATOM      6  C   UNL     1       4.892   5.514  17.815  0.00  0.00    +0.000 C 
ATOM      7  C   UNL     1       3.622   5.323  18.671  0.00  0.00    +0.000 C 
ATOM      8  C   UNL     1       2.458   6.153  18.157  0.00  0.00    +0.000 C 
ATOM      9  O   UNL     1       4.611   4.907  16.533  0.00  0.00    +0.000 OA
ATOM     10  C   UNL     1       5.698   4.919  15.607  0.00  0.00    +0.000 C 
ATOM     11  C   UNL     1       6.933   4.225  16.166  0.00  0.00    +0.000 C 
ATOM     12  C   UNL     1       7.297   4.733  17.559  0.00  0.00    +0.000 C 
ATOM     13  C   UNL     1       6.074   4.755  18.471  0.00  0.00    +0.000 C 
ENDROOT
BRANCH  13  14
ATOM     14  O   UNL     1       5.702   3.395  18.739  0.00  0.00    +0.000 OA
ATOM     15  H   UNL     1       5.568   3.327  19.704  0.00  0.00    +0.000 HD
ENDBRANCH  13  14
BRANCH   1  16
ATOM     16  C   UNL     1       0.834   8.448  19.306  0.00  0.00    +0.000 C 
BRANCH  16  25
ATOM     17  C   UNL     1       1.742   9.211  22.144  0.00  0.00    +0.000 C 
ATOM     18  C   UNL     1       0.785  10.027  21.330  0.00  0.00    +0.000 A 
ATOM     19  N   UNL     1       0.290  11.086  22.007  0.00  0.00    +0.000 NA
ATOM     20  C   UNL     1      -0.619  11.846  21.405  0.00  0.00    +0.000 A 
ATOM     21  N   UNL     1      -1.153  12.886  22.125  0.00  0.00    +0.000 N 
ATOM     22  N   UNL     1      -1.028  11.667  20.154  0.00  0.00    +0.000 NA
ATOM     23  C   UNL     1      -0.534  10.602  19.476  0.00  0.00    +0.000 A 
ATOM     24  C   UNL     1      -1.128  10.432  18.109  0.00  0.00    +0.000 C 
ATOM     25  C   UNL     1       0.398   9.714  20.020  0.00  0.00    +0.000 A 
ATOM     26  H   UNL     1      -0.520  13.144  22.868  0.00  0.00    +0.000 HD
ATOM     27  H   UNL     1      -1.467  13.614  21.497  0.00  0.00    +0.000 HD
ENDBRANCH  16  25
ENDBRANCH   1  16
TORSDOF 3
ENDMDL
MODEL 9
REMARK VINA RESULT:      -6.9      2.717      8.342
REMARK  Name = 
REMARK  5 active torsions:
REMARK  status: ('A' for Active; 'I' for Inactive)
REMARK    1  A    between atoms: C_1  and  C_2
REMARK    2  A    between atoms: C_7  and  C_8
REMARK    3  A    between atoms: C_9  and  C_10
REMARK    4  A    between atoms: C_10  and  C_11
REMARK    5  A    between atoms: C_23  and  O_24
REMARK                            x       y       z     vdW  Elec       q    Type
REMARK                         _______ _______ _______ _____ _____    ______ ____
ROOT
ATOM      1  C   UNL     1       1.417   8.733  20.127  0.00  0.00    +0.000 C 
ATOM      2  O   UNL     1       1.306   8.990  21.328  0.00  0.00    +0.000 OA
ATOM      3  N   UNL     1       1.769   7.458  19.701  0.00  0.00    +0.000 N 
ATOM      4  C   UNL     1       1.852   6.392  20.697  0.00  0.00    +0.000 C 
ATOM      5  C   UNL     1       1.388   5.073  20.086  0.00  0.00    +0.000 C 
ATOM      6  C   UNL     1       2.202   4.713  18.822  0.00  0.00    +0.000 C 
ATOM      7  C   UNL     1       2.160   5.903  17.841  0.00  0.00    +0.000 C 
ATOM      8  C   UNL     1       2.568   7.206  18.508  0.00  0.00    +0.000 C 
ATOM      9  O   UNL     1       3.597   4.489  19.127  0.00  0.00    +0.000 OA
ATOM     10  C   UNL     1       3.859   3.372  19.979  0.00  0.00    +0.000 C 
ATOM     11  C   UNL     1       3.317   2.072  19.399  0.00  0.00    +0.000 C 
ATOM     12  C   UNL     1       1.857   2.199  18.971  0.00  0.00    +0.000 C 
ATOM     13  C   UNL     1       1.641   3.449  18.121  0.00  0.00    +0.000 C 
ENDROOT
BRANCH  13  14
ATOM     14  O   UNL     1       2.302   3.244  16.865  0.00  0.00    +0.000 OA
ATOM     15  H   UNL     1       3.245   3.088  17.067  0.00  0.00    +0.000 HD
ENDBRANCH  13  14
BRANCH   1  16
ATOM     16  C   UNL     1       1.136   9.821  19.086  0.00  0.00    +0.000 C 
BRANCH  16  25
ATOM     17  C   UNL     1      -1.781   9.642  18.129  0.00  0.00    +0.000 C 
ATOM     18  C   UNL     1      -1.247  10.767  18.961  0.00  0.00    +0.000 A 
ATOM     19  N   UNL     1      -2.157  11.743  19.169  0.00  0.00    +0.000 NA
ATOM     20  C   UNL     1      -1.774  12.825  19.842  0.00  0.00    +0.000 A 
ATOM     21  N   UNL     1      -2.694  13.832  19.999  0.00  0.00    +0.000 N 
ATOM     22  N   UNL     1      -0.568  12.981  20.375  0.00  0.00    +0.000 NA
ATOM     23  C   UNL     1       0.346  12.003  20.161  0.00  0.00    +0.000 A 
ATOM     24  C   UNL     1       1.703  12.315  20.722  0.00  0.00    +0.000 C 
ATOM     25  C   UNL     1       0.068  10.839  19.440  0.00  0.00    +0.000 A 
ATOM     26  H   UNL     1      -3.626  13.458  19.902  0.00  0.00    +0.000 HD
ATOM     27  H   UNL     1      -2.482  14.364  20.831  0.00  0.00    +0.000 HD
ENDBRANCH  16  25
ENDBRANCH   1  16
TORSDOF 3
ENDMDL
