MODEL 1
REMARK VINA RESULT:      -7.6      0.000      0.000
REMARK  Name = 
REMARK  11 active torsions:
REMARK  status: ('A' for Active; 'I' for Inactive)
REMARK    1  A    between atoms: C_1  and  O_2
REMARK    2  A    between atoms: O_2  and  C_3
REMARK    3  A    between atoms: C_5  and  C_6
REMARK    4  A    between atoms: C_6  and  N_7
REMARK    5  A    between atoms: N_7  and  C_8
REMARK    6  A    between atoms: C_8  and  C_9
REMARK    7  A    between atoms: C_17  and  O_18
REMARK    8  A    between atoms: O_18  and  C_19
REMARK    9  A    between atoms: C_19  and  C_20
REMARK   10  A    between atoms: C_20  and  O_21
REMARK   11  A    between atoms: C_20  and  C_22
REMARK                            x       y       z     vdW  Elec       q    Type
REMARK                         _______ _______ _______ _____ _____    ______ ____
ROOT
ATOM      1  C   UNL     1       1.902   4.612  19.788  0.00  0.00    +0.000 A 
ATOM      2  C   UNL     1       2.431   3.992  18.647  0.00  0.00    +0.000 A 
ATOM      3  C   UNL     1       3.245   4.693  17.737  0.00  0.00    +0.000 A 
ATOM      4  C   UNL     1       3.507   6.043  17.965  0.00  0.00    +0.000 A 
ATOM      5  C   UNL     1       2.973   6.672  19.087  0.00  0.00    +0.000 A 
ATOM      6  C   UNL     1       2.184   5.970  20.008  0.00  0.00    +0.000 A 
ENDROOT
BRANCH   1   8
ATOM      7  C   UNL     1       1.544   2.901  21.416  0.00  0.00    +0.000 C 
ATOM      8  O   UNL     1       1.031   3.976  20.633  0.00  0.00    +0.000 OA
ENDBRANCH   1   8
BRANCH   3   9
ATOM      9  C   UNL     1       3.827   3.986  16.536  0.00  0.00    +0.000 C 
BRANCH   9  10
ATOM     10  N   UNL     1       5.108   3.382  16.869  0.00  0.00    +0.000 NA
ATOM     11  H   UNL     1       5.101   2.395  16.609  0.00  0.00    +0.000 HD
BRANCH  10  12
ATOM     12  C   UNL     1       6.217   4.043  16.182  0.00  0.00    +0.000 C 
BRANCH  12  13
ATOM     13  C   UNL     1       6.868   5.107  17.041  0.00  0.00    +0.000 A 
ATOM     14  C   UNL     1       6.998   6.416  16.565  0.00  0.00    +0.000 A 
ATOM     15  C   UNL     1       7.584   7.407  17.356  0.00  0.00    +0.000 A 
ATOM     16  C   UNL     1       8.040   7.102  18.634  0.00  0.00    +0.000 A 
ATOM     17  C   UNL     1       7.900   5.809  19.132  0.00  0.00    +0.000 A 
ATOM     18  C   UNL     1       7.305   4.823  18.348  0.00  0.00    +0.000 A 
ENDBRANCH  12  13
ENDBRANCH  10  12
ENDBRANCH   9  10
ENDBRANCH   3   9
BRANCH   6  19
ATOM     19  O   UNL     1       1.748   6.777  21.021  0.00  0.00    +0.000 OA
BRANCH  19  20
ATOM     20  C   UNL     1       1.353   8.123  20.762  0.00  0.00    +0.000 C 
BRANCH  20  21
ATOM     21  C   UNL     1       0.920   8.925  22.010  0.00  0.00    +0.000 C 
BRANCH  21  22
ATOM     22  C   UNL     1       0.063  10.108  21.595  0.00  0.00    +0.000 A 
ATOM     23  C   UNL     1      -0.670  10.810  22.562  0.00  0.00    +0.000 A 
ATOM     24  C   UNL     1      -1.542  11.835  22.190  0.00  0.00    +0.000 A 
ATOM     25  C   UNL     1      -1.686  12.175  20.846  0.00  0.00    +0.000 A 
ATOM     26  C   UNL     1      -0.947  11.505  19.877  0.00  0.00    +0.000 A 
ATOM     27  C   UNL     1      -0.074  10.481  20.247  0.00  0.00    +0.000 A 
ENDBRANCH  21  22
BRANCH  21  28
ATOM     28  O   UNL     1       2.045   9.383  22.762  0.00  0.00    +0.000 OA
ATOM     29  H   UNL     1       2.155  10.333  22.596  0.00  0.00    +0.000 HD
ENDBRANCH  21  28
ENDBRANCH  20  21
ENDBRANCH  19  20
ENDBRANCH   6  19
TORSDOF 10
ENDMDL
MODEL 2
REMARK VINA RESULT:      -7.5      0.739      1.241
REMARK  Name = 
REMARK  11 active torsions:
REMARK  status: ('A' for Active; 'I' for Inactive)
REMARK    1  A    between atoms: C_1  and  O_2
REMARK    2  A    between atoms: O_2  and  C_3
REMARK    3  A    between atoms: C_5  and  C_6
REMARK    4  A    between atoms: C_6  and  N_7
REMARK    5  A    between atoms: N_7  and  C_8
REMARK    6  A    between atoms: C_8  and  C_9
REMARK    7  A    between atoms: C_17  and  O_18
REMARK    8  A    between atoms: O_18  and  C_19
REMARK    9  A    between atoms: C_19  and  C_20
REMARK   10  A    between atoms: C_20  and  O_21
REMARK   11  A    between atoms: C_20  and  C_22
REMARK                            x       y       z     vdW  Elec       q    Type
REMARK                         _______ _______ _______ _____ _____    ______ ____
ROOT
ATOM      1  C   UNL     1       2.554   4.578  20.335  0.00  0.00    +0.000 A 
ATOM      2  C   UNL     1       3.134   3.804  19.320  0.00  0.00    +0.000 A 
ATOM      3  C   UNL     1       3.473   4.359  18.071  0.00  0.00    +0.000 A 
ATOM      4  C   UNL     1       3.199   5.705  17.833  0.00  0.00    +0.000 A 
ATOM      5  C   UNL     1       2.608   6.478  18.829  0.00  0.00    +0.000 A 
ATOM      6  C   UNL     1       2.294   5.935  20.082  0.00  0.00    +0.000 A 
ENDROOT
BRANCH   1   8
ATOM      7  C   UNL     1       1.505   2.756  21.470  0.00  0.00    +0.000 C 
ATOM      8  O   UNL     1       2.130   4.037  21.520  0.00  0.00    +0.000 OA
ENDBRANCH   1   8
BRANCH   3   9
ATOM      9  C   UNL     1       4.129   3.506  17.011  0.00  0.00    +0.000 C 
BRANCH   9  10
ATOM     10  N   UNL     1       4.787   4.340  16.018  0.00  0.00    +0.000 NA
ATOM     11  H   UNL     1       4.553   5.320  16.181  0.00  0.00    +0.000 HD
BRANCH  10  12
ATOM     12  C   UNL     1       6.242   4.190  16.059  0.00  0.00    +0.000 C 
BRANCH  12  13
ATOM     13  C   UNL     1       6.894   5.194  16.986  0.00  0.00    +0.000 A 
ATOM     14  C   UNL     1       6.981   6.541  16.617  0.00  0.00    +0.000 A 
ATOM     15  C   UNL     1       7.569   7.477  17.472  0.00  0.00    +0.000 A 
ATOM     16  C   UNL     1       8.069   7.078  18.707  0.00  0.00    +0.000 A 
ATOM     17  C   UNL     1       7.972   5.745  19.099  0.00  0.00    +0.000 A 
ATOM     18  C   UNL     1       7.376   4.813  18.252  0.00  0.00    +0.000 A 
ENDBRANCH  12  13
ENDBRANCH  10  12
ENDBRANCH   9  10
ENDBRANCH   3   9
BRANCH   6  19
ATOM     19  O   UNL     1       1.706   6.856  20.902  0.00  0.00    +0.000 OA
BRANCH  19  20
ATOM     20  C   UNL     1       1.476   8.190  20.453  0.00  0.00    +0.000 C 
BRANCH  20  21
ATOM     21  C   UNL     1       0.659   9.072  21.425  0.00  0.00    +0.000 C 
BRANCH  21  22
ATOM     22  C   UNL     1      -0.128  10.111  20.646  0.00  0.00    +0.000 A 
ATOM     23  C   UNL     1      -0.198  10.028  19.248  0.00  0.00    +0.000 A 
ATOM     24  C   UNL     1      -0.830  11.028  18.506  0.00  0.00    +0.000 A 
ATOM     25  C   UNL     1      -1.407  12.118  19.154  0.00  0.00    +0.000 A 
ATOM     26  C   UNL     1      -1.369  12.202  20.541  0.00  0.00    +0.000 A 
ATOM     27  C   UNL     1      -0.738  11.204  21.285  0.00  0.00    +0.000 A 
ENDBRANCH  21  22
BRANCH  21  28
ATOM     28  O   UNL     1       1.497   9.719  22.384  0.00  0.00    +0.000 OA
ATOM     29  H   UNL     1       1.352   9.298  23.247  0.00  0.00    +0.000 HD
ENDBRANCH  21  28
ENDBRANCH  20  21
ENDBRANCH  19  20
ENDBRANCH   6  19
TORSDOF 10
ENDMDL
MODEL 3
REMARK VINA RESULT:      -7.4      0.476      1.394
REMARK  Name = 
REMARK  11 active torsions:
REMARK  status: ('A' for Active; 'I' for Inactive)
REMARK    1  A    between atoms: C_1  and  O_2
REMARK    2  A    between atoms: O_2  and  C_3
REMARK    3  A    between atoms: C_5  and  C_6
REMARK    4  A    between atoms: C_6  and  N_7
REMARK    5  A    between atoms: N_7  and  C_8
REMARK    6  A    between atoms: C_8  and  C_9
REMARK    7  A    between atoms: C_17  and  O_18
REMARK    8  A    between atoms: O_18  and  C_19
REMARK    9  A    between atoms: C_19  and  C_20
REMARK   10  A    between atoms: C_20  and  O_21
REMARK   11  A    between atoms: C_20  and  C_22
REMARK                            x       y       z     vdW  Elec       q    Type
REMARK                         _______ _______ _______ _____ _____    ______ ____
ROOT
ATOM      1  C   UNL     1       1.959   4.378  20.263  0.00  0.00    +0.000 A 
ATOM      2  C   UNL     1       2.585   3.705  19.204  0.00  0.00    +0.000 A 
ATOM      3  C   UNL     1       3.193   4.404  18.144  0.00  0.00    +0.000 A 
ATOM      4  C   UNL     1       3.146   5.796  18.137  0.00  0.00    +0.000 A 
ATOM      5  C   UNL     1       2.512   6.473  19.176  0.00  0.00    +0.000 A 
ATOM      6  C   UNL     1       1.929   5.782  20.246  0.00  0.00    +0.000 A 
ENDROOT
BRANCH   1   8
ATOM      7  C   UNL     1       1.799   2.461  21.682  0.00  0.00    +0.000 C 
ATOM      8  O   UNL     1       1.280   3.718  21.254  0.00  0.00    +0.000 OA
ENDBRANCH   1   8
BRANCH   3   9
ATOM      9  C   UNL     1       3.890   3.649  17.036  0.00  0.00    +0.000 C 
BRANCH   9  10
ATOM     10  N   UNL     1       5.308   3.508  17.326  0.00  0.00    +0.000 NA
ATOM     11  H   UNL     1       5.589   2.535  17.202  0.00  0.00    +0.000 HD
BRANCH  10  12
ATOM     12  C   UNL     1       6.128   4.351  16.458  0.00  0.00    +0.000 C 
BRANCH  12  13
ATOM     13  C   UNL     1       6.849   5.436  17.230  0.00  0.00    +0.000 A 
ATOM     14  C   UNL     1       7.415   5.155  18.479  0.00  0.00    +0.000 A 
ATOM     15  C   UNL     1       8.095   6.146  19.192  0.00  0.00    +0.000 A 
ATOM     16  C   UNL     1       8.223   7.425  18.661  0.00  0.00    +0.000 A 
ATOM     17  C   UNL     1       7.685   7.716  17.410  0.00  0.00    +0.000 A 
ATOM     18  C   UNL     1       7.016   6.725  16.693  0.00  0.00    +0.000 A 
ENDBRANCH  12  13
ENDBRANCH  10  12
ENDBRANCH   9  10
ENDBRANCH   3   9
BRANCH   6  19
ATOM     19  O   UNL     1       1.347   6.632  21.143  0.00  0.00    +0.000 OA
BRANCH  19  20
ATOM     20  C   UNL     1       1.435   8.045  20.971  0.00  0.00    +0.000 C 
BRANCH  20  21
ATOM     21  C   UNL     1       1.170   8.874  22.248  0.00  0.00    +0.000 C 
BRANCH  21  22
ATOM     22  C   UNL     1       0.139   9.952  21.963  0.00  0.00    +0.000 A 
ATOM     23  C   UNL     1      -0.007  10.449  20.660  0.00  0.00    +0.000 A 
ATOM     24  C   UNL     1      -0.876  11.509  20.396  0.00  0.00    +0.000 A 
ATOM     25  C   UNL     1      -1.615  12.080  21.430  0.00  0.00    +0.000 A 
ATOM     26  C   UNL     1      -1.501  11.582  22.723  0.00  0.00    +0.000 A 
ATOM     27  C   UNL     1      -0.633  10.521  22.990  0.00  0.00    +0.000 A 
ENDBRANCH  21  22
BRANCH  21  28
ATOM     28  O   UNL     1       2.367   9.471  22.751  0.00  0.00    +0.000 OA
ATOM     29  H   UNL     1       2.276   9.572  23.712  0.00  0.00    +0.000 HD
ENDBRANCH  21  28
ENDBRANCH  20  21
ENDBRANCH  19  20
ENDBRANCH   6  19
TORSDOF 10
ENDMDL
MODEL 4
REMARK VINA RESULT:      -7.4      2.633      7.864
REMARK  Name = 
REMARK  11 active torsions:
REMARK  status: ('A' for Active; 'I' for Inactive)
REMARK    1  A    between atoms: C_1  and  O_2
REMARK    2  A    between atoms: O_2  and  C_3
REMARK    3  A    between atoms: C_5  and  C_6
REMARK    4  A    between atoms: C_6  and  N_7
REMARK    5  A    between atoms: N_7  and  C_8
REMARK    6  A    between atoms: C_8  and  C_9
REMARK    7  A    between atoms: C_17  and  O_18
REMARK    8  A    between atoms: O_18  and  C_19
REMARK    9  A    between atoms: C_19  and  C_20
REMARK   10  A    between atoms: C_20  and  O_21
REMARK   11  A    between atoms: C_20  and  C_22
REMARK                            x       y       z     vdW  Elec       q    Type
REMARK                         _______ _______ _______ _____ _____    ______ ____
ROOT
ATOM      1  C   UNL     1       4.640   6.619  17.716  0.00  0.00    +0.000 A 
ATOM      2  C   UNL     1       3.783   7.679  17.387  0.00  0.00    +0.000 A 
ATOM      3  C   UNL     1       2.617   7.942  18.132  0.00  0.00    +0.000 A 
ATOM      4  C   UNL     1       2.297   7.110  19.203  0.00  0.00    +0.000 A 
ATOM      5  C   UNL     1       3.133   6.045  19.527  0.00  0.00    +0.000 A 
ATOM      6  C   UNL     1       4.307   5.796  18.804  0.00  0.00    +0.000 A 
ENDROOT
BRANCH   1   8
ATOM      7  C   UNL     1       7.011   6.672  17.429  0.00  0.00    +0.000 C 
ATOM      8  O   UNL     1       5.726   6.287  16.948  0.00  0.00    +0.000 OA
ENDBRANCH   1   8
BRANCH   3   9
ATOM      9  C   UNL     1       1.734   9.114  17.773  0.00  0.00    +0.000 C 
BRANCH   9  10
ATOM     10  N   UNL     1       0.745   9.347  18.814  0.00  0.00    +0.000 NA
ATOM     11  H   UNL     1       0.801   8.605  19.513  0.00  0.00    +0.000 HD
BRANCH  10  12
ATOM     12  C   UNL     1       0.944  10.636  19.475  0.00  0.00    +0.000 C 
BRANCH  12  13
ATOM     13  C   UNL     1       0.140  10.752  20.753  0.00  0.00    +0.000 A 
ATOM     14  C   UNL     1       0.325   9.830  21.790  0.00  0.00    +0.000 A 
ATOM     15  C   UNL     1      -0.402   9.939  22.978  0.00  0.00    +0.000 A 
ATOM     16  C   UNL     1      -1.315  10.974  23.146  0.00  0.00    +0.000 A 
ATOM     17  C   UNL     1      -1.496  11.913  22.134  0.00  0.00    +0.000 A 
ATOM     18  C   UNL     1      -0.763  11.812  20.953  0.00  0.00    +0.000 A 
ENDBRANCH  12  13
ENDBRANCH  10  12
ENDBRANCH   9  10
ENDBRANCH   3   9
BRANCH   6  19
ATOM     19  O   UNL     1       4.968   4.696  19.273  0.00  0.00    +0.000 OA
BRANCH  19  20
ATOM     20  C   UNL     1       5.049   3.506  18.491  0.00  0.00    +0.000 C 
BRANCH  20  21
ATOM     21  C   UNL     1       4.471   2.242  19.168  0.00  0.00    +0.000 C 
BRANCH  21  22
ATOM     22  C   UNL     1       3.033   2.490  19.589  0.00  0.00    +0.000 A 
ATOM     23  C   UNL     1       2.008   2.438  18.633  0.00  0.00    +0.000 A 
ATOM     24  C   UNL     1       0.695   2.762  18.979  0.00  0.00    +0.000 A 
ATOM     25  C   UNL     1       0.390   3.135  20.286  0.00  0.00    +0.000 A 
ATOM     26  C   UNL     1       1.390   3.168  21.252  0.00  0.00    +0.000 A 
ATOM     27  C   UNL     1       2.704   2.844  20.909  0.00  0.00    +0.000 A 
ENDBRANCH  21  22
BRANCH  21  28
ATOM     28  O   UNL     1       5.246   1.846  20.301  0.00  0.00    +0.000 OA
ATOM     29  H   UNL     1       4.781   2.136  21.103  0.00  0.00    +0.000 HD
ENDBRANCH  21  28
ENDBRANCH  20  21
ENDBRANCH  19  20
ENDBRANCH   6  19
TORSDOF 10
ENDMDL
MODEL 5
REMARK VINA RESULT:      -7.3      1.711      2.318
REMARK  Name = 
REMARK  11 active torsions:
REMARK  status: ('A' for Active; 'I' for Inactive)
REMARK    1  A    between atoms: C_1  and  O_2
REMARK    2  A    between atoms: O_2  and  C_3
REMARK    3  A    between atoms: C_5  and  C_6
REMARK    4  A    between atoms: C_6  and  N_7
REMARK    5  A    between atoms: N_7  and  C_8
REMARK    6  A    between atoms: C_8  and  C_9
REMARK    7  A    between atoms: C_17  and  O_18
REMARK    8  A    between atoms: O_18  and  C_19
REMARK    9  A    between atoms: C_19  and  C_20
REMARK   10  A    between atoms: C_20  and  O_21
REMARK   11  A    between atoms: C_20  and  C_22
REMARK                            x       y       z     vdW  Elec       q    Type
REMARK                         _______ _______ _______ _____ _____    ______ ____
ROOT
ATOM      1  C   UNL     1       2.354   5.721  19.382  0.00  0.00    +0.000 A 
ATOM      2  C   UNL     1       2.991   4.725  18.627  0.00  0.00    +0.000 A 
ATOM      3  C   UNL     1       3.758   5.040  17.490  0.00  0.00    +0.000 A 
ATOM      4  C   UNL     1       3.863   6.371  17.092  0.00  0.00    +0.000 A 
ATOM      5  C   UNL     1       3.221   7.366  17.825  0.00  0.00    +0.000 A 
ATOM      6  C   UNL     1       2.478   7.059  18.973  0.00  0.00    +0.000 A 
ENDROOT
BRANCH   1   8
ATOM      7  C   UNL     1       0.951   4.125  20.474  0.00  0.00    +0.000 C 
ATOM      8  O   UNL     1       1.526   5.429  20.434  0.00  0.00    +0.000 OA
ENDBRANCH   1   8
BRANCH   3   9
ATOM      9  C   UNL     1       4.460   3.946  16.719  0.00  0.00    +0.000 C 
BRANCH   9  10
ATOM     10  N   UNL     1       5.200   4.504  15.598  0.00  0.00    +0.000 NA
ATOM     11  H   UNL     1       4.961   5.491  15.485  0.00  0.00    +0.000 HD
BRANCH  10  12
ATOM     12  C   UNL     1       6.645   4.387  15.787  0.00  0.00    +0.000 C 
BRANCH  12  13
ATOM     13  C   UNL     1       7.159   5.323  16.860  0.00  0.00    +0.000 A 
ATOM     14  C   UNL     1       7.620   4.813  18.079  0.00  0.00    +0.000 A 
ATOM     15  C   UNL     1       8.110   5.668  19.069  0.00  0.00    +0.000 A 
ATOM     16  C   UNL     1       8.151   7.041  18.849  0.00  0.00    +0.000 A 
ATOM     17  C   UNL     1       7.717   7.564  17.634  0.00  0.00    +0.000 A 
ATOM     18  C   UNL     1       7.239   6.710  16.641  0.00  0.00    +0.000 A 
ENDBRANCH  12  13
ENDBRANCH  10  12
ENDBRANCH   9  10
ENDBRANCH   3   9
BRANCH   6  19
ATOM     19  O   UNL     1       1.918   8.174  19.529  0.00  0.00    +0.000 OA
BRANCH  19  20
ATOM     20  C   UNL     1       1.412   9.223  18.706  0.00  0.00    +0.000 C 
BRANCH  20  21
ATOM     21  C   UNL     1       0.604  10.307  19.456  0.00  0.00    +0.000 C 
BRANCH  21  22
ATOM     22  C   UNL     1      -0.714  10.557  18.745  0.00  0.00    +0.000 A 
ATOM     23  C   UNL     1      -1.629  11.478  19.276  0.00  0.00    +0.000 A 
ATOM     24  C   UNL     1      -2.887  11.648  18.695  0.00  0.00    +0.000 A 
ATOM     25  C   UNL     1      -3.243  10.904  17.572  0.00  0.00    +0.000 A 
ATOM     26  C   UNL     1      -2.338  10.005  17.018  0.00  0.00    +0.000 A 
ATOM     27  C   UNL     1      -1.079   9.834  17.596  0.00  0.00    +0.000 A 
ENDBRANCH  21  22
BRANCH  21  28
ATOM     28  O   UNL     1       1.334  11.530  19.566  0.00  0.00    +0.000 OA
ATOM     29  H   UNL     1       2.269  11.344  19.382  0.00  0.00    +0.000 HD
ENDBRANCH  21  28
ENDBRANCH  20  21
ENDBRANCH  19  20
ENDBRANCH   6  19
TORSDOF 10
ENDMDL
MODEL 6
REMARK VINA RESULT:      -7.2      5.034      7.130
REMARK  Name = 
REMARK  11 active torsions:
REMARK  status: ('A' for Active; 'I' for Inactive)
REMARK    1  A    between atoms: C_1  and  O_2
REMARK    2  A    between atoms: O_2  and  C_3
REMARK    3  A    between atoms: C_5  and  C_6
REMARK    4  A    between atoms: C_6  and  N_7
REMARK    5  A    between atoms: N_7  and  C_8
REMARK    6  A    between atoms: C_8  and  C_9
REMARK    7  A    between atoms: C_17  and  O_18
REMARK    8  A    between atoms: O_18  and  C_19
REMARK    9  A    between atoms: C_19  and  C_20
REMARK   10  A    between atoms: C_20  and  O_21
REMARK   11  A    between atoms: C_20  and  C_22
REMARK                            x       y       z     vdW  Elec       q    Type
REMARK                         _______ _______ _______ _____ _____    ______ ____
ROOT
ATOM      1  C   UNL     1       6.859   4.717  16.320  0.00  0.00    +0.000 A 
ATOM      2  C   UNL     1       7.583   5.817  16.800  0.00  0.00    +0.000 A 
ATOM      3  C   UNL     1       7.367   6.335  18.091  0.00  0.00    +0.000 A 
ATOM      4  C   UNL     1       6.389   5.755  18.897  0.00  0.00    +0.000 A 
ATOM      5  C   UNL     1       5.653   4.673  18.423  0.00  0.00    +0.000 A 
ATOM      6  C   UNL     1       5.884   4.138  17.148  0.00  0.00    +0.000 A 
ENDROOT
BRANCH   1   8
ATOM      7  C   UNL     1       7.207   5.225  14.011  0.00  0.00    +0.000 C 
ATOM      8  O   UNL     1       6.986   4.258  15.035  0.00  0.00    +0.000 OA
ENDBRANCH   1   8
BRANCH   3   9
ATOM      9  C   UNL     1       8.189   7.500  18.591  0.00  0.00    +0.000 C 
BRANCH   9  10
ATOM     10  N   UNL     1       8.322   8.514  17.558  0.00  0.00    +0.000 NA
ATOM     11  H   UNL     1       7.700   8.294  16.778  0.00  0.00    +0.000 HD
BRANCH  10  12
ATOM     12  C   UNL     1       7.997   9.849  18.059  0.00  0.00    +0.000 C 
BRANCH  12  13
ATOM     13  C   UNL     1       9.207  10.553  18.634  0.00  0.00    +0.000 A 
ATOM     14  C   UNL     1      10.213  11.034  17.787  0.00  0.00    +0.000 A 
ATOM     15  C   UNL     1      11.326  11.698  18.308  0.00  0.00    +0.000 A 
ATOM     16  C   UNL     1      11.443  11.896  19.679  0.00  0.00    +0.000 A 
ATOM     17  C   UNL     1      10.442  11.444  20.535  0.00  0.00    +0.000 A 
ATOM     18  C   UNL     1       9.325  10.791  20.016  0.00  0.00    +0.000 A 
ENDBRANCH  12  13
ENDBRANCH  10  12
ENDBRANCH   9  10
ENDBRANCH   3   9
BRANCH   6  19
ATOM     19  O   UNL     1       5.044   3.096  16.875  0.00  0.00    +0.000 OA
BRANCH  19  20
ATOM     20  C   UNL     1       3.643   3.207  17.118  0.00  0.00    +0.000 C 
BRANCH  20  21
ATOM     21  C   UNL     1       3.001   1.978  17.801  0.00  0.00    +0.000 C 
BRANCH  21  22
ATOM     22  C   UNL     1       2.448   2.369  19.161  0.00  0.00    +0.000 A 
ATOM     23  C   UNL     1       1.142   2.868  19.264  0.00  0.00    +0.000 A 
ATOM     24  C   UNL     1       0.650   3.328  20.487  0.00  0.00    +0.000 A 
ATOM     25  C   UNL     1       1.456   3.288  21.622  0.00  0.00    +0.000 A 
ATOM     26  C   UNL     1       2.746   2.773  21.542  0.00  0.00    +0.000 A 
ATOM     27  C   UNL     1       3.239   2.311  20.321  0.00  0.00    +0.000 A 
ENDBRANCH  21  22
BRANCH  21  28
ATOM     28  O   UNL     1       3.935   0.906  17.949  0.00  0.00    +0.000 OA
ATOM     29  H   UNL     1       3.620   0.155  17.422  0.00  0.00    +0.000 HD
ENDBRANCH  21  28
ENDBRANCH  20  21
ENDBRANCH  19  20
ENDBRANCH   6  19
TORSDOF 10
ENDMDL
MODEL 7
REMARK VINA RESULT:      -7.2      4.027      6.944
REMARK  Name = 
REMARK  11 active torsions:
REMARK  status: ('A' for Active; 'I' for Inactive)
REMARK    1  A    between atoms: C_1  and  O_2
REMARK    2  A    between atoms: O_2  and  C_3
REMARK    3  A    between atoms: C_5  and  C_6
REMARK    4  A    between atoms: C_6  and  N_7
REMARK    5  A    between atoms: N_7  and  C_8
REMARK    6  A    between atoms: C_8  and  C_9
REMARK    7  A    between atoms: C_17  and  O_18
REMARK    8  A    between atoms: O_18  and  C_19
REMARK    9  A    between atoms: C_19  and  C_20
REMARK   10  A    between atoms: C_20  and  O_21
REMARK   11  A    between atoms: C_20  and  C_22
REMARK                            x       y       z     vdW  Elec       q    Type
REMARK                         _______ _______ _______ _____ _____    ______ ____
ROOT
ATOM      1  C   UNL     1       5.027   6.268  17.593  0.00  0.00    +0.000 A 
ATOM      2  C   UNL     1       5.918   7.320  17.339  0.00  0.00    +0.000 A 
ATOM      3  C   UNL     1       7.299   7.191  17.581  0.00  0.00    +0.000 A 
ATOM      4  C   UNL     1       7.783   5.996  18.111  0.00  0.00    +0.000 A 
ATOM      5  C   UNL     1       6.904   4.952  18.383  0.00  0.00    +0.000 A 
ATOM      6  C   UNL     1       5.532   5.068  18.119  0.00  0.00    +0.000 A 
ENDROOT
BRANCH   1   8
ATOM      7  C   UNL     1       2.907   6.604  18.643  0.00  0.00    +0.000 C 
ATOM      8  O   UNL     1       3.670   6.406  17.456  0.00  0.00    +0.000 OA
ENDBRANCH   1   8
BRANCH   3   9
ATOM      9  C   UNL     1       8.238   8.331  17.263  0.00  0.00    +0.000 C 
BRANCH   9  10
ATOM     10  N   UNL     1       7.976   9.467  18.132  0.00  0.00    +0.000 NA
ATOM     11  H   UNL     1       7.037   9.390  18.525  0.00  0.00    +0.000 HD
BRANCH  10  12
ATOM     12  C   UNL     1       8.941   9.548  19.228  0.00  0.00    +0.000 C 
BRANCH  12  13
ATOM     13  C   UNL     1       9.797  10.794  19.144  0.00  0.00    +0.000 A 
ATOM     14  C   UNL     1      10.100  11.360  17.901  0.00  0.00    +0.000 A 
ATOM     15  C   UNL     1      10.877  12.517  17.815  0.00  0.00    +0.000 A 
ATOM     16  C   UNL     1      11.354  13.126  18.970  0.00  0.00    +0.000 A 
ATOM     17  C   UNL     1      11.046  12.589  20.217  0.00  0.00    +0.000 A 
ATOM     18  C   UNL     1      10.261  11.440  20.305  0.00  0.00    +0.000 A 
ENDBRANCH  12  13
ENDBRANCH  10  12
ENDBRANCH   9  10
ENDBRANCH   3   9
BRANCH   6  19
ATOM     19  O   UNL     1       4.849   3.940  18.475  0.00  0.00    +0.000 OA
BRANCH  19  20
ATOM     20  C   UNL     1       4.330   3.059  17.481  0.00  0.00    +0.000 C 
BRANCH  20  21
ATOM     21  C   UNL     1       3.478   1.890  18.028  0.00  0.00    +0.000 C 
BRANCH  21  22
ATOM     22  C   UNL     1       2.681   2.350  19.236  0.00  0.00    +0.000 A 
ATOM     23  C   UNL     1       1.431   2.958  19.056  0.00  0.00    +0.000 A 
ATOM     24  C   UNL     1       0.728   3.478  20.144  0.00  0.00    +0.000 A 
ATOM     25  C   UNL     1       1.264   3.390  21.427  0.00  0.00    +0.000 A 
ATOM     26  C   UNL     1       2.492   2.767  21.626  0.00  0.00    +0.000 A 
ATOM     27  C   UNL     1       3.196   2.246  20.540  0.00  0.00    +0.000 A 
ENDBRANCH  21  22
BRANCH  21  28
ATOM     28  O   UNL     1       4.287   0.766  18.381  0.00  0.00    +0.000 OA
ATOM     29  H   UNL     1       4.382   0.202  17.596  0.00  0.00    +0.000 HD
ENDBRANCH  21  28
ENDBRANCH  20  21
ENDBRANCH  19  20
ENDBRANCH   6  19
TORSDOF 10
ENDMDL
MODEL 8
REMARK VINA RESULT:      -7.1      2.587      8.064
REMARK  Name = 
REMARK  11 active torsions:
REMARK  status: ('A' for Active; 'I' for Inactive)
REMARK    1  A    between atoms: C_1  and  O_2
REMARK    2  A    between atoms: O_2  and  C_3
REMARK    3  A    between atoms: C_5  and  C_6
REMARK    4  A    between atoms: C_6  and  N_7
REMARK    5  A    between atoms: N_7  and  C_8
REMARK    6  A    between atoms: C_8  and  C_9
REMARK    7  A    between atoms: C_17  and  O_18
REMARK    8  A    between atoms: O_18  and  C_19
REMARK    9  A    between atoms: C_19  and  C_20
REMARK   10  A    between atoms: C_20  and  O_21
REMARK   11  A    between atoms: C_20  and  C_22
REMARK                            x       y       z     vdW  Elec       q    Type
REMARK                         _______ _______ _______ _____ _____    ______ ____
ROOT
ATOM      1  C   UNL     1       2.742   3.547  18.378  0.00  0.00    +0.000 A 
ATOM      2  C   UNL     1       1.925   4.257  19.269  0.00  0.00    +0.000 A 
ATOM      3  C   UNL     1       2.242   5.567  19.676  0.00  0.00    +0.000 A 
ATOM      4  C   UNL     1       3.411   6.158  19.200  0.00  0.00    +0.000 A 
ATOM      5  C   UNL     1       4.238   5.455  18.328  0.00  0.00    +0.000 A 
ATOM      6  C   UNL     1       3.911   4.160  17.901  0.00  0.00    +0.000 A 
ENDROOT
BRANCH   1   8
ATOM      7  C   UNL     1       3.372   1.252  18.596  0.00  0.00    +0.000 C 
ATOM      8  O   UNL     1       2.503   2.239  18.045  0.00  0.00    +0.000 OA
ENDBRANCH   1   8
BRANCH   3   9
ATOM      9  C   UNL     1       1.322   6.318  20.609  0.00  0.00    +0.000 C 
BRANCH   9  10
ATOM     10  N   UNL     1       1.892   7.609  20.961  0.00  0.00    +0.000 NA
ATOM     11  H   UNL     1       2.891   7.612  20.752  0.00  0.00    +0.000 HD
BRANCH  10  12
ATOM     12  C   UNL     1       1.253   8.704  20.231  0.00  0.00    +0.000 C 
BRANCH  12  13
ATOM     13  C   UNL     1       0.386   9.560  21.129  0.00  0.00    +0.000 A 
ATOM     14  C   UNL     1       0.197   9.210  22.470  0.00  0.00    +0.000 A 
ATOM     15  C   UNL     1      -0.590  10.002  23.310  0.00  0.00    +0.000 A 
ATOM     16  C   UNL     1      -1.191  11.156  22.819  0.00  0.00    +0.000 A 
ATOM     17  C   UNL     1      -0.997  11.531  21.493  0.00  0.00    +0.000 A 
ATOM     18  C   UNL     1      -0.203  10.748  20.657  0.00  0.00    +0.000 A 
ENDBRANCH  12  13
ENDBRANCH  10  12
ENDBRANCH   9  10
ENDBRANCH   3   9
BRANCH   6  19
ATOM     19  O   UNL     1       4.863   3.646  17.066  0.00  0.00    +0.000 OA
BRANCH  19  20
ATOM     20  C   UNL     1       5.189   4.301  15.842  0.00  0.00    +0.000 C 
BRANCH  20  21
ATOM     21  C   UNL     1       6.687   4.639  15.664  0.00  0.00    +0.000 C 
BRANCH  21  22
ATOM     22  C   UNL     1       7.157   5.533  16.798  0.00  0.00    +0.000 A 
ATOM     23  C   UNL     1       7.220   6.921  16.610  0.00  0.00    +0.000 A 
ATOM     24  C   UNL     1       7.743   7.751  17.603  0.00  0.00    +0.000 A 
ATOM     25  C   UNL     1       8.204   7.204  18.798  0.00  0.00    +0.000 A 
ATOM     26  C   UNL     1       8.125   5.831  19.010  0.00  0.00    +0.000 A 
ATOM     27  C   UNL     1       7.601   5.000  18.019  0.00  0.00    +0.000 A 
ENDBRANCH  21  22
BRANCH  21  28
ATOM     28  O   UNL     1       6.941   5.275  14.409  0.00  0.00    +0.000 OA
ATOM     29  H   UNL     1       7.496   6.054  14.571  0.00  0.00    +0.000 HD
ENDBRANCH  21  28
ENDBRANCH  20  21
ENDBRANCH  19  20
ENDBRANCH   6  19
TORSDOF 10
ENDMDL
MODEL 9
REMARK VINA RESULT:      -7.1      4.787      7.523
REMARK  Name = 
REMARK  11 active torsions:
REMARK  status: ('A' for Active; 'I' for Inactive)
REMARK    1  A    between atoms: C_1  and  O_2
REMARK    2  A    between atoms: O_2  and  C_3
REMARK    3  A    between atoms: C_5  and  C_6
REMARK    4  A    between atoms: C_6  and  N_7
REMARK    5  A    between atoms: N_7  and  C_8
REMARK    6  A    between atoms: C_8  and  C_9
REMARK    7  A    between atoms: C_17  and  O_18
REMARK    8  A    between atoms: O_18  and  C_19
REMARK    9  A    between atoms: C_19  and  C_20
REMARK   10  A    between atoms: C_20  and  O_21
REMARK   11  A    between atoms: C_20  and  C_22
REMARK                            x       y       z     vdW  Elec       q    Type
REMARK                         _______ _______ _______ _____ _____    ______ ____
ROOT
ATOM      1  C   UNL     1       6.561   6.545  17.075  0.00  0.00    +0.000 A 
ATOM      2  C   UNL     1       7.064   7.853  17.042  0.00  0.00    +0.000 A 
ATOM      3  C   UNL     1       8.011   8.303  17.981  0.00  0.00    +0.000 A 
ATOM      4  C   UNL     1       8.436   7.432  18.983  0.00  0.00    +0.000 A 
ATOM      5  C   UNL     1       7.931   6.136  19.034  0.00  0.00    +0.000 A 
ATOM      6  C   UNL     1       7.007   5.677  18.085  0.00  0.00    +0.000 A 
ENDROOT
BRANCH   1   8
ATOM      7  C   UNL     1       5.954   5.301  15.127  0.00  0.00    +0.000 C 
ATOM      8  O   UNL     1       5.570   6.117  16.231  0.00  0.00    +0.000 OA
ENDBRANCH   1   8
BRANCH   3   9
ATOM      9  C   UNL     1       8.560   9.709  17.896  0.00  0.00    +0.000 C 
BRANCH   9  10
ATOM     10  N   UNL     1       8.824  10.235  19.225  0.00  0.00    +0.000 NA
ATOM     11  H   UNL     1       8.670   9.505  19.922  0.00  0.00    +0.000 HD
BRANCH  10  12
ATOM     12  C   UNL     1      10.196  10.727  19.353  0.00  0.00    +0.000 C 
BRANCH  12  13
ATOM     13  C   UNL     1      10.412  12.019  18.593  0.00  0.00    +0.000 A 
ATOM     14  C   UNL     1      11.373  12.088  17.578  0.00  0.00    +0.000 A 
ATOM     15  C   UNL     1      11.570  13.272  16.863  0.00  0.00    +0.000 A 
ATOM     16  C   UNL     1      10.803  14.397  17.149  0.00  0.00    +0.000 A 
ATOM     17  C   UNL     1       9.828  14.340  18.141  0.00  0.00    +0.000 A 
ATOM     18  C   UNL     1       9.624  13.156  18.848  0.00  0.00    +0.000 A 
ENDBRANCH  12  13
ENDBRANCH  10  12
ENDBRANCH   9  10
ENDBRANCH   3   9
BRANCH   6  19
ATOM     19  O   UNL     1       6.627   4.388  18.329  0.00  0.00    +0.000 OA
BRANCH  19  20
ATOM     20  C   UNL     1       5.402   4.103  19.001  0.00  0.00    +0.000 C 
BRANCH  20  21
ATOM     21  C   UNL     1       4.243   3.656  18.081  0.00  0.00    +0.000 C 
BRANCH  21  22
ATOM     22  C   UNL     1       2.975   3.471  18.896  0.00  0.00    +0.000 A 
ATOM     23  C   UNL     1       1.940   2.666  18.400  0.00  0.00    +0.000 A 
ATOM     24  C   UNL     1       0.727   2.563  19.084  0.00  0.00    +0.000 A 
ATOM     25  C   UNL     1       0.538   3.259  20.276  0.00  0.00    +0.000 A 
ATOM     26  C   UNL     1       1.564   4.042  20.794  0.00  0.00    +0.000 A 
ATOM     27  C   UNL     1       2.777   4.146  20.113  0.00  0.00    +0.000 A 
ENDBRANCH  21  22
BRANCH  21  28
ATOM     28  O   UNL     1       4.554   2.446  17.388  0.00  0.00    +0.000 OA
ATOM     29  H   UNL     1       3.743   2.121  16.964  0.00  0.00    +0.000 HD
ENDBRANCH  21  28
ENDBRANCH  20  21
ENDBRANCH  19  20
ENDBRANCH   6  19
TORSDOF 10
ENDMDL
