MODEL 1
REMARK VINA RESULT:      -7.4      0.000      0.000
REMARK  Name = 
REMARK  2 active torsions:
REMARK  status: ('A' for Active; 'I' for Inactive)
REMARK    1  A    between atoms: C_2  and  C_3
REMARK    2  A    between atoms: C_4  and  C_5
REMARK                            x       y       z     vdW  Elec       q    Type
REMARK                         _______ _______ _______ _____ _____    ______ ____
ROOT
ATOM      1  C   UNL     1       5.974   4.909  16.897  0.00  0.00    +0.000 C 
ATOM      2  C   UNL     1       4.791   5.413  17.273  0.00  0.00    +0.000 C 
ENDROOT
BRANCH   1   4
ATOM      3  O   UNL     1       7.613   6.619  16.883  0.00  0.00    +0.000 OA
ATOM      4  C   UNL     1       6.998   5.765  16.244  0.00  0.00    +0.000 C 
ATOM      5  N   UNL     1       7.347   5.540  14.942  0.00  0.00    +0.000 N 
ATOM      6  C   UNL     1       6.691   4.756  14.041  0.00  0.00    +0.000 A 
ATOM      7  N   UNL     1       5.499   4.211  14.108  0.00  0.00    +0.000 NA
ATOM      8  N   UNL     1       5.213   3.439  13.004  0.00  0.00    +0.000 NA
ATOM      9  C   UNL     1       6.205   3.448  12.140  0.00  0.00    +0.000 A 
ATOM     10  S   UNL     1       7.542   4.427  12.596  0.00  0.00    +0.000 S 
ATOM     11  H   UNL     1       8.172   6.024  14.627  0.00  0.00    +0.000 HD
ENDBRANCH   1   4
BRANCH   2  12
ATOM     12  C   UNL     1       3.832   4.564  17.983  0.00  0.00    +0.000 A 
ATOM     13  C   UNL     1       3.164   3.531  17.292  0.00  0.00    +0.000 A 
ATOM     14  C   UNL     1       2.261   2.695  17.957  0.00  0.00    +0.000 A 
ATOM     15  C   UNL     1       2.051   2.916  19.301  0.00  0.00    +0.000 A 
ATOM     16  C   UNL     1       2.711   3.913  19.981  0.00  0.00    +0.000 A 
ATOM     17  C   UNL     1       3.610   4.750  19.355  0.00  0.00    +0.000 A 
ATOM     18  O   UNL     1       2.367   3.957  21.297  0.00  0.00    +0.000 OA
ATOM     19  C   UNL     1       1.386   2.900  21.356  0.00  0.00    +0.000 C 
ATOM     20  O   UNL     1       1.207   2.212  20.101  0.00  0.00    +0.000 OA
ENDBRANCH   2  12
TORSDOF 2
ENDMDL
MODEL 2
REMARK VINA RESULT:      -7.3      0.963      1.664
REMARK  Name = 
REMARK  2 active torsions:
REMARK  status: ('A' for Active; 'I' for Inactive)
REMARK    1  A    between atoms: C_2  and  C_3
REMARK    2  A    between atoms: C_4  and  C_5
REMARK                            x       y       z     vdW  Elec       q    Type
REMARK                         _______ _______ _______ _____ _____    ______ ____
ROOT
ATOM      1  C   UNL     1       5.881   5.253  16.879  0.00  0.00    +0.000 C 
ATOM      2  C   UNL     1       4.872   5.978  17.382  0.00  0.00    +0.000 C 
ENDROOT
BRANCH   1   4
ATOM      3  O   UNL     1       7.732   6.725  16.760  0.00  0.00    +0.000 OA
ATOM      4  C   UNL     1       7.019   5.906  16.181  0.00  0.00    +0.000 C 
ATOM      5  N   UNL     1       7.353   5.523  14.913  0.00  0.00    +0.000 N 
ATOM      6  C   UNL     1       6.610   4.755  14.065  0.00  0.00    +0.000 A 
ATOM      7  N   UNL     1       5.357   4.380  14.149  0.00  0.00    +0.000 NA
ATOM      8  N   UNL     1       4.985   3.558  13.108  0.00  0.00    +0.000 NA
ATOM      9  C   UNL     1       5.982   3.360  12.273  0.00  0.00    +0.000 A 
ATOM     10  S   UNL     1       7.431   4.192  12.677  0.00  0.00    +0.000 S 
ATOM     11  H   UNL     1       8.240   5.865  14.578  0.00  0.00    +0.000 HD
ENDBRANCH   1   4
BRANCH   2  12
ATOM     12  C   UNL     1       3.803   5.313  18.130  0.00  0.00    +0.000 A 
ATOM     13  C   UNL     1       3.428   5.798  19.400  0.00  0.00    +0.000 A 
ATOM     14  C   UNL     1       2.396   5.191  20.121  0.00  0.00    +0.000 A 
ATOM     15  C   UNL     1       1.762   4.110  19.547  0.00  0.00    +0.000 A 
ATOM     16  C   UNL     1       2.114   3.642  18.303  0.00  0.00    +0.000 A 
ATOM     17  C   UNL     1       3.125   4.223  17.566  0.00  0.00    +0.000 A 
ATOM     18  O   UNL     1       1.363   2.574  17.918  0.00  0.00    +0.000 OA
ATOM     19  C   UNL     1       0.525   2.401  19.081  0.00  0.00    +0.000 C 
ATOM     20  O   UNL     1       0.748   3.394  20.103  0.00  0.00    +0.000 OA
ENDBRANCH   2  12
TORSDOF 2
ENDMDL
MODEL 3
REMARK VINA RESULT:      -7.0      6.053      7.200
REMARK  Name = 
REMARK  2 active torsions:
REMARK  status: ('A' for Active; 'I' for Inactive)
REMARK    1  A    between atoms: C_2  and  C_3
REMARK    2  A    between atoms: C_4  and  C_5
REMARK                            x       y       z     vdW  Elec       q    Type
REMARK                         _______ _______ _______ _____ _____    ______ ____
ROOT
ATOM      1  C   UNL     1       1.992   8.094  18.825  0.00  0.00    +0.000 C 
ATOM      2  C   UNL     1       2.457   7.245  17.899  0.00  0.00    +0.000 C 
ENDROOT
BRANCH   1   4
ATOM      3  O   UNL     1       2.081   9.994  17.413  0.00  0.00    +0.000 OA
ATOM      4  C   UNL     1       1.739   9.522  18.497  0.00  0.00    +0.000 C 
ATOM      5  N   UNL     1       1.025  10.304  19.360  0.00  0.00    +0.000 N 
ATOM      6  C   UNL     1       0.695  10.013  20.650  0.00  0.00    +0.000 A 
ATOM      7  N   UNL     1       1.132   9.059  21.436  0.00  0.00    +0.000 NA
ATOM      8  N   UNL     1       0.512   9.069  22.667  0.00  0.00    +0.000 NA
ATOM      9  C   UNL     1      -0.363  10.047  22.756  0.00  0.00    +0.000 A 
ATOM     10  S   UNL     1      -0.465  11.046  21.362  0.00  0.00    +0.000 S 
ATOM     11  H   UNL     1       0.730  11.194  18.991  0.00  0.00    +0.000 HD
ENDBRANCH   1   4
BRANCH   2  12
ATOM     12  C   UNL     1       2.624   5.829  18.231  0.00  0.00    +0.000 A 
ATOM     13  C   UNL     1       1.627   4.900  17.866  0.00  0.00    +0.000 A 
ATOM     14  C   UNL     1       1.778   3.540  18.155  0.00  0.00    +0.000 A 
ATOM     15  C   UNL     1       2.929   3.145  18.802  0.00  0.00    +0.000 A 
ATOM     16  C   UNL     1       3.910   4.045  19.147  0.00  0.00    +0.000 A 
ATOM     17  C   UNL     1       3.792   5.391  18.871  0.00  0.00    +0.000 A 
ATOM     18  O   UNL     1       4.964   3.450  19.769  0.00  0.00    +0.000 OA
ATOM     19  C   UNL     1       4.514   2.080  19.813  0.00  0.00    +0.000 C 
ATOM     20  O   UNL     1       3.240   1.873  19.169  0.00  0.00    +0.000 OA
ENDBRANCH   2  12
TORSDOF 2
ENDMDL
MODEL 4
REMARK VINA RESULT:      -7.0      4.611      7.210
REMARK  Name = 
REMARK  2 active torsions:
REMARK  status: ('A' for Active; 'I' for Inactive)
REMARK    1  A    between atoms: C_2  and  C_3
REMARK    2  A    between atoms: C_4  and  C_5
REMARK                            x       y       z     vdW  Elec       q    Type
REMARK                         _______ _______ _______ _____ _____    ______ ____
ROOT
ATOM      1  C   UNL     1       3.286   5.452  19.488  0.00  0.00    +0.000 C 
ATOM      2  C   UNL     1       4.125   4.437  19.241  0.00  0.00    +0.000 C 
ENDROOT
BRANCH   1   4
ATOM      3  O   UNL     1       2.241   4.395  21.332  0.00  0.00    +0.000 OA
ATOM      4  C   UNL     1       2.352   5.409  20.644  0.00  0.00    +0.000 C 
ATOM      5  N   UNL     1       1.681   6.538  21.020  0.00  0.00    +0.000 N 
ATOM      6  C   UNL     1       1.558   7.695  20.311  0.00  0.00    +0.000 A 
ATOM      7  N   UNL     1       1.850   7.950  19.058  0.00  0.00    +0.000 NA
ATOM      8  N   UNL     1       1.628   9.269  18.726  0.00  0.00    +0.000 NA
ATOM      9  C   UNL     1       1.164   9.951  19.751  0.00  0.00    +0.000 A 
ATOM     10  S   UNL     1       0.929   9.025  21.180  0.00  0.00    +0.000 S 
ATOM     11  H   UNL     1       1.220   6.486  21.915  0.00  0.00    +0.000 HD
ENDBRANCH   1   4
BRANCH   2  12
ATOM     12  C   UNL     1       5.086   4.541  18.141  0.00  0.00    +0.000 A 
ATOM     13  C   UNL     1       6.443   4.809  18.417  0.00  0.00    +0.000 A 
ATOM     14  C   UNL     1       7.380   4.891  17.382  0.00  0.00    +0.000 A 
ATOM     15  C   UNL     1       6.931   4.699  16.093  0.00  0.00    +0.000 A 
ATOM     16  C   UNL     1       5.612   4.423  15.820  0.00  0.00    +0.000 A 
ATOM     17  C   UNL     1       4.666   4.332  16.820  0.00  0.00    +0.000 A 
ATOM     18  O   UNL     1       5.381   4.262  14.489  0.00  0.00    +0.000 OA
ATOM     19  C   UNL     1       6.699   4.508  13.954  0.00  0.00    +0.000 C 
ATOM     20  O   UNL     1       7.695   4.751  14.969  0.00  0.00    +0.000 OA
ENDBRANCH   2  12
TORSDOF 2
ENDMDL
MODEL 5
REMARK VINA RESULT:      -7.0      3.780      4.739
REMARK  Name = 
REMARK  2 active torsions:
REMARK  status: ('A' for Active; 'I' for Inactive)
REMARK    1  A    between atoms: C_2  and  C_3
REMARK    2  A    between atoms: C_4  and  C_5
REMARK                            x       y       z     vdW  Elec       q    Type
REMARK                         _______ _______ _______ _____ _____    ______ ____
ROOT
ATOM      1  C   UNL     1       4.340   5.412  19.159  0.00  0.00    +0.000 C 
ATOM      2  C   UNL     1       3.015   5.534  19.312  0.00  0.00    +0.000 C 
ENDROOT
BRANCH   1   4
ATOM      3  O   UNL     1       4.949   3.264  19.950  0.00  0.00    +0.000 OA
ATOM      4  C   UNL     1       4.975   4.075  19.025  0.00  0.00    +0.000 C 
ATOM      5  N   UNL     1       5.506   3.689  17.826  0.00  0.00    +0.000 N 
ATOM      6  C   UNL     1       5.759   4.482  16.747  0.00  0.00    +0.000 A 
ATOM      7  N   UNL     1       5.766   5.790  16.646  0.00  0.00    +0.000 NA
ATOM      8  N   UNL     1       6.022   6.215  15.361  0.00  0.00    +0.000 NA
ATOM      9  C   UNL     1       6.211   5.199  14.547  0.00  0.00    +0.000 A 
ATOM     10  S   UNL     1       6.127   3.655  15.298  0.00  0.00    +0.000 S 
ATOM     11  H   UNL     1       5.743   2.712  17.754  0.00  0.00    +0.000 HD
ENDBRANCH   1   4
BRANCH   2  12
ATOM     12  C   UNL     1       2.410   6.866  19.366  0.00  0.00    +0.000 A 
ATOM     13  C   UNL     1       2.397   7.678  18.213  0.00  0.00    +0.000 A 
ATOM     14  C   UNL     1       1.805   8.945  18.237  0.00  0.00    +0.000 A 
ATOM     15  C   UNL     1       1.237   9.365  19.420  0.00  0.00    +0.000 A 
ATOM     16  C   UNL     1       1.234   8.571  20.543  0.00  0.00    +0.000 A 
ATOM     17  C   UNL     1       1.806   7.316  20.549  0.00  0.00    +0.000 A 
ATOM     18  O   UNL     1       0.619   9.169  21.599  0.00  0.00    +0.000 OA
ATOM     19  C   UNL     1       0.271  10.446  21.023  0.00  0.00    +0.000 C 
ATOM     20  O   UNL     1       0.629  10.564  19.630  0.00  0.00    +0.000 OA
ENDBRANCH   2  12
TORSDOF 2
ENDMDL
MODEL 6
REMARK VINA RESULT:      -6.9      5.138      6.064
REMARK  Name = 
REMARK  2 active torsions:
REMARK  status: ('A' for Active; 'I' for Inactive)
REMARK    1  A    between atoms: C_2  and  C_3
REMARK    2  A    between atoms: C_4  and  C_5
REMARK                            x       y       z     vdW  Elec       q    Type
REMARK                         _______ _______ _______ _____ _____    ______ ____
ROOT
ATOM      1  C   UNL     1       3.112   6.957  18.299  0.00  0.00    +0.000 C 
ATOM      2  C   UNL     1       2.430   8.022  17.857  0.00  0.00    +0.000 C 
ENDROOT
BRANCH   1   4
ATOM      3  O   UNL     1       4.916   6.791  16.773  0.00  0.00    +0.000 OA
ATOM      4  C   UNL     1       4.031   6.210  17.401  0.00  0.00    +0.000 C 
ATOM      5  N   UNL     1       3.971   4.846  17.346  0.00  0.00    +0.000 N 
ATOM      6  C   UNL     1       2.985   4.047  17.842  0.00  0.00    +0.000 A 
ATOM      7  N   UNL     1       1.792   4.360  18.288  0.00  0.00    +0.000 NA
ATOM      8  N   UNL     1       1.102   3.263  18.755  0.00  0.00    +0.000 NA
ATOM      9  C   UNL     1       1.809   2.161  18.628  0.00  0.00    +0.000 A 
ATOM     10  S   UNL     1       3.348   2.378  17.894  0.00  0.00    +0.000 S 
ATOM     11  H   UNL     1       4.740   4.400  16.871  0.00  0.00    +0.000 HD
ENDBRANCH   1   4
BRANCH   2  12
ATOM     12  C   UNL     1       1.591   8.784  18.784  0.00  0.00    +0.000 A 
ATOM     13  C   UNL     1       0.781   9.831  18.300  0.00  0.00    +0.000 A 
ATOM     14  C   UNL     1      -0.044  10.556  19.166  0.00  0.00    +0.000 A 
ATOM     15  C   UNL     1      -0.036  10.209  20.500  0.00  0.00    +0.000 A 
ATOM     16  C   UNL     1       0.742   9.180  20.974  0.00  0.00    +0.000 A 
ATOM     17  C   UNL     1       1.562   8.444  20.144  0.00  0.00    +0.000 A 
ATOM     18  O   UNL     1       0.598   8.997  22.315  0.00  0.00    +0.000 OA
ATOM     19  C   UNL     1      -0.328  10.056  22.635  0.00  0.00    +0.000 C 
ATOM     20  O   UNL     1      -0.763  10.807  21.482  0.00  0.00    +0.000 OA
ENDBRANCH   2  12
TORSDOF 2
ENDMDL
MODEL 7
REMARK VINA RESULT:      -6.9      6.214      7.386
REMARK  Name = 
REMARK  2 active torsions:
REMARK  status: ('A' for Active; 'I' for Inactive)
REMARK    1  A    between atoms: C_2  and  C_3
REMARK    2  A    between atoms: C_4  and  C_5
REMARK                            x       y       z     vdW  Elec       q    Type
REMARK                         _______ _______ _______ _____ _____    ______ ____
ROOT
ATOM      1  C   UNL     1       1.942   8.404  19.098  0.00  0.00    +0.000 C 
ATOM      2  C   UNL     1       2.427   7.472  18.266  0.00  0.00    +0.000 C 
ENDROOT
BRANCH   1   4
ATOM      3  O   UNL     1       1.876  10.119  17.465  0.00  0.00    +0.000 OA
ATOM      4  C   UNL     1       1.574   9.756  18.601  0.00  0.00    +0.000 C 
ATOM      5  N   UNL     1       0.799  10.577  19.370  0.00  0.00    +0.000 N 
ATOM      6  C   UNL     1       0.493  10.420  20.689  0.00  0.00    +0.000 A 
ATOM      7  N   UNL     1       1.007   9.607  21.581  0.00  0.00    +0.000 NA
ATOM      8  N   UNL     1       0.388   9.716  22.807  0.00  0.00    +0.000 NA
ATOM      9  C   UNL     1      -0.563  10.624  22.786  0.00  0.00    +0.000 A 
ATOM     10  S   UNL     1      -0.746  11.436  21.282  0.00  0.00    +0.000 S 
ATOM     11  H   UNL     1       0.432  11.390  18.899  0.00  0.00    +0.000 HD
ENDBRANCH   1   4
BRANCH   2  12
ATOM     12  C   UNL     1       2.708   6.126  18.769  0.00  0.00    +0.000 A 
ATOM     13  C   UNL     1       3.519   5.251  18.017  0.00  0.00    +0.000 A 
ATOM     14  C   UNL     1       3.817   3.969  18.490  0.00  0.00    +0.000 A 
ATOM     15  C   UNL     1       3.294   3.598  19.710  0.00  0.00    +0.000 A 
ATOM     16  C   UNL     1       2.515   4.453  20.453  0.00  0.00    +0.000 A 
ATOM     17  C   UNL     1       2.207   5.724  20.015  0.00  0.00    +0.000 A 
ATOM     18  O   UNL     1       2.107   3.895  21.625  0.00  0.00    +0.000 OA
ATOM     19  C   UNL     1       2.686   2.577  21.514  0.00  0.00    +0.000 C 
ATOM     20  O   UNL     1       3.471   2.394  20.318  0.00  0.00    +0.000 OA
ENDBRANCH   2  12
TORSDOF 2
ENDMDL
MODEL 8
REMARK VINA RESULT:      -6.8      6.233      7.502
REMARK  Name = 
REMARK  2 active torsions:
REMARK  status: ('A' for Active; 'I' for Inactive)
REMARK    1  A    between atoms: C_2  and  C_3
REMARK    2  A    between atoms: C_4  and  C_5
REMARK                            x       y       z     vdW  Elec       q    Type
REMARK                         _______ _______ _______ _____ _____    ______ ____
ROOT
ATOM      1  C   UNL     1       1.962   8.356  19.078  0.00  0.00    +0.000 C 
ATOM      2  C   UNL     1       2.267   7.385  18.206  0.00  0.00    +0.000 C 
ENDROOT
BRANCH   1   4
ATOM      3  O   UNL     1       1.974  10.111  17.488  0.00  0.00    +0.000 OA
ATOM      4  C   UNL     1       1.647   9.732  18.612  0.00  0.00    +0.000 C 
ATOM      5  N   UNL     1       0.893  10.561  19.394  0.00  0.00    +0.000 N 
ATOM      6  C   UNL     1       0.568  10.382  20.706  0.00  0.00    +0.000 A 
ATOM      7  N   UNL     1       1.043   9.529  21.582  0.00  0.00    +0.000 NA
ATOM      8  N   UNL     1       0.416   9.630  22.804  0.00  0.00    +0.000 NA
ATOM      9  C   UNL     1      -0.503  10.571  22.797  0.00  0.00    +0.000 A 
ATOM     10  S   UNL     1      -0.641  11.425  21.312  0.00  0.00    +0.000 S 
ATOM     11  H   UNL     1       0.560  11.396  18.940  0.00  0.00    +0.000 HD
ENDBRANCH   1   4
BRANCH   2  12
ATOM     12  C   UNL     1       2.498   6.022  18.689  0.00  0.00    +0.000 A 
ATOM     13  C   UNL     1       2.255   5.705  20.042  0.00  0.00    +0.000 A 
ATOM     14  C   UNL     1       2.449   4.404  20.517  0.00  0.00    +0.000 A 
ATOM     15  C   UNL     1       2.880   3.451  19.620  0.00  0.00    +0.000 A 
ATOM     16  C   UNL     1       3.105   3.752  18.297  0.00  0.00    +0.000 A 
ATOM     17  C   UNL     1       2.919   5.024  17.798  0.00  0.00    +0.000 A 
ATOM     18  O   UNL     1       3.519   2.670  17.583  0.00  0.00    +0.000 OA
ATOM     19  C   UNL     1       3.567   1.665  18.618  0.00  0.00    +0.000 C 
ATOM     20  O   UNL     1       3.129   2.145  19.906  0.00  0.00    +0.000 OA
ENDBRANCH   2  12
TORSDOF 2
ENDMDL
MODEL 9
REMARK VINA RESULT:      -6.8      5.487      6.482
REMARK  Name = 
REMARK  2 active torsions:
REMARK  status: ('A' for Active; 'I' for Inactive)
REMARK    1  A    between atoms: C_2  and  C_3
REMARK    2  A    between atoms: C_4  and  C_5
REMARK                            x       y       z     vdW  Elec       q    Type
REMARK                         _______ _______ _______ _____ _____    ______ ____
ROOT
ATOM      1  C   UNL     1       2.886   6.631  18.156  0.00  0.00    +0.000 C 
ATOM      2  C   UNL     1       2.740   7.942  17.923  0.00  0.00    +0.000 C 
ENDROOT
BRANCH   1   4
ATOM      3  O   UNL     1       4.847   6.391  16.849  0.00  0.00    +0.000 OA
ATOM      4  C   UNL     1       3.922   5.838  17.443  0.00  0.00    +0.000 C 
ATOM      5  N   UNL     1       3.917   4.475  17.530  0.00  0.00    +0.000 N 
ATOM      6  C   UNL     1       2.913   3.686  18.007  0.00  0.00    +0.000 A 
ATOM      7  N   UNL     1       1.669   3.988  18.292  0.00  0.00    +0.000 NA
ATOM      8  N   UNL     1       0.973   2.914  18.803  0.00  0.00    +0.000 NA
ATOM      9  C   UNL     1       1.729   1.839  18.868  0.00  0.00    +0.000 A 
ATOM     10  S   UNL     1       3.329   2.051  18.277  0.00  0.00    +0.000 S 
ATOM     11  H   UNL     1       4.748   4.018  17.187  0.00  0.00    +0.000 HD
ENDBRANCH   1   4
BRANCH   2  12
ATOM     12  C   UNL     1       1.763   8.712  18.696  0.00  0.00    +0.000 A 
ATOM     13  C   UNL     1       1.572   8.432  20.064  0.00  0.00    +0.000 A 
ATOM     14  C   UNL     1       0.658   9.169  20.824  0.00  0.00    +0.000 A 
ATOM     15  C   UNL     1      -0.041  10.174  20.190  0.00  0.00    +0.000 A 
ATOM     16  C   UNL     1       0.153  10.460  18.859  0.00  0.00    +0.000 A 
ATOM     17  C   UNL     1       1.049   9.753  18.085  0.00  0.00    +0.000 A 
ATOM     18  O   UNL     1      -0.629  11.489  18.431  0.00  0.00    +0.000 OA
ATOM     19  C   UNL     1      -1.364  11.790  19.637  0.00  0.00    +0.000 C 
ATOM     20  O   UNL     1      -0.970  10.983  20.766  0.00  0.00    +0.000 OA
ENDBRANCH   2  12
TORSDOF 2
ENDMDL
