MODEL 1
REMARK VINA RESULT:      -8.5      0.000      0.000
REMARK  Name = 
REMARK  4 active torsions:
REMARK  status: ('A' for Active; 'I' for Inactive)
REMARK    1  A    between atoms: C_2  and  C_3
REMARK    2  A    between atoms: N_10  and  C_11
REMARK    3  A    between atoms: C_14  and  C_15
REMARK    4  A    between atoms: C_15  and  C_16
REMARK                            x       y       z     vdW  Elec       q    Type
REMARK                         _______ _______ _______ _____ _____    ______ ____
ROOT
ATOM      1  C   UNL     1       3.427   6.743  18.047  0.00  0.00    +0.000 A 
ATOM      2  N   UNL     1       4.669   7.212  17.790  0.00  0.00    +0.000 NA
ATOM      3  N   UNL     1       5.679   6.384  17.392  0.00  0.00    +0.000 NA
ATOM      4  C   UNL     1       5.469   5.051  17.293  0.00  0.00    +0.000 A 
ATOM      5  C   UNL     1       4.213   4.482  17.581  0.00  0.00    +0.000 A 
ATOM      6  C   UNL     1       3.942   3.088  17.565  0.00  0.00    +0.000 A 
ATOM      7  C   UNL     1       2.652   2.583  17.748  0.00  0.00    +0.000 A 
ATOM      8  C   UNL     1       1.592   3.456  17.889  0.00  0.00    +0.000 A 
ATOM      9  C   UNL     1       1.845   4.821  17.931  0.00  0.00    +0.000 A 
ATOM     10  C   UNL     1       3.153   5.362  17.879  0.00  0.00    +0.000 A 
ENDROOT
BRANCH   1  18
ATOM     11  C   UNL     1      -1.585  12.806  20.639  0.00  0.00    +0.000 A 
ATOM     12  C   UNL     1      -1.466  11.657  21.410  0.00  0.00    +0.000 A 
ATOM     13  C   UNL     1      -0.557  10.672  21.026  0.00  0.00    +0.000 A 
ATOM     14  C   UNL     1       0.223  10.842  19.883  0.00  0.00    +0.000 A 
ATOM     15  N   UNL     1       1.048   9.841  19.442  0.00  0.00    +0.000 N 
ATOM     16  C   UNL     1       1.779   8.944  20.360  0.00  0.00    +0.000 C 
ATOM     17  C   UNL     1       1.833   7.526  19.746  0.00  0.00    +0.000 C 
ATOM     18  N   UNL     1       2.460   7.646  18.426  0.00  0.00    +0.000 N 
ATOM     19  C   UNL     1       1.714   8.506  17.488  0.00  0.00    +0.000 C 
ATOM     20  C   UNL     1       1.626   9.935  18.089  0.00  0.00    +0.000 C 
ATOM     21  N   UNL     1       0.098  11.962  19.136  0.00  0.00    +0.000 NA
ATOM     22  C   UNL     1      -0.784  12.912  19.520  0.00  0.00    +0.000 A 
BRANCH  11  24
ATOM     23  N   UNL     1      -3.263  14.673  21.237  0.00  0.00    +0.000 NA
ATOM     24  C   UNL     1      -2.511  13.826  20.972  0.00  0.00    +0.000 C 
ENDBRANCH  11  24
ENDBRANCH   1  18
BRANCH   4  25
ATOM     25  C   UNL     1       6.630   4.272  16.710  0.00  0.00    +0.000 C 
BRANCH  25  26
ATOM     26  C   UNL     1       6.708   4.358  15.194  0.00  0.00    +0.000 A 
ATOM     27  C   UNL     1       5.816   3.623  14.392  0.00  0.00    +0.000 A 
ATOM     28  C   UNL     1       5.938   3.631  13.001  0.00  0.00    +0.000 A 
ATOM     29  C   UNL     1       6.942   4.386  12.407  0.00  0.00    +0.000 A 
ATOM     30  F   UNL     1       7.083   4.367  11.075  0.00  0.00    +0.000 F 
ATOM     31  C   UNL     1       7.804   5.157  13.176  0.00  0.00    +0.000 A 
ATOM     32  C   UNL     1       7.686   5.149  14.569  0.00  0.00    +0.000 A 
ENDBRANCH  25  26
ENDBRANCH   4  25
TORSDOF 4
ENDMDL
MODEL 2
REMARK VINA RESULT:      -8.2      1.767      2.306
REMARK  Name = 
REMARK  4 active torsions:
REMARK  status: ('A' for Active; 'I' for Inactive)
REMARK    1  A    between atoms: C_2  and  C_3
REMARK    2  A    between atoms: N_10  and  C_11
REMARK    3  A    between atoms: C_14  and  C_15
REMARK    4  A    between atoms: C_15  and  C_16
REMARK                            x       y       z     vdW  Elec       q    Type
REMARK                         _______ _______ _______ _____ _____    ______ ____
ROOT
ATOM      1  C   UNL     1       2.550   6.671  19.078  0.00  0.00    +0.000 A 
ATOM      2  N   UNL     1       3.341   6.893  18.005  0.00  0.00    +0.000 NA
ATOM      3  N   UNL     1       3.919   5.864  17.316  0.00  0.00    +0.000 NA
ATOM      4  C   UNL     1       3.752   4.588  17.730  0.00  0.00    +0.000 A 
ATOM      5  C   UNL     1       2.973   4.279  18.863  0.00  0.00    +0.000 A 
ATOM      6  C   UNL     1       2.812   2.971  19.393  0.00  0.00    +0.000 A 
ATOM      7  C   UNL     1       1.940   2.704  20.451  0.00  0.00    +0.000 A 
ATOM      8  C   UNL     1       1.161   3.720  20.966  0.00  0.00    +0.000 A 
ATOM      9  C   UNL     1       1.325   5.008  20.475  0.00  0.00    +0.000 A 
ATOM     10  C   UNL     1       2.292   5.340  19.493  0.00  0.00    +0.000 A 
ENDROOT
BRANCH   1  18
ATOM     11  C   UNL     1      -1.763  12.779  22.640  0.00  0.00    +0.000 A 
ATOM     12  C   UNL     1      -1.175  13.006  21.403  0.00  0.00    +0.000 A 
ATOM     13  C   UNL     1      -0.524  11.955  20.757  0.00  0.00    +0.000 A 
ATOM     14  C   UNL     1      -0.468  10.693  21.349  0.00  0.00    +0.000 A 
ATOM     15  N   UNL     1       0.251   9.679  20.771  0.00  0.00    +0.000 N 
ATOM     16  C   UNL     1       0.345   9.499  19.308  0.00  0.00    +0.000 C 
ATOM     17  C   UNL     1       1.764   8.996  18.950  0.00  0.00    +0.000 C 
ATOM     18  N   UNL     1       1.991   7.760  19.706  0.00  0.00    +0.000 N 
ATOM     19  C   UNL     1       1.941   7.939  21.169  0.00  0.00    +0.000 C 
ATOM     20  C   UNL     1       0.532   8.464  21.557  0.00  0.00    +0.000 C 
ATOM     21  N   UNL     1      -1.040  10.483  22.555  0.00  0.00    +0.000 NA
ATOM     22  C   UNL     1      -1.672  11.508  23.170  0.00  0.00    +0.000 A 
BRANCH  11  24
ATOM     23  N   UNL     1      -2.947  14.681  23.920  0.00  0.00    +0.000 NA
ATOM     24  C   UNL     1      -2.416  13.818  23.349  0.00  0.00    +0.000 C 
ENDBRANCH  11  24
ENDBRANCH   1  18
BRANCH   4  25
ATOM     25  C   UNL     1       4.330   3.542  16.799  0.00  0.00    +0.000 C 
BRANCH  25  26
ATOM     26  C   UNL     1       5.365   4.103  15.838  0.00  0.00    +0.000 A 
ATOM     27  C   UNL     1       5.151   4.047  14.448  0.00  0.00    +0.000 A 
ATOM     28  C   UNL     1       6.136   4.481  13.558  0.00  0.00    +0.000 A 
ATOM     29  C   UNL     1       7.330   4.987  14.054  0.00  0.00    +0.000 A 
ATOM     30  F   UNL     1       8.291   5.370  13.202  0.00  0.00    +0.000 F 
ATOM     31  C   UNL     1       7.545   5.095  15.422  0.00  0.00    +0.000 A 
ATOM     32  C   UNL     1       6.563   4.659  16.315  0.00  0.00    +0.000 A 
ENDBRANCH  25  26
ENDBRANCH   4  25
TORSDOF 4
ENDMDL
MODEL 3
REMARK VINA RESULT:      -7.9      4.343     11.255
REMARK  Name = 
REMARK  4 active torsions:
REMARK  status: ('A' for Active; 'I' for Inactive)
REMARK    1  A    between atoms: C_2  and  C_3
REMARK    2  A    between atoms: N_10  and  C_11
REMARK    3  A    between atoms: C_14  and  C_15
REMARK    4  A    between atoms: C_15  and  C_16
REMARK                            x       y       z     vdW  Elec       q    Type
REMARK                         _______ _______ _______ _____ _____    ______ ____
ROOT
ATOM      1  C   UNL     1      -0.428  10.674  19.449  0.00  0.00    +0.000 A 
ATOM      2  N   UNL     1      -0.509  11.411  20.580  0.00  0.00    +0.000 NA
ATOM      3  N   UNL     1      -1.612  12.163  20.866  0.00  0.00    +0.000 NA
ATOM      4  C   UNL     1      -2.639  12.230  19.989  0.00  0.00    +0.000 A 
ATOM      5  C   UNL     1      -2.612  11.521  18.772  0.00  0.00    +0.000 A 
ATOM      6  C   UNL     1      -3.621  11.599  17.776  0.00  0.00    +0.000 A 
ATOM      7  C   UNL     1      -3.601  10.790  16.637  0.00  0.00    +0.000 A 
ATOM      8  C   UNL     1      -2.610   9.841  16.492  0.00  0.00    +0.000 A 
ATOM      9  C   UNL     1      -1.602   9.770  17.445  0.00  0.00    +0.000 A 
ATOM     10  C   UNL     1      -1.519  10.660  18.544  0.00  0.00    +0.000 A 
ENDROOT
BRANCH   1  18
ATOM     11  C   UNL     1       5.812   5.550  17.602  0.00  0.00    +0.000 A 
ATOM     12  C   UNL     1       5.250   5.493  18.871  0.00  0.00    +0.000 A 
ATOM     13  C   UNL     1       4.142   6.289  19.159  0.00  0.00    +0.000 A 
ATOM     14  C   UNL     1       3.606   7.129  18.183  0.00  0.00    +0.000 A 
ATOM     15  N   UNL     1       2.580   7.987  18.482  0.00  0.00    +0.000 N 
ATOM     16  C   UNL     1       1.497   7.640  19.426  0.00  0.00    +0.000 C 
ATOM     17  C   UNL     1       1.094   8.904  20.220  0.00  0.00    +0.000 C 
ATOM     18  N   UNL     1       0.711   9.929  19.243  0.00  0.00    +0.000 N 
ATOM     19  C   UNL     1       1.798  10.312  18.324  0.00  0.00    +0.000 C 
ATOM     20  C   UNL     1       2.238   9.055  17.525  0.00  0.00    +0.000 C 
ATOM     21  N   UNL     1       4.162   7.180  16.952  0.00  0.00    +0.000 NA
ATOM     22  C   UNL     1       5.234   6.402  16.682  0.00  0.00    +0.000 A 
BRANCH  11  24
ATOM     23  N   UNL     1       7.890   4.155  16.976  0.00  0.00    +0.000 NA
ATOM     24  C   UNL     1       6.953   4.779  17.265  0.00  0.00    +0.000 C 
ENDBRANCH  11  24
ENDBRANCH   1  18
BRANCH   4  25
ATOM     25  C   UNL     1      -3.851  12.985  20.493  0.00  0.00    +0.000 C 
BRANCH  25  26
ATOM     26  C   UNL     1      -3.719  13.433  21.940  0.00  0.00    +0.000 A 
ATOM     27  C   UNL     1      -3.198  14.704  22.247  0.00  0.00    +0.000 A 
ATOM     28  C   UNL     1      -2.994  15.087  23.574  0.00  0.00    +0.000 A 
ATOM     29  C   UNL     1      -3.326  14.209  24.598  0.00  0.00    +0.000 A 
ATOM     30  F   UNL     1      -3.098  14.560  25.871  0.00  0.00    +0.000 F 
ATOM     31  C   UNL     1      -3.886  12.968  24.320  0.00  0.00    +0.000 A 
ATOM     32  C   UNL     1      -4.088  12.581  22.993  0.00  0.00    +0.000 A 
ENDBRANCH  25  26
ENDBRANCH   4  25
TORSDOF 4
ENDMDL
MODEL 4
REMARK VINA RESULT:      -7.9      1.390      2.099
REMARK  Name = 
REMARK  4 active torsions:
REMARK  status: ('A' for Active; 'I' for Inactive)
REMARK    1  A    between atoms: C_2  and  C_3
REMARK    2  A    between atoms: N_10  and  C_11
REMARK    3  A    between atoms: C_14  and  C_15
REMARK    4  A    between atoms: C_15  and  C_16
REMARK                            x       y       z     vdW  Elec       q    Type
REMARK                         _______ _______ _______ _____ _____    ______ ____
ROOT
ATOM      1  C   UNL     1       2.683   6.884  18.664  0.00  0.00    +0.000 A 
ATOM      2  N   UNL     1       3.559   6.969  17.638  0.00  0.00    +0.000 NA
ATOM      3  N   UNL     1       4.186   5.864  17.139  0.00  0.00    +0.000 NA
ATOM      4  C   UNL     1       3.981   4.651  17.700  0.00  0.00    +0.000 A 
ATOM      5  C   UNL     1       3.112   4.487  18.797  0.00  0.00    +0.000 A 
ATOM      6  C   UNL     1       2.903   3.258  19.478  0.00  0.00    +0.000 A 
ATOM      7  C   UNL     1       1.947   3.125  20.487  0.00  0.00    +0.000 A 
ATOM      8  C   UNL     1       1.133   4.194  20.801  0.00  0.00    +0.000 A 
ATOM      9  C   UNL     1       1.342   5.409  20.161  0.00  0.00    +0.000 A 
ATOM     10  C   UNL     1       2.386   5.616  19.226  0.00  0.00    +0.000 A 
ENDROOT
BRANCH   1  18
ATOM     11  C   UNL     1      -1.878  13.380  21.029  0.00  0.00    +0.000 A 
ATOM     12  C   UNL     1      -1.180  13.451  19.831  0.00  0.00    +0.000 A 
ATOM     13  C   UNL     1      -0.483  12.329  19.384  0.00  0.00    +0.000 A 
ATOM     14  C   UNL     1      -0.491  11.151  20.131  0.00  0.00    +0.000 A 
ATOM     15  N   UNL     1       0.268  10.075  19.752  0.00  0.00    +0.000 N 
ATOM     16  C   UNL     1       0.491   9.713  18.338  0.00  0.00    +0.000 C 
ATOM     17  C   UNL     1       1.931   9.173  18.175  0.00  0.00    +0.000 C 
ATOM     18  N   UNL     1       2.079   8.042  19.098  0.00  0.00    +0.000 N 
ATOM     19  C   UNL     1       1.900   8.403  20.516  0.00  0.00    +0.000 C 
ATOM     20  C   UNL     1       0.466   8.969  20.706  0.00  0.00    +0.000 C 
ATOM     21  N   UNL     1      -1.171  11.093  21.298  0.00  0.00    +0.000 NA
ATOM     22  C   UNL     1      -1.846  12.185  21.721  0.00  0.00    +0.000 A 
BRANCH  11  24
ATOM     23  N   UNL     1      -3.151  15.418  21.970  0.00  0.00    +0.000 NA
ATOM     24  C   UNL     1      -2.583  14.498  21.540  0.00  0.00    +0.000 C 
ENDBRANCH  11  24
ENDBRANCH   1  18
BRANCH   4  25
ATOM     25  C   UNL     1       4.628   3.497  16.963  0.00  0.00    +0.000 C 
BRANCH  25  26
ATOM     26  C   UNL     1       5.594   3.945  15.878  0.00  0.00    +0.000 A 
ATOM     27  C   UNL     1       6.794   4.598  16.218  0.00  0.00    +0.000 A 
ATOM     28  C   UNL     1       7.643   5.088  15.224  0.00  0.00    +0.000 A 
ATOM     29  C   UNL     1       7.305   4.913  13.888  0.00  0.00    +0.000 A 
ATOM     30  F   UNL     1       8.101   5.414  12.933  0.00  0.00    +0.000 F 
ATOM     31  C   UNL     1       6.150   4.230  13.529  0.00  0.00    +0.000 A 
ATOM     32  C   UNL     1       5.297   3.741  14.521  0.00  0.00    +0.000 A 
ENDBRANCH  25  26
ENDBRANCH   4  25
TORSDOF 4
ENDMDL
MODEL 5
REMARK VINA RESULT:      -7.8      0.910      1.457
REMARK  Name = 
REMARK  4 active torsions:
REMARK  status: ('A' for Active; 'I' for Inactive)
REMARK    1  A    between atoms: C_2  and  C_3
REMARK    2  A    between atoms: N_10  and  C_11
REMARK    3  A    between atoms: C_14  and  C_15
REMARK    4  A    between atoms: C_15  and  C_16
REMARK                            x       y       z     vdW  Elec       q    Type
REMARK                         _______ _______ _______ _____ _____    ______ ____
ROOT
ATOM      1  C   UNL     1       3.485   6.390  17.881  0.00  0.00    +0.000 A 
ATOM      2  N   UNL     1       4.657   6.607  17.246  0.00  0.00    +0.000 NA
ATOM      3  N   UNL     1       5.344   5.591  16.643  0.00  0.00    +0.000 NA
ATOM      4  C   UNL     1       4.885   4.321  16.714  0.00  0.00    +0.000 A 
ATOM      5  C   UNL     1       3.690   4.009  17.392  0.00  0.00    +0.000 A 
ATOM      6  C   UNL     1       3.187   2.693  17.566  0.00  0.00    +0.000 A 
ATOM      7  C   UNL     1       1.941   2.448  18.148  0.00  0.00    +0.000 A 
ATOM      8  C   UNL     1       1.139   3.509  18.515  0.00  0.00    +0.000 A 
ATOM      9  C   UNL     1       1.628   4.801  18.375  0.00  0.00    +0.000 A 
ATOM     10  C   UNL     1       2.936   5.082  17.909  0.00  0.00    +0.000 A 
ENDROOT
BRANCH   1  18
ATOM     11  C   UNL     1      -1.272  12.416  20.988  0.00  0.00    +0.000 A 
ATOM     12  C   UNL     1      -0.578  12.649  19.808  0.00  0.00    +0.000 A 
ATOM     13  C   UNL     1       0.152  11.611  19.233  0.00  0.00    +0.000 A 
ATOM     14  C   UNL     1       0.182  10.353  19.836  0.00  0.00    +0.000 A 
ATOM     15  N   UNL     1       0.973   9.354  19.334  0.00  0.00    +0.000 N 
ATOM     16  C   UNL     1       1.205   9.168  17.887  0.00  0.00    +0.000 C 
ATOM     17  C   UNL     1       2.661   8.695  17.665  0.00  0.00    +0.000 C 
ATOM     18  N   UNL     1       2.846   7.469  18.447  0.00  0.00    +0.000 N 
ATOM     19  C   UNL     1       2.658   7.655  19.898  0.00  0.00    +0.000 C 
ATOM     20  C   UNL     1       1.208   8.149  20.151  0.00  0.00    +0.000 C 
ATOM     21  N   UNL     1      -0.493  10.136  20.987  0.00  0.00    +0.000 NA
ATOM     22  C   UNL     1      -1.202  11.150  21.534  0.00  0.00    +0.000 A 
BRANCH  11  24
ATOM     23  N   UNL     1      -2.626  14.286  22.140  0.00  0.00    +0.000 NA
ATOM     24  C   UNL     1      -2.010  13.444  21.626  0.00  0.00    +0.000 C 
ENDBRANCH  11  24
ENDBRANCH   1  18
BRANCH   4  25
ATOM     25  C   UNL     1       5.667   3.321  15.889  0.00  0.00    +0.000 C 
BRANCH  25  26
ATOM     26  C   UNL     1       6.151   3.886  14.563  0.00  0.00    +0.000 A 
ATOM     27  C   UNL     1       5.560   3.474  13.355  0.00  0.00    +0.000 A 
ATOM     28  C   UNL     1       6.057   3.923  12.130  0.00  0.00    +0.000 A 
ATOM     29  C   UNL     1       7.136   4.798  12.109  0.00  0.00    +0.000 A 
ATOM     30  F   UNL     1       7.637   5.202  10.934  0.00  0.00    +0.000 F 
ATOM     31  C   UNL     1       7.706   5.255  13.290  0.00  0.00    +0.000 A 
ATOM     32  C   UNL     1       7.212   4.805  14.518  0.00  0.00    +0.000 A 
ENDBRANCH  25  26
ENDBRANCH   4  25
TORSDOF 4
ENDMDL
MODEL 6
REMARK VINA RESULT:      -7.8      1.667      1.887
REMARK  Name = 
REMARK  4 active torsions:
REMARK  status: ('A' for Active; 'I' for Inactive)
REMARK    1  A    between atoms: C_2  and  C_3
REMARK    2  A    between atoms: N_10  and  C_11
REMARK    3  A    between atoms: C_14  and  C_15
REMARK    4  A    between atoms: C_15  and  C_16
REMARK                            x       y       z     vdW  Elec       q    Type
REMARK                         _______ _______ _______ _____ _____    ______ ____
ROOT
ATOM      1  C   UNL     1       2.672   6.628  19.520  0.00  0.00    +0.000 A 
ATOM      2  N   UNL     1       3.744   6.928  18.754  0.00  0.00    +0.000 NA
ATOM      3  N   UNL     1       4.607   5.963  18.320  0.00  0.00    +0.000 NA
ATOM      4  C   UNL     1       4.434   4.675  18.695  0.00  0.00    +0.000 A 
ATOM      5  C   UNL     1       3.363   4.289  19.524  0.00  0.00    +0.000 A 
ATOM      6  C   UNL     1       3.160   2.971  20.012  0.00  0.00    +0.000 A 
ATOM      7  C   UNL     1       2.021   2.617  20.738  0.00  0.00    +0.000 A 
ATOM      8  C   UNL     1       1.026   3.552  20.943  0.00  0.00    +0.000 A 
ATOM      9  C   UNL     1       1.221   4.851  20.494  0.00  0.00    +0.000 A 
ATOM     10  C   UNL     1       2.418   5.277  19.868  0.00  0.00    +0.000 A 
ENDROOT
BRANCH   1  18
ATOM     11  C   UNL     1      -1.445  13.320  22.140  0.00  0.00    +0.000 A 
ATOM     12  C   UNL     1      -1.503  12.157  22.897  0.00  0.00    +0.000 A 
ATOM     13  C   UNL     1      -0.741  11.056  22.510  0.00  0.00    +0.000 A 
ATOM     14  C   UNL     1       0.070  11.125  21.377  0.00  0.00    +0.000 A 
ATOM     15  N   UNL     1       0.747  10.020  20.931  0.00  0.00    +0.000 N 
ATOM     16  C   UNL     1       1.331   9.017  21.845  0.00  0.00    +0.000 C 
ATOM     17  C   UNL     1       1.187   7.613  21.213  0.00  0.00    +0.000 C 
ATOM     18  N   UNL     1       1.841   7.657  19.901  0.00  0.00    +0.000 N 
ATOM     19  C   UNL     1       1.238   8.626  18.968  0.00  0.00    +0.000 C 
ATOM     20  C   UNL     1       1.350  10.046  19.586  0.00  0.00    +0.000 C 
ATOM     21  N   UNL     1       0.117  12.260  20.644  0.00  0.00    +0.000 NA
ATOM     22  C   UNL     1      -0.624  13.323  21.031  0.00  0.00    +0.000 A 
BRANCH  11  24
ATOM     23  N   UNL     1      -2.853  15.390  22.767  0.00  0.00    +0.000 NA
ATOM     24  C   UNL     1      -2.218  14.459  22.477  0.00  0.00    +0.000 C 
ENDBRANCH  11  24
ENDBRANCH   1  18
BRANCH   4  25
ATOM     25  C   UNL     1       5.378   3.693  18.032  0.00  0.00    +0.000 C 
BRANCH  25  26
ATOM     26  C   UNL     1       5.883   4.167  16.679  0.00  0.00    +0.000 A 
ATOM     27  C   UNL     1       5.088   4.014  15.528  0.00  0.00    +0.000 A 
ATOM     28  C   UNL     1       5.581   4.369  14.271  0.00  0.00    +0.000 A 
ATOM     29  C   UNL     1       6.863   4.892  14.161  0.00  0.00    +0.000 A 
ATOM     30  F   UNL     1       7.351   5.199  12.952  0.00  0.00    +0.000 F 
ATOM     31  C   UNL     1       7.648   5.096  15.289  0.00  0.00    +0.000 A 
ATOM     32  C   UNL     1       7.158   4.740  16.548  0.00  0.00    +0.000 A 
ENDBRANCH  25  26
ENDBRANCH   4  25
TORSDOF 4
ENDMDL
MODEL 7
REMARK VINA RESULT:      -7.6      1.365      2.029
REMARK  Name = 
REMARK  4 active torsions:
REMARK  status: ('A' for Active; 'I' for Inactive)
REMARK    1  A    between atoms: C_2  and  C_3
REMARK    2  A    between atoms: N_10  and  C_11
REMARK    3  A    between atoms: C_14  and  C_15
REMARK    4  A    between atoms: C_15  and  C_16
REMARK                            x       y       z     vdW  Elec       q    Type
REMARK                         _______ _______ _______ _____ _____    ______ ____
ROOT
ATOM      1  C   UNL     1       3.178   6.102  18.175  0.00  0.00    +0.000 A 
ATOM      2  N   UNL     1       4.202   6.369  17.334  0.00  0.00    +0.000 NA
ATOM      3  N   UNL     1       4.771   5.393  16.567  0.00  0.00    +0.000 NA
ATOM      4  C   UNL     1       4.350   4.112  16.671  0.00  0.00    +0.000 A 
ATOM      5  C   UNL     1       3.314   3.748  17.553  0.00  0.00    +0.000 A 
ATOM      6  C   UNL     1       2.871   2.416  17.764  0.00  0.00    +0.000 A 
ATOM      7  C   UNL     1       1.765   2.122  18.566  0.00  0.00    +0.000 A 
ATOM      8  C   UNL     1       1.037   3.151  19.127  0.00  0.00    +0.000 A 
ATOM      9  C   UNL     1       1.473   4.458  18.950  0.00  0.00    +0.000 A 
ATOM     10  C   UNL     1       2.662   4.784  18.252  0.00  0.00    +0.000 A 
ENDROOT
BRANCH   1  18
ATOM     11  C   UNL     1      -0.969  11.995  22.259  0.00  0.00    +0.000 A 
ATOM     12  C   UNL     1      -0.341  12.322  21.064  0.00  0.00    +0.000 A 
ATOM     13  C   UNL     1       0.282  11.315  20.327  0.00  0.00    +0.000 A 
ATOM     14  C   UNL     1       0.272   9.998  20.786  0.00  0.00    +0.000 A 
ATOM     15  N   UNL     1       0.962   9.019  20.121  0.00  0.00    +0.000 N 
ATOM     16  C   UNL     1       1.086   8.986  18.650  0.00  0.00    +0.000 C 
ATOM     17  C   UNL     1       2.491   8.461  18.272  0.00  0.00    +0.000 C 
ATOM     18  N   UNL     1       2.648   7.145  18.901  0.00  0.00    +0.000 N 
ATOM     19  C   UNL     1       2.568   7.175  20.373  0.00  0.00    +0.000 C 
ATOM     20  C   UNL     1       1.173   7.718  20.783  0.00  0.00    +0.000 C 
ATOM     21  N   UNL     1      -0.339   9.691  21.952  0.00  0.00    +0.000 NA
ATOM     22  C   UNL     1      -0.944  10.674  22.656  0.00  0.00    +0.000 A 
BRANCH  11  24
ATOM     23  N   UNL     1      -2.124  13.792  23.707  0.00  0.00    +0.000 NA
ATOM     24  C   UNL     1      -1.596  12.984  23.057  0.00  0.00    +0.000 C 
ENDBRANCH  11  24
ENDBRANCH   1  18
BRANCH   4  25
ATOM     25  C   UNL     1       4.969   3.162  15.667  0.00  0.00    +0.000 C 
BRANCH  25  26
ATOM     26  C   UNL     1       5.935   3.844  14.712  0.00  0.00    +0.000 A 
ATOM     27  C   UNL     1       6.952   4.681  15.206  0.00  0.00    +0.000 A 
ATOM     28  C   UNL     1       7.788   5.378  14.332  0.00  0.00    +0.000 A 
ATOM     29  C   UNL     1       7.621   5.228  12.961  0.00  0.00    +0.000 A 
ATOM     30  F   UNL     1       8.398   5.923  12.119  0.00  0.00    +0.000 F 
ATOM     31  C   UNL     1       6.654   4.371  12.450  0.00  0.00    +0.000 A 
ATOM     32  C   UNL     1       5.815   3.674  13.324  0.00  0.00    +0.000 A 
ENDBRANCH  25  26
ENDBRANCH   4  25
TORSDOF 4
ENDMDL
MODEL 8
REMARK VINA RESULT:      -7.5      4.351     11.186
REMARK  Name = 
REMARK  4 active torsions:
REMARK  status: ('A' for Active; 'I' for Inactive)
REMARK    1  A    between atoms: C_2  and  C_3
REMARK    2  A    between atoms: N_10  and  C_11
REMARK    3  A    between atoms: C_14  and  C_15
REMARK    4  A    between atoms: C_15  and  C_16
REMARK                            x       y       z     vdW  Elec       q    Type
REMARK                         _______ _______ _______ _____ _____    ______ ____
ROOT
ATOM      1  C   UNL     1      -0.377  10.709  19.320  0.00  0.00    +0.000 A 
ATOM      2  N   UNL     1      -0.446  11.499  20.414  0.00  0.00    +0.000 NA
ATOM      3  N   UNL     1      -1.547  12.264  20.677  0.00  0.00    +0.000 NA
ATOM      4  C   UNL     1      -2.585  12.285  19.810  0.00  0.00    +0.000 A 
ATOM      5  C   UNL     1      -2.571  11.518  18.628  0.00  0.00    +0.000 A 
ATOM      6  C   UNL     1      -3.593  11.546  17.643  0.00  0.00    +0.000 A 
ATOM      7  C   UNL     1      -3.585  10.682  16.544  0.00  0.00    +0.000 A 
ATOM      8  C   UNL     1      -2.593   9.729  16.434  0.00  0.00    +0.000 A 
ATOM      9  C   UNL     1      -1.574   9.706  17.377  0.00  0.00    +0.000 A 
ATOM     10  C   UNL     1      -1.479  10.649  18.430  0.00  0.00    +0.000 A 
ENDROOT
BRANCH   1  18
ATOM     11  C   UNL     1       5.860   5.533  17.612  0.00  0.00    +0.000 A 
ATOM     12  C   UNL     1       5.283   5.496  18.875  0.00  0.00    +0.000 A 
ATOM     13  C   UNL     1       4.175   6.300  19.140  0.00  0.00    +0.000 A 
ATOM     14  C   UNL     1       3.655   7.130  18.147  0.00  0.00    +0.000 A 
ATOM     15  N   UNL     1       2.629   7.995  18.423  0.00  0.00    +0.000 N 
ATOM     16  C   UNL     1       1.534   7.666  19.359  0.00  0.00    +0.000 C 
ATOM     17  C   UNL     1       1.128   8.942  20.132  0.00  0.00    +0.000 C 
ATOM     18  N   UNL     1       0.760   9.955  19.137  0.00  0.00    +0.000 N 
ATOM     19  C   UNL     1       1.860  10.322  18.225  0.00  0.00    +0.000 C 
ATOM     20  C   UNL     1       2.304   9.053  17.448  0.00  0.00    +0.000 C 
ATOM     21  N   UNL     1       4.225   7.163  16.922  0.00  0.00    +0.000 NA
ATOM     22  C   UNL     1       5.296   6.376  16.675  0.00  0.00    +0.000 A 
BRANCH  11  24
ATOM     23  N   UNL     1       7.946   4.125  17.046  0.00  0.00    +0.000 NA
ATOM     24  C   UNL     1       7.001   4.753  17.299  0.00  0.00    +0.000 C 
ENDBRANCH  11  24
ENDBRANCH   1  18
BRANCH   4  25
ATOM     25  C   UNL     1      -3.792  13.063  20.291  0.00  0.00    +0.000 C 
BRANCH  25  26
ATOM     26  C   UNL     1      -4.120  12.816  21.754  0.00  0.00    +0.000 A 
ATOM     27  C   UNL     1      -5.421  13.043  22.240  0.00  0.00    +0.000 A 
ATOM     28  C   UNL     1      -5.708  12.901  23.600  0.00  0.00    +0.000 A 
ATOM     29  C   UNL     1      -4.700  12.517  24.475  0.00  0.00    +0.000 A 
ATOM     30  F   UNL     1      -4.964  12.415  25.784  0.00  0.00    +0.000 F 
ATOM     31  C   UNL     1      -3.420  12.242  24.011  0.00  0.00    +0.000 A 
ATOM     32  C   UNL     1      -3.129  12.386  22.651  0.00  0.00    +0.000 A 
ENDBRANCH  25  26
ENDBRANCH   4  25
TORSDOF 4
ENDMDL
MODEL 9
REMARK VINA RESULT:      -7.4      1.832      2.168
REMARK  Name = 
REMARK  4 active torsions:
REMARK  status: ('A' for Active; 'I' for Inactive)
REMARK    1  A    between atoms: C_2  and  C_3
REMARK    2  A    between atoms: N_10  and  C_11
REMARK    3  A    between atoms: C_14  and  C_15
REMARK    4  A    between atoms: C_15  and  C_16
REMARK                            x       y       z     vdW  Elec       q    Type
REMARK                         _______ _______ _______ _____ _____    ______ ____
ROOT
ATOM      1  C   UNL     1       2.534   6.455  19.085  0.00  0.00    +0.000 A 
ATOM      2  N   UNL     1       3.206   6.611  17.923  0.00  0.00    +0.000 NA
ATOM      3  N   UNL     1       3.916   5.587  17.364  0.00  0.00    +0.000 NA
ATOM      4  C   UNL     1       4.007   4.395  17.996  0.00  0.00    +0.000 A 
ATOM      5  C   UNL     1       3.366   4.168  19.231  0.00  0.00    +0.000 A 
ATOM      6  C   UNL     1       3.475   2.967  19.981  0.00  0.00    +0.000 A 
ATOM      7  C   UNL     1       2.730   2.751  21.143  0.00  0.00    +0.000 A 
ATOM      8  C   UNL     1       1.813   3.698  21.552  0.00  0.00    +0.000 A 
ATOM      9  C   UNL     1       1.714   4.888  20.842  0.00  0.00    +0.000 A 
ATOM     10  C   UNL     1       2.544   5.195  19.736  0.00  0.00    +0.000 A 
ENDROOT
BRANCH   1  18
ATOM     11  C   UNL     1      -0.824  13.194  22.536  0.00  0.00    +0.000 A 
ATOM     12  C   UNL     1      -1.169  11.944  23.032  0.00  0.00    +0.000 A 
ATOM     13  C   UNL     1      -0.540  10.812  22.516  0.00  0.00    +0.000 A 
ATOM     14  C   UNL     1       0.425  10.937  21.516  0.00  0.00    +0.000 A 
ATOM     15  N   UNL     1       0.979   9.827  20.933  0.00  0.00    +0.000 N 
ATOM     16  C   UNL     1       1.263   8.587  21.684  0.00  0.00    +0.000 C 
ATOM     17  C   UNL     1       0.994   7.369  20.769  0.00  0.00    +0.000 C 
ATOM     18  N   UNL     1       1.827   7.531  19.573  0.00  0.00    +0.000 N 
ATOM     19  C   UNL     1       1.521   8.745  18.794  0.00  0.00    +0.000 C 
ATOM     20  C   UNL     1       1.763   9.986  19.695  0.00  0.00    +0.000 C 
ATOM     21  N   UNL     1       0.751  12.158  21.037  0.00  0.00    +0.000 NA
ATOM     22  C   UNL     1       0.138  13.249  21.547  0.00  0.00    +0.000 A 
BRANCH  11  24
ATOM     23  N   UNL     1      -1.970  15.335  23.409  0.00  0.00    +0.000 NA
ATOM     24  C   UNL     1      -1.450  14.374  23.010  0.00  0.00    +0.000 C 
ENDBRANCH  11  24
ENDBRANCH   1  18
BRANCH   4  25
ATOM     25  C   UNL     1       4.706   3.311  17.202  0.00  0.00    +0.000 C 
BRANCH  25  26
ATOM     26  C   UNL     1       5.611   3.858  16.110  0.00  0.00    +0.000 A 
ATOM     27  C   UNL     1       6.800   4.534  16.443  0.00  0.00    +0.000 A 
ATOM     28  C   UNL     1       7.592   5.113  15.449  0.00  0.00    +0.000 A 
ATOM     29  C   UNL     1       7.207   5.005  14.119  0.00  0.00    +0.000 A 
ATOM     30  F   UNL     1       7.945   5.590  13.167  0.00  0.00    +0.000 F 
ATOM     31  C   UNL     1       6.063   4.302  13.763  0.00  0.00    +0.000 A 
ATOM     32  C   UNL     1       5.267   3.724  14.756  0.00  0.00    +0.000 A 
ENDBRANCH  25  26
ENDBRANCH   4  25
TORSDOF 4
ENDMDL
