MODEL 1
REMARK VINA RESULT:      -7.2      0.000      0.000
REMARK  Name = 
REMARK  2 active torsions:
REMARK  status: ('A' for Active; 'I' for Inactive)
REMARK    1  A    between atoms: N_8  and  C_9
REMARK    2  A    between atoms: C_9  and  C_10
REMARK                            x       y       z     vdW  Elec       q    Type
REMARK                         _______ _______ _______ _____ _____    ______ ____
ROOT
ATOM      1  C   UNL     1       5.570   4.507  14.465  0.00  0.00    +0.000 C 
ATOM      2  C   UNL     1       5.933   4.870  15.709  0.00  0.00    +0.000 C 
ATOM      3  C   UNL     1       7.138   4.290  16.276  0.00  0.00    +0.000 C 
ATOM      4  C   UNL     1       7.663   4.589  17.469  0.00  0.00    +0.000 C 
ATOM      5  S   UNL     1       6.918   5.776  18.470  0.00  0.00    +0.000 S 
ATOM      6  O   UNL     1       7.535   7.052  18.165  0.00  0.00    +0.000 OA
ATOM      7  O   UNL     1       6.920   5.253  19.819  0.00  0.00    +0.000 OA
ATOM      8  N   UNL     1       5.345   5.845  17.926  0.00  0.00    +0.000 NA
ATOM      9  C   UNL     1       5.081   5.860  16.489  0.00  0.00    +0.000 C 
ENDROOT
BRANCH   8  10
ATOM     10  C   UNL     1       4.209   5.775  18.844  0.00  0.00    +0.000 C 
BRANCH  10  11
ATOM     11  C   UNL     1       3.354   4.531  18.786  0.00  0.00    +0.000 A 
ATOM     12  C   UNL     1       2.000   4.579  18.422  0.00  0.00    +0.000 A 
ATOM     13  C   UNL     1       1.252   3.402  18.308  0.00  0.00    +0.000 A 
ATOM     14  C   UNL     1       1.845   2.165  18.563  0.00  0.00    +0.000 A 
ATOM     15  C   UNL     1       3.181   2.103  18.939  0.00  0.00    +0.000 A 
ATOM     16  C   UNL     1       3.931   3.278  19.048  0.00  0.00    +0.000 A 
ENDBRANCH  10  11
ENDBRANCH   8  10
TORSDOF 2
ENDMDL
MODEL 2
REMARK VINA RESULT:      -7.2      0.291      1.179
REMARK  Name = 
REMARK  2 active torsions:
REMARK  status: ('A' for Active; 'I' for Inactive)
REMARK    1  A    between atoms: N_8  and  C_9
REMARK    2  A    between atoms: C_9  and  C_10
REMARK                            x       y       z     vdW  Elec       q    Type
REMARK                         _______ _______ _______ _____ _____    ______ ____
ROOT
ATOM      1  C   UNL     1       5.575   4.496  14.432  0.00  0.00    +0.000 C 
ATOM      2  C   UNL     1       5.914   4.859  15.684  0.00  0.00    +0.000 C 
ATOM      3  C   UNL     1       7.118   4.292  16.266  0.00  0.00    +0.000 C 
ATOM      4  C   UNL     1       7.623   4.591  17.468  0.00  0.00    +0.000 C 
ATOM      5  S   UNL     1       6.848   5.764  18.462  0.00  0.00    +0.000 S 
ATOM      6  O   UNL     1       7.452   7.049  18.172  0.00  0.00    +0.000 OA
ATOM      7  O   UNL     1       6.837   5.235  19.809  0.00  0.00    +0.000 OA
ATOM      8  N   UNL     1       5.282   5.815  17.896  0.00  0.00    +0.000 NA
ATOM      9  C   UNL     1       5.039   5.833  16.456  0.00  0.00    +0.000 C 
ENDROOT
BRANCH   8  10
ATOM     10  C   UNL     1       4.133   5.725  18.797  0.00  0.00    +0.000 C 
BRANCH  10  11
ATOM     11  C   UNL     1       3.305   4.464  18.732  0.00  0.00    +0.000 A 
ATOM     12  C   UNL     1       3.885   3.208  18.501  0.00  0.00    +0.000 A 
ATOM     13  C   UNL     1       3.102   2.048  18.517  0.00  0.00    +0.000 A 
ATOM     14  C   UNL     1       1.730   2.131  18.756  0.00  0.00    +0.000 A 
ATOM     15  C   UNL     1       1.139   3.370  18.971  0.00  0.00    +0.000 A 
ATOM     16  C   UNL     1       1.922   4.528  18.961  0.00  0.00    +0.000 A 
ENDBRANCH  10  11
ENDBRANCH   8  10
TORSDOF 2
ENDMDL
MODEL 3
REMARK VINA RESULT:      -6.8      1.623      1.854
REMARK  Name = 
REMARK  2 active torsions:
REMARK  status: ('A' for Active; 'I' for Inactive)
REMARK    1  A    between atoms: N_8  and  C_9
REMARK    2  A    between atoms: C_9  and  C_10
REMARK                            x       y       z     vdW  Elec       q    Type
REMARK                         _______ _______ _______ _____ _____    ______ ____
ROOT
ATOM      1  C   UNL     1       6.107   4.027  13.906  0.00  0.00    +0.000 C 
ATOM      2  C   UNL     1       6.005   4.254  15.229  0.00  0.00    +0.000 C 
ATOM      3  C   UNL     1       7.171   4.751  15.938  0.00  0.00    +0.000 C 
ATOM      4  C   UNL     1       7.217   5.081  17.233  0.00  0.00    +0.000 C 
ATOM      5  S   UNL     1       5.802   4.959  18.208  0.00  0.00    +0.000 S 
ATOM      6  O   UNL     1       5.133   6.243  18.168  0.00  0.00    +0.000 OA
ATOM      7  O   UNL     1       6.207   4.369  19.467  0.00  0.00    +0.000 OA
ATOM      8  N   UNL     1       4.835   3.872  17.396  0.00  0.00    +0.000 NA
ATOM      9  C   UNL     1       4.692   3.981  15.946  0.00  0.00    +0.000 C 
ENDROOT
BRANCH   8  10
ATOM     10  C   UNL     1       4.214   2.736  18.076  0.00  0.00    +0.000 C 
BRANCH  10  11
ATOM     11  C   UNL     1       3.188   3.048  19.140  0.00  0.00    +0.000 A 
ATOM     12  C   UNL     1       2.027   3.783  18.856  0.00  0.00    +0.000 A 
ATOM     13  C   UNL     1       1.060   3.996  19.845  0.00  0.00    +0.000 A 
ATOM     14  C   UNL     1       1.244   3.483  21.129  0.00  0.00    +0.000 A 
ATOM     15  C   UNL     1       2.396   2.767  21.429  0.00  0.00    +0.000 A 
ATOM     16  C   UNL     1       3.361   2.549  20.440  0.00  0.00    +0.000 A 
ENDBRANCH  10  11
ENDBRANCH   8  10
TORSDOF 2
ENDMDL
MODEL 4
REMARK VINA RESULT:      -6.7      2.995      5.357
REMARK  Name = 
REMARK  2 active torsions:
REMARK  status: ('A' for Active; 'I' for Inactive)
REMARK    1  A    between atoms: N_8  and  C_9
REMARK    2  A    between atoms: C_9  and  C_10
REMARK                            x       y       z     vdW  Elec       q    Type
REMARK                         _______ _______ _______ _____ _____    ______ ____
ROOT
ATOM      1  C   UNL     1       2.058   7.250  20.200  0.00  0.00    +0.000 C 
ATOM      2  C   UNL     1       2.261   6.028  19.675  0.00  0.00    +0.000 C 
ATOM      3  C   UNL     1       2.216   4.878  20.562  0.00  0.00    +0.000 C 
ATOM      4  C   UNL     1       2.339   3.599  20.192  0.00  0.00    +0.000 C 
ATOM      5  S   UNL     1       2.543   3.196  18.530  0.00  0.00    +0.000 S 
ATOM      6  O   UNL     1       1.226   2.964  17.973  0.00  0.00    +0.000 OA
ATOM      7  O   UNL     1       3.567   2.174  18.466  0.00  0.00    +0.000 OA
ATOM      8  N   UNL     1       3.135   4.590  17.837  0.00  0.00    +0.000 NA
ATOM      9  C   UNL     1       2.538   5.876  18.187  0.00  0.00    +0.000 C 
ENDROOT
BRANCH   8  10
ATOM     10  C   UNL     1       4.315   4.580  16.973  0.00  0.00    +0.000 C 
BRANCH  10  11
ATOM     11  C   UNL     1       5.565   5.237  17.509  0.00  0.00    +0.000 A 
ATOM     12  C   UNL     1       6.272   6.198  16.770  0.00  0.00    +0.000 A 
ATOM     13  C   UNL     1       7.386   6.842  17.320  0.00  0.00    +0.000 A 
ATOM     14  C   UNL     1       7.810   6.529  18.612  0.00  0.00    +0.000 A 
ATOM     15  C   UNL     1       7.130   5.569  19.350  0.00  0.00    +0.000 A 
ATOM     16  C   UNL     1       6.014   4.929  18.802  0.00  0.00    +0.000 A 
ENDBRANCH  10  11
ENDBRANCH   8  10
TORSDOF 2
ENDMDL
MODEL 5
REMARK VINA RESULT:      -6.6      1.679      2.174
REMARK  Name = 
REMARK  2 active torsions:
REMARK  status: ('A' for Active; 'I' for Inactive)
REMARK    1  A    between atoms: N_8  and  C_9
REMARK    2  A    between atoms: C_9  and  C_10
REMARK                            x       y       z     vdW  Elec       q    Type
REMARK                         _______ _______ _______ _____ _____    ______ ____
ROOT
ATOM      1  C   UNL     1       6.067   3.950  14.217  0.00  0.00    +0.000 C 
ATOM      2  C   UNL     1       5.921   4.337  15.498  0.00  0.00    +0.000 C 
ATOM      3  C   UNL     1       6.943   5.187  16.085  0.00  0.00    +0.000 C 
ATOM      4  C   UNL     1       6.918   5.703  17.318  0.00  0.00    +0.000 C 
ATOM      5  S   UNL     1       5.576   5.400  18.355  0.00  0.00    +0.000 S 
ATOM      6  O   UNL     1       4.625   6.476  18.162  0.00  0.00    +0.000 OA
ATOM      7  O   UNL     1       6.114   5.109  19.667  0.00  0.00    +0.000 OA
ATOM      8  N   UNL     1       4.886   4.014  17.742  0.00  0.00    +0.000 NA
ATOM      9  C   UNL     1       4.713   3.875  16.298  0.00  0.00    +0.000 C 
ENDROOT
BRANCH   8  10
ATOM     10  C   UNL     1       4.551   2.876  18.598  0.00  0.00    +0.000 C 
BRANCH  10  11
ATOM     11  C   UNL     1       3.292   2.985  19.425  0.00  0.00    +0.000 A 
ATOM     12  C   UNL     1       3.278   2.684  20.795  0.00  0.00    +0.000 A 
ATOM     13  C   UNL     1       2.115   2.863  21.552  0.00  0.00    +0.000 A 
ATOM     14  C   UNL     1       0.950   3.338  20.947  0.00  0.00    +0.000 A 
ATOM     15  C   UNL     1       0.945   3.626  19.588  0.00  0.00    +0.000 A 
ATOM     16  C   UNL     1       2.109   3.453  18.833  0.00  0.00    +0.000 A 
ENDBRANCH  10  11
ENDBRANCH   8  10
TORSDOF 2
ENDMDL
MODEL 6
REMARK VINA RESULT:      -6.6      2.973      5.571
REMARK  Name = 
REMARK  2 active torsions:
REMARK  status: ('A' for Active; 'I' for Inactive)
REMARK    1  A    between atoms: N_8  and  C_9
REMARK    2  A    between atoms: C_9  and  C_10
REMARK                            x       y       z     vdW  Elec       q    Type
REMARK                         _______ _______ _______ _____ _____    ______ ____
ROOT
ATOM      1  C   UNL     1       1.316   5.994  20.883  0.00  0.00    +0.000 C 
ATOM      2  C   UNL     1       1.800   5.016  20.094  0.00  0.00    +0.000 C 
ATOM      3  C   UNL     1       1.123   3.731  20.090  0.00  0.00    +0.000 C 
ATOM      4  C   UNL     1       1.440   2.682  19.324  0.00  0.00    +0.000 C 
ATOM      5  S   UNL     1       2.738   2.795  18.198  0.00  0.00    +0.000 S 
ATOM      6  O   UNL     1       2.179   3.225  16.932  0.00  0.00    +0.000 OA
ATOM      7  O   UNL     1       3.492   1.563  18.298  0.00  0.00    +0.000 OA
ATOM      8  N   UNL     1       3.677   4.044  18.774  0.00  0.00    +0.000 NA
ATOM      9  C   UNL     1       3.034   5.269  19.242  0.00  0.00    +0.000 C 
ENDROOT
BRANCH   8  10
ATOM     10  C   UNL     1       5.124   3.909  18.936  0.00  0.00    +0.000 C 
BRANCH  10  11
ATOM     11  C   UNL     1       5.982   5.043  18.424  0.00  0.00    +0.000 A 
ATOM     12  C   UNL     1       5.648   5.760  17.266  0.00  0.00    +0.000 A 
ATOM     13  C   UNL     1       6.422   6.851  16.856  0.00  0.00    +0.000 A 
ATOM     14  C   UNL     1       7.543   7.233  17.594  0.00  0.00    +0.000 A 
ATOM     15  C   UNL     1       7.895   6.523  18.735  0.00  0.00    +0.000 A 
ATOM     16  C   UNL     1       7.118   5.436  19.148  0.00  0.00    +0.000 A 
ENDBRANCH  10  11
ENDBRANCH   8  10
TORSDOF 2
ENDMDL
MODEL 7
REMARK VINA RESULT:      -6.6      2.099      2.857
REMARK  Name = 
REMARK  2 active torsions:
REMARK  status: ('A' for Active; 'I' for Inactive)
REMARK    1  A    between atoms: N_8  and  C_9
REMARK    2  A    between atoms: C_9  and  C_10
REMARK                            x       y       z     vdW  Elec       q    Type
REMARK                         _______ _______ _______ _____ _____    ______ ____
ROOT
ATOM      1  C   UNL     1       3.409   7.784  17.781  0.00  0.00    +0.000 C 
ATOM      2  C   UNL     1       4.149   6.721  17.412  0.00  0.00    +0.000 C 
ATOM      3  C   UNL     1       4.806   6.752  16.117  0.00  0.00    +0.000 C 
ATOM      4  C   UNL     1       5.618   5.808  15.628  0.00  0.00    +0.000 C 
ATOM      5  S   UNL     1       5.988   4.415  16.570  0.00  0.00    +0.000 S 
ATOM      6  O   UNL     1       7.194   4.704  17.320  0.00  0.00    +0.000 OA
ATOM      7  O   UNL     1       5.920   3.274  15.681  0.00  0.00    +0.000 OA
ATOM      8  N   UNL     1       4.737   4.313  17.666  0.00  0.00    +0.000 NA
ATOM      9  C   UNL     1       4.273   5.523  18.340  0.00  0.00    +0.000 C 
ENDROOT
BRANCH   8  10
ATOM     10  C   UNL     1       4.009   3.065  17.890  0.00  0.00    +0.000 C 
BRANCH  10  11
ATOM     11  C   UNL     1       3.040   3.032  19.048  0.00  0.00    +0.000 A 
ATOM     12  C   UNL     1       1.668   3.270  18.873  0.00  0.00    +0.000 A 
ATOM     13  C   UNL     1       0.784   3.163  19.951  0.00  0.00    +0.000 A 
ATOM     14  C   UNL     1       1.259   2.824  21.219  0.00  0.00    +0.000 A 
ATOM     15  C   UNL     1       2.617   2.601  21.411  0.00  0.00    +0.000 A 
ATOM     16  C   UNL     1       3.501   2.703  20.332  0.00  0.00    +0.000 A 
ENDBRANCH  10  11
ENDBRANCH   8  10
TORSDOF 2
ENDMDL
MODEL 8
REMARK VINA RESULT:      -6.6      3.113      5.522
REMARK  Name = 
REMARK  2 active torsions:
REMARK  status: ('A' for Active; 'I' for Inactive)
REMARK    1  A    between atoms: N_8  and  C_9
REMARK    2  A    between atoms: C_9  and  C_10
REMARK                            x       y       z     vdW  Elec       q    Type
REMARK                         _______ _______ _______ _____ _____    ______ ____
ROOT
ATOM      1  C   UNL     1       1.837   6.617  20.534  0.00  0.00    +0.000 C 
ATOM      2  C   UNL     1       2.059   5.421  19.957  0.00  0.00    +0.000 C 
ATOM      3  C   UNL     1       2.092   4.241  20.803  0.00  0.00    +0.000 C 
ATOM      4  C   UNL     1       2.243   2.980  20.383  0.00  0.00    +0.000 C 
ATOM      5  S   UNL     1       2.388   2.642  18.700  0.00  0.00    +0.000 S 
ATOM      6  O   UNL     1       1.056   2.383  18.191  0.00  0.00    +0.000 OA
ATOM      7  O   UNL     1       3.443   1.662  18.556  0.00  0.00    +0.000 OA
ATOM      8  N   UNL     1       2.901   4.080  18.033  0.00  0.00    +0.000 NA
ATOM      9  C   UNL     1       2.276   5.331  18.455  0.00  0.00    +0.000 C 
ENDROOT
BRANCH   8  10
ATOM     10  C   UNL     1       4.042   4.142  17.120  0.00  0.00    +0.000 C 
BRANCH  10  11
ATOM     11  C   UNL     1       5.215   4.995  17.542  0.00  0.00    +0.000 A 
ATOM     12  C   UNL     1       5.958   4.712  18.698  0.00  0.00    +0.000 A 
ATOM     13  C   UNL     1       7.083   5.477  19.026  0.00  0.00    +0.000 A 
ATOM     14  C   UNL     1       7.475   6.536  18.206  0.00  0.00    +0.000 A 
ATOM     15  C   UNL     1       6.740   6.838  17.067  0.00  0.00    +0.000 A 
ATOM     16  C   UNL     1       5.619   6.070  16.736  0.00  0.00    +0.000 A 
ENDBRANCH  10  11
ENDBRANCH   8  10
TORSDOF 2
ENDMDL
MODEL 9
REMARK VINA RESULT:      -6.6      2.905      5.509
REMARK  Name = 
REMARK  2 active torsions:
REMARK  status: ('A' for Active; 'I' for Inactive)
REMARK    1  A    between atoms: N_8  and  C_9
REMARK    2  A    between atoms: C_9  and  C_10
REMARK                            x       y       z     vdW  Elec       q    Type
REMARK                         _______ _______ _______ _____ _____    ______ ____
ROOT
ATOM      1  C   UNL     1       1.665   6.859  20.778  0.00  0.00    +0.000 C 
ATOM      2  C   UNL     1       1.943   5.695  20.161  0.00  0.00    +0.000 C 
ATOM      3  C   UNL     1       1.225   4.503  20.577  0.00  0.00    +0.000 C 
ATOM      4  C   UNL     1       1.341   3.288  20.030  0.00  0.00    +0.000 C 
ATOM      5  S   UNL     1       2.395   3.041  18.690  0.00  0.00    +0.000 S 
ATOM      6  O   UNL     1       1.616   3.231  17.483  0.00  0.00    +0.000 OA
ATOM      7  O   UNL     1       3.102   1.802  18.931  0.00  0.00    +0.000 OA
ATOM      8  N   UNL     1       3.480   4.302  18.781  0.00  0.00    +0.000 NA
ATOM      9  C   UNL     1       2.994   5.650  19.063  0.00  0.00    +0.000 C 
ENDROOT
BRANCH   8  10
ATOM     10  C   UNL     1       4.924   4.082  18.702  0.00  0.00    +0.000 C 
BRANCH  10  11
ATOM     11  C   UNL     1       5.586   4.332  17.367  0.00  0.00    +0.000 A 
ATOM     12  C   UNL     1       6.946   4.657  17.264  0.00  0.00    +0.000 A 
ATOM     13  C   UNL     1       7.548   4.813  16.010  0.00  0.00    +0.000 A 
ATOM     14  C   UNL     1       6.797   4.651  14.846  0.00  0.00    +0.000 A 
ATOM     15  C   UNL     1       5.444   4.344  14.932  0.00  0.00    +0.000 A 
ATOM     16  C   UNL     1       4.844   4.184  16.185  0.00  0.00    +0.000 A 
ENDBRANCH  10  11
ENDBRANCH   8  10
TORSDOF 2
ENDMDL
