MODEL 1
REMARK VINA RESULT:      -8.0      0.000      0.000
REMARK  Name = 
REMARK  2 active torsions:
REMARK  status: ('A' for Active; 'I' for Inactive)
REMARK    1  A    between atoms: C_2  and  C_20
REMARK    2  A    between atoms: C_9  and  N_10
REMARK                            x       y       z     vdW  Elec       q    Type
REMARK                         _______ _______ _______ _____ _____    ______ ____
ROOT
ATOM      1  O   UNL     1      -0.215  10.214  23.515  0.00  0.00    +0.000 OA
ATOM      2  C   UNL     1      -0.530  10.869  22.531  0.00  0.00    +0.000 C 
ATOM      3  N   UNL     1      -0.268  10.601  21.207  0.00  0.00    +0.000 N 
ATOM      4  C   UNL     1       0.444   9.477  20.767  0.00  0.00    +0.000 A 
ATOM      5  C   UNL     1       0.973   9.498  19.479  0.00  0.00    +0.000 A 
ATOM      6  C   UNL     1       1.818   8.450  19.072  0.00  0.00    +0.000 A 
ATOM      7  C   UNL     1       2.477   8.445  17.835  0.00  0.00    +0.000 A 
ATOM      8  C   UNL     1       3.349   7.397  17.498  0.00  0.00    +0.000 A 
ATOM      9  C   UNL     1       3.578   6.311  18.355  0.00  0.00    +0.000 A 
ATOM     10  C   UNL     1       2.898   6.327  19.579  0.00  0.00    +0.000 A 
ATOM     11  C   UNL     1       2.042   7.381  19.945  0.00  0.00    +0.000 A 
ATOM     12  C   UNL     1       1.415   7.426  21.185  0.00  0.00    +0.000 A 
ATOM     13  N   UNL     1       0.636   8.445  21.602  0.00  0.00    +0.000 NA
ATOM     14  H   UNL     1      -0.470  11.316  20.527  0.00  0.00    +0.000 HD
ENDROOT
BRANCH   9  15
ATOM     15  N   UNL     1       4.445   5.291  18.029  0.00  0.00    +0.000 N 
ATOM     16  C   UNL     1       4.202   4.372  16.908  0.00  0.00    +0.000 C 
ATOM     17  C   UNL     1       5.441   4.342  15.979  0.00  0.00    +0.000 C 
ATOM     18  N   UNL     1       6.704   4.029  16.678  0.00  0.00    +0.000 NA
ATOM     19  C   UNL     1       6.891   4.975  17.796  0.00  0.00    +0.000 C 
ATOM     20  C   UNL     1       5.690   5.024  18.767  0.00  0.00    +0.000 C 
ATOM     21  H   UNL     1       7.478   4.133  16.023  0.00  0.00    +0.000 HD
ENDBRANCH   9  15
BRANCH   2  22
ATOM     22  C   UNL     1      -1.190  12.197  22.727  0.00  0.00    +0.000 C 
ATOM     23  C   UNL     1      -2.182  12.734  21.719  0.00  0.00    +0.000 C 
ATOM     24  C   UNL     1      -2.671  12.219  23.041  0.00  0.00    +0.000 C 
ENDBRANCH   2  22
TORSDOF 2
ENDMDL
MODEL 2
REMARK VINA RESULT:      -7.8      2.624      8.509
REMARK  Name = 
REMARK  2 active torsions:
REMARK  status: ('A' for Active; 'I' for Inactive)
REMARK    1  A    between atoms: C_2  and  C_20
REMARK    2  A    between atoms: C_9  and  N_10
REMARK                            x       y       z     vdW  Elec       q    Type
REMARK                         _______ _______ _______ _____ _____    ______ ____
ROOT
ATOM      1  O   UNL     1       4.745   3.294  17.351  0.00  0.00    +0.000 OA
ATOM      2  C   UNL     1       5.134   4.131  16.548  0.00  0.00    +0.000 C 
ATOM      3  N   UNL     1       4.899   5.487  16.547  0.00  0.00    +0.000 N 
ATOM      4  C   UNL     1       4.130   6.144  17.517  0.00  0.00    +0.000 A 
ATOM      5  C   UNL     1       3.646   7.416  17.220  0.00  0.00    +0.000 A 
ATOM      6  C   UNL     1       2.749   8.029  18.112  0.00  0.00    +0.000 A 
ATOM      7  C   UNL     1       2.132   9.258  17.842  0.00  0.00    +0.000 A 
ATOM      8  C   UNL     1       1.206   9.803  18.745  0.00  0.00    +0.000 A 
ATOM      9  C   UNL     1       0.878   9.170  19.953  0.00  0.00    +0.000 A 
ATOM     10  C   UNL     1       1.518   7.951  20.212  0.00  0.00    +0.000 A 
ATOM     11  C   UNL     1       2.427   7.376  19.307  0.00  0.00    +0.000 A 
ATOM     12  C   UNL     1       3.015   6.138  19.537  0.00  0.00    +0.000 A 
ATOM     13  N   UNL     1       3.844   5.522  18.670  0.00  0.00    +0.000 NA
ATOM     14  H   UNL     1       5.170   6.016  15.734  0.00  0.00    +0.000 HD
ENDROOT
BRANCH   9  15
ATOM     15  N   UNL     1      -0.041   9.699  20.831  0.00  0.00    +0.000 N 
ATOM     16  C   UNL     1      -0.558   8.950  21.986  0.00  0.00    +0.000 C 
ATOM     17  C   UNL     1      -0.374   9.787  23.275  0.00  0.00    +0.000 C 
ATOM     18  N   UNL     1      -0.959  11.141  23.197  0.00  0.00    +0.000 NA
ATOM     19  C   UNL     1      -0.413  11.842  22.018  0.00  0.00    +0.000 C 
ATOM     20  C   UNL     1      -0.594  11.057  20.699  0.00  0.00    +0.000 C 
ATOM     21  H   UNL     1      -0.705  11.659  24.037  0.00  0.00    +0.000 HD
ENDBRANCH   9  15
BRANCH   2  22
ATOM     22  C   UNL     1       5.873   3.676  15.330  0.00  0.00    +0.000 C 
ATOM     23  C   UNL     1       5.582   4.273  13.970  0.00  0.00    +0.000 C 
ATOM     24  C   UNL     1       6.850   4.636  14.686  0.00  0.00    +0.000 C 
ENDBRANCH   2  22
TORSDOF 2
ENDMDL
MODEL 3
REMARK VINA RESULT:      -7.7      1.279      1.721
REMARK  Name = 
REMARK  2 active torsions:
REMARK  status: ('A' for Active; 'I' for Inactive)
REMARK    1  A    between atoms: C_2  and  C_20
REMARK    2  A    between atoms: C_9  and  N_10
REMARK                            x       y       z     vdW  Elec       q    Type
REMARK                         _______ _______ _______ _____ _____    ______ ____
ROOT
ATOM      1  O   UNL     1      -0.653  11.256  23.411  0.00  0.00    +0.000 OA
ATOM      2  C   UNL     1      -0.895  11.882  22.388  0.00  0.00    +0.000 C 
ATOM      3  N   UNL     1      -0.614  11.532  21.086  0.00  0.00    +0.000 N 
ATOM      4  C   UNL     1       0.032  10.343  20.723  0.00  0.00    +0.000 A 
ATOM      5  C   UNL     1       0.598  10.266  19.453  0.00  0.00    +0.000 A 
ATOM      6  C   UNL     1       1.380   9.146  19.122  0.00  0.00    +0.000 A 
ATOM      7  C   UNL     1       2.072   9.036  17.907  0.00  0.00    +0.000 A 
ATOM      8  C   UNL     1       2.880   7.918  17.648  0.00  0.00    +0.000 A 
ATOM      9  C   UNL     1       3.011   6.861  18.562  0.00  0.00    +0.000 A 
ATOM     10  C   UNL     1       2.299   6.983  19.762  0.00  0.00    +0.000 A 
ATOM     11  C   UNL     1       1.507   8.108  20.051  0.00  0.00    +0.000 A 
ATOM     12  C   UNL     1       0.849   8.255  21.267  0.00  0.00    +0.000 A 
ATOM     13  N   UNL     1       0.130   9.343  21.611  0.00  0.00    +0.000 NA
ATOM     14  H   UNL     1      -0.748  12.225  20.368  0.00  0.00    +0.000 HD
ENDROOT
BRANCH   9  15
ATOM     15  N   UNL     1       3.815   5.772  18.311  0.00  0.00    +0.000 N 
ATOM     16  C   UNL     1       5.199   5.900  17.832  0.00  0.00    +0.000 C 
ATOM     17  C   UNL     1       6.148   5.098  18.755  0.00  0.00    +0.000 C 
ATOM     18  N   UNL     1       5.759   3.683  18.927  0.00  0.00    +0.000 NA
ATOM     19  C   UNL     1       4.362   3.615  19.401  0.00  0.00    +0.000 C 
ATOM     20  C   UNL     1       3.370   4.381  18.497  0.00  0.00    +0.000 C 
ATOM     21  H   UNL     1       6.366   3.256  19.626  0.00  0.00    +0.000 HD
ENDBRANCH   9  15
BRANCH   2  22
ATOM     22  C   UNL     1      -1.469  13.258  22.501  0.00  0.00    +0.000 C 
ATOM     23  C   UNL     1      -1.407  14.028  23.802  0.00  0.00    +0.000 C 
ATOM     24  C   UNL     1      -0.512  14.420  22.663  0.00  0.00    +0.000 C 
ENDBRANCH   2  22
TORSDOF 2
ENDMDL
MODEL 4
REMARK VINA RESULT:      -7.6      0.875      1.030
REMARK  Name = 
REMARK  2 active torsions:
REMARK  status: ('A' for Active; 'I' for Inactive)
REMARK    1  A    between atoms: C_2  and  C_20
REMARK    2  A    between atoms: C_9  and  N_10
REMARK                            x       y       z     vdW  Elec       q    Type
REMARK                         _______ _______ _______ _____ _____    ______ ____
ROOT
ATOM      1  O   UNL     1      -0.433  11.132  23.247  0.00  0.00    +0.000 OA
ATOM      2  C   UNL     1      -0.699  11.701  22.197  0.00  0.00    +0.000 C 
ATOM      3  N   UNL     1      -0.431  11.290  20.911  0.00  0.00    +0.000 N 
ATOM      4  C   UNL     1       0.230  10.094  20.598  0.00  0.00    +0.000 A 
ATOM      5  C   UNL     1       0.779   9.962  19.326  0.00  0.00    +0.000 A 
ATOM      6  C   UNL     1       1.575   8.839  19.040  0.00  0.00    +0.000 A 
ATOM      7  C   UNL     1       2.252   8.678  17.823  0.00  0.00    +0.000 A 
ATOM      8  C   UNL     1       3.075   7.561  17.609  0.00  0.00    +0.000 A 
ATOM      9  C   UNL     1       3.236   6.555  18.573  0.00  0.00    +0.000 A 
ATOM     10  C   UNL     1       2.538   6.726  19.775  0.00  0.00    +0.000 A 
ATOM     11  C   UNL     1       1.732   7.851  20.019  0.00  0.00    +0.000 A 
ATOM     12  C   UNL     1       1.089   8.050  21.235  0.00  0.00    +0.000 A 
ATOM     13  N   UNL     1       0.356   9.142  21.534  0.00  0.00    +0.000 NA
ATOM     14  H   UNL     1      -0.586  11.944  20.161  0.00  0.00    +0.000 HD
ENDROOT
BRANCH   9  15
ATOM     15  N   UNL     1       4.054   5.467  18.366  0.00  0.00    +0.000 N 
ATOM     16  C   UNL     1       3.776   4.448  17.343  0.00  0.00    +0.000 C 
ATOM     17  C   UNL     1       5.018   4.262  16.439  0.00  0.00    +0.000 C 
ATOM     18  N   UNL     1       6.259   3.964  17.183  0.00  0.00    +0.000 NA
ATOM     19  C   UNL     1       6.484   5.013  18.198  0.00  0.00    +0.000 C 
ATOM     20  C   UNL     1       5.279   5.219  19.143  0.00  0.00    +0.000 C 
ATOM     21  H   UNL     1       7.043   3.962  16.531  0.00  0.00    +0.000 HD
ENDBRANCH   9  15
BRANCH   2  22
ATOM     22  C   UNL     1      -1.294  13.072  22.249  0.00  0.00    +0.000 C 
ATOM     23  C   UNL     1      -1.437  13.815  23.559  0.00  0.00    +0.000 C 
ATOM     24  C   UNL     1      -0.382  14.234  22.578  0.00  0.00    +0.000 C 
ENDBRANCH   2  22
TORSDOF 2
ENDMDL
MODEL 5
REMARK VINA RESULT:      -7.5      1.231      1.626
REMARK  Name = 
REMARK  2 active torsions:
REMARK  status: ('A' for Active; 'I' for Inactive)
REMARK    1  A    between atoms: C_2  and  C_20
REMARK    2  A    between atoms: C_9  and  N_10
REMARK                            x       y       z     vdW  Elec       q    Type
REMARK                         _______ _______ _______ _____ _____    ______ ____
ROOT
ATOM      1  O   UNL     1      -0.527  11.245  23.251  0.00  0.00    +0.000 OA
ATOM      2  C   UNL     1      -0.789  11.821  22.204  0.00  0.00    +0.000 C 
ATOM      3  N   UNL     1      -0.513  11.420  20.916  0.00  0.00    +0.000 N 
ATOM      4  C   UNL     1       0.151  10.227  20.599  0.00  0.00    +0.000 A 
ATOM      5  C   UNL     1       0.707  10.104  19.328  0.00  0.00    +0.000 A 
ATOM      6  C   UNL     1       1.506   8.984  19.039  0.00  0.00    +0.000 A 
ATOM      7  C   UNL     1       2.189   8.832  17.825  0.00  0.00    +0.000 A 
ATOM      8  C   UNL     1       3.014   7.718  17.607  0.00  0.00    +0.000 A 
ATOM      9  C   UNL     1       3.171   6.705  18.564  0.00  0.00    +0.000 A 
ATOM     10  C   UNL     1       2.466   6.867  19.765  0.00  0.00    +0.000 A 
ATOM     11  C   UNL     1       1.657   7.990  20.012  0.00  0.00    +0.000 A 
ATOM     12  C   UNL     1       1.008   8.179  21.226  0.00  0.00    +0.000 A 
ATOM     13  N   UNL     1       0.273   9.268  21.529  0.00  0.00    +0.000 NA
ATOM     14  H   UNL     1      -0.665  12.079  20.170  0.00  0.00    +0.000 HD
ENDROOT
BRANCH   9  15
ATOM     15  N   UNL     1       3.991   5.619  18.354  0.00  0.00    +0.000 N 
ATOM     16  C   UNL     1       4.088   4.502  19.305  0.00  0.00    +0.000 C 
ATOM     17  C   UNL     1       3.842   3.164  18.567  0.00  0.00    +0.000 C 
ATOM     18  N   UNL     1       4.716   2.959  17.394  0.00  0.00    +0.000 NA
ATOM     19  C   UNL     1       4.584   4.112  16.480  0.00  0.00    +0.000 C 
ATOM     20  C   UNL     1       4.846   5.472  17.165  0.00  0.00    +0.000 C 
ATOM     21  H   UNL     1       4.421   2.115  16.905  0.00  0.00    +0.000 HD
ENDBRANCH   9  15
BRANCH   2  22
ATOM     22  C   UNL     1      -1.385  13.192  22.262  0.00  0.00    +0.000 C 
ATOM     23  C   UNL     1      -1.471  13.954  23.566  0.00  0.00    +0.000 C 
ATOM     24  C   UNL     1      -0.463  14.361  22.532  0.00  0.00    +0.000 C 
ENDBRANCH   2  22
TORSDOF 2
ENDMDL
MODEL 6
REMARK VINA RESULT:      -7.3      1.418      1.962
REMARK  Name = 
REMARK  2 active torsions:
REMARK  status: ('A' for Active; 'I' for Inactive)
REMARK    1  A    between atoms: C_2  and  C_20
REMARK    2  A    between atoms: C_9  and  N_10
REMARK                            x       y       z     vdW  Elec       q    Type
REMARK                         _______ _______ _______ _____ _____    ______ ____
ROOT
ATOM      1  O   UNL     1      -0.048  10.724  23.075  0.00  0.00    +0.000 OA
ATOM      2  C   UNL     1      -0.084  11.350  22.025  0.00  0.00    +0.000 C 
ATOM      3  N   UNL     1       0.250  10.918  20.761  0.00  0.00    +0.000 N 
ATOM      4  C   UNL     1       0.714   9.626  20.479  0.00  0.00    +0.000 A 
ATOM      5  C   UNL     1       1.372   9.416  19.270  0.00  0.00    +0.000 A 
ATOM      6  C   UNL     1       1.979   8.170  19.032  0.00  0.00    +0.000 A 
ATOM      7  C   UNL     1       2.750   7.907  17.891  0.00  0.00    +0.000 A 
ATOM      8  C   UNL     1       3.375   6.661  17.727  0.00  0.00    +0.000 A 
ATOM      9  C   UNL     1       3.239   5.627  18.664  0.00  0.00    +0.000 A 
ATOM     10  C   UNL     1       2.451   5.904  19.789  0.00  0.00    +0.000 A 
ATOM     11  C   UNL     1       1.840   7.155  19.984  0.00  0.00    +0.000 A 
ATOM     12  C   UNL     1       1.108   7.448  21.129  0.00  0.00    +0.000 A 
ATOM     13  N   UNL     1       0.557   8.652  21.387  0.00  0.00    +0.000 NA
ATOM     14  H   UNL     1       0.303  11.602  20.023  0.00  0.00    +0.000 HD
ENDROOT
BRANCH   9  15
ATOM     15  N   UNL     1       3.864   4.410  18.507  0.00  0.00    +0.000 N 
ATOM     16  C   UNL     1       4.826   3.881  19.485  0.00  0.00    +0.000 C 
ATOM     17  C   UNL     1       4.406   2.454  19.913  0.00  0.00    +0.000 C 
ATOM     18  N   UNL     1       4.209   1.524  18.782  0.00  0.00    +0.000 NA
ATOM     19  C   UNL     1       3.242   2.109  17.832  0.00  0.00    +0.000 C 
ATOM     20  C   UNL     1       3.631   3.525  17.354  0.00  0.00    +0.000 C 
ATOM     21  H   UNL     1       3.834   0.646  19.138  0.00  0.00    +0.000 HD
ENDBRANCH   9  15
BRANCH   2  22
ATOM     22  C   UNL     1      -0.422  12.807  22.062  0.00  0.00    +0.000 C 
ATOM     23  C   UNL     1      -1.759  13.313  21.567  0.00  0.00    +0.000 C 
ATOM     24  C   UNL     1      -1.480  13.270  23.040  0.00  0.00    +0.000 C 
ENDBRANCH   2  22
TORSDOF 2
ENDMDL
MODEL 7
REMARK VINA RESULT:      -7.1      1.719      2.362
REMARK  Name = 
REMARK  2 active torsions:
REMARK  status: ('A' for Active; 'I' for Inactive)
REMARK    1  A    between atoms: C_2  and  C_20
REMARK    2  A    between atoms: C_9  and  N_10
REMARK                            x       y       z     vdW  Elec       q    Type
REMARK                         _______ _______ _______ _____ _____    ______ ____
ROOT
ATOM      1  O   UNL     1      -1.000  11.885  18.042  0.00  0.00    +0.000 OA
ATOM      2  C   UNL     1      -1.150  11.702  19.242  0.00  0.00    +0.000 C 
ATOM      3  N   UNL     1      -0.490  10.810  20.058  0.00  0.00    +0.000 N 
ATOM      4  C   UNL     1       0.500   9.927  19.606  0.00  0.00    +0.000 A 
ATOM      5  C   UNL     1       0.819   8.834  20.406  0.00  0.00    +0.000 A 
ATOM      6  C   UNL     1       1.696   7.855  19.906  0.00  0.00    +0.000 A 
ATOM      7  C   UNL     1       1.988   6.673  20.599  0.00  0.00    +0.000 A 
ATOM      8  C   UNL     1       2.832   5.705  20.031  0.00  0.00    +0.000 A 
ATOM      9  C   UNL     1       3.436   5.883  18.778  0.00  0.00    +0.000 A 
ATOM     10  C   UNL     1       3.144   7.079  18.109  0.00  0.00    +0.000 A 
ATOM     11  C   UNL     1       2.280   8.047  18.649  0.00  0.00    +0.000 A 
ATOM     12  C   UNL     1       1.944   9.205  17.958  0.00  0.00    +0.000 A 
ATOM     13  N   UNL     1       1.072  10.129  18.410  0.00  0.00    +0.000 NA
ATOM     14  H   UNL     1      -0.834  10.680  20.996  0.00  0.00    +0.000 HD
ENDROOT
BRANCH   9  15
ATOM     15  N   UNL     1       4.253   4.927  18.216  0.00  0.00    +0.000 N 
ATOM     16  C   UNL     1       3.903   4.210  16.982  0.00  0.00    +0.000 C 
ATOM     17  C   UNL     1       5.061   4.328  15.962  0.00  0.00    +0.000 C 
ATOM     18  N   UNL     1       6.370   3.894  16.492  0.00  0.00    +0.000 NA
ATOM     19  C   UNL     1       6.666   4.640  17.732  0.00  0.00    +0.000 C 
ATOM     20  C   UNL     1       5.548   4.533  18.794  0.00  0.00    +0.000 C 
ATOM     21  H   UNL     1       7.091   4.102  15.802  0.00  0.00    +0.000 HD
ENDBRANCH   9  15
BRANCH   2  22
ATOM     22  C   UNL     1      -2.247  12.427  19.954  0.00  0.00    +0.000 C 
ATOM     23  C   UNL     1      -2.224  12.601  21.457  0.00  0.00    +0.000 C 
ATOM     24  C   UNL     1      -1.931  13.774  20.568  0.00  0.00    +0.000 C 
ENDBRANCH   2  22
TORSDOF 2
ENDMDL
MODEL 8
REMARK VINA RESULT:      -7.1      1.814      2.382
REMARK  Name = 
REMARK  2 active torsions:
REMARK  status: ('A' for Active; 'I' for Inactive)
REMARK    1  A    between atoms: C_2  and  C_20
REMARK    2  A    between atoms: C_9  and  N_10
REMARK                            x       y       z     vdW  Elec       q    Type
REMARK                         _______ _______ _______ _____ _____    ______ ____
ROOT
ATOM      1  O   UNL     1       0.298  11.308  22.287  0.00  0.00    +0.000 OA
ATOM      2  C   UNL     1       0.252  11.807  21.171  0.00  0.00    +0.000 C 
ATOM      3  N   UNL     1       0.556  11.223  19.962  0.00  0.00    +0.000 N 
ATOM      4  C   UNL     1       0.992   9.898  19.826  0.00  0.00    +0.000 A 
ATOM      5  C   UNL     1       1.624   9.534  18.640  0.00  0.00    +0.000 A 
ATOM      6  C   UNL     1       2.204   8.258  18.540  0.00  0.00    +0.000 A 
ATOM      7  C   UNL     1       2.949   7.848  17.426  0.00  0.00    +0.000 A 
ATOM      8  C   UNL     1       3.549   6.579  17.399  0.00  0.00    +0.000 A 
ATOM      9  C   UNL     1       3.413   5.665  18.454  0.00  0.00    +0.000 A 
ATOM     10  C   UNL     1       2.651   6.087  19.551  0.00  0.00    +0.000 A 
ATOM     11  C   UNL     1       2.065   7.364  19.608  0.00  0.00    +0.000 A 
ATOM     12  C   UNL     1       1.361   7.804  20.722  0.00  0.00    +0.000 A 
ATOM     13  N   UNL     1       0.835   9.040  20.845  0.00  0.00    +0.000 NA
ATOM     14  H   UNL     1       0.607  11.814  19.148  0.00  0.00    +0.000 HD
ENDROOT
BRANCH   9  15
ATOM     15  N   UNL     1       4.014   4.426  18.432  0.00  0.00    +0.000 N 
ATOM     16  C   UNL     1       4.893   3.951  19.510  0.00  0.00    +0.000 C 
ATOM     17  C   UNL     1       4.405   2.570  20.012  0.00  0.00    +0.000 C 
ATOM     18  N   UNL     1       4.261   1.562  18.942  0.00  0.00    +0.000 NA
ATOM     19  C   UNL     1       3.377   2.095  17.885  0.00  0.00    +0.000 C 
ATOM     20  C   UNL     1       3.837   3.463  17.333  0.00  0.00    +0.000 C 
ATOM     21  H   UNL     1       3.839   0.722  19.334  0.00  0.00    +0.000 HD
ENDBRANCH   9  15
BRANCH   2  22
ATOM     22  C   UNL     1      -0.060  13.264  21.042  0.00  0.00    +0.000 C 
ATOM     23  C   UNL     1       0.074  14.201  22.222  0.00  0.00    +0.000 C 
ATOM     24  C   UNL     1       1.087  14.249  21.116  0.00  0.00    +0.000 C 
ENDBRANCH   2  22
TORSDOF 2
ENDMDL
MODEL 9
REMARK VINA RESULT:      -7.1      2.481      8.727
REMARK  Name = 
REMARK  2 active torsions:
REMARK  status: ('A' for Active; 'I' for Inactive)
REMARK    1  A    between atoms: C_2  and  C_20
REMARK    2  A    between atoms: C_9  and  N_10
REMARK                            x       y       z     vdW  Elec       q    Type
REMARK                         _______ _______ _______ _____ _____    ______ ____
ROOT
ATOM      1  O   UNL     1       5.034   6.812  16.064  0.00  0.00    +0.000 OA
ATOM      2  C   UNL     1       4.809   5.871  16.811  0.00  0.00    +0.000 C 
ATOM      3  N   UNL     1       3.901   5.798  17.843  0.00  0.00    +0.000 N 
ATOM      4  C   UNL     1       3.060   6.855  18.215  0.00  0.00    +0.000 A 
ATOM      5  C   UNL     1       2.473   6.814  19.477  0.00  0.00    +0.000 A 
ATOM      6  C   UNL     1       1.750   7.931  19.930  0.00  0.00    +0.000 A 
ATOM      7  C   UNL     1       1.218   8.018  21.223  0.00  0.00    +0.000 A 
ATOM      8  C   UNL     1       0.547   9.178  21.641  0.00  0.00    +0.000 A 
ATOM      9  C   UNL     1       0.355  10.277  20.791  0.00  0.00    +0.000 A 
ATOM     10  C   UNL     1       0.880  10.165  19.497  0.00  0.00    +0.000 A 
ATOM     11  C   UNL     1       1.578   9.022  19.070  0.00  0.00    +0.000 A 
ATOM     12  C   UNL     1       2.151   8.936  17.806  0.00  0.00    +0.000 A 
ATOM     13  N   UNL     1       2.881   7.887  17.377  0.00  0.00    +0.000 NA
ATOM     14  H   UNL     1       3.941   5.000  18.457  0.00  0.00    +0.000 HD
ENDROOT
BRANCH   9  15
ATOM     15  N   UNL     1      -0.292  11.420  21.206  0.00  0.00    +0.000 N 
ATOM     16  C   UNL     1      -0.563  12.550  20.307  0.00  0.00    +0.000 C 
ATOM     17  C   UNL     1      -2.067  12.911  20.358  0.00  0.00    +0.000 C 
ATOM     18  N   UNL     1      -2.574  13.166  21.722  0.00  0.00    +0.000 NA
ATOM     19  C   UNL     1      -2.268  12.004  22.582  0.00  0.00    +0.000 C 
ATOM     20  C   UNL     1      -0.772  11.620  22.584  0.00  0.00    +0.000 C 
ATOM     21  H   UNL     1      -3.585  13.290  21.681  0.00  0.00    +0.000 HD
ENDBRANCH   9  15
BRANCH   2  22
ATOM     22  C   UNL     1       5.668   4.650  16.716  0.00  0.00    +0.000 C 
ATOM     23  C   UNL     1       6.861   4.603  15.786  0.00  0.00    +0.000 C 
ATOM     24  C   UNL     1       7.076   4.724  17.267  0.00  0.00    +0.000 C 
ENDBRANCH   2  22
TORSDOF 2
ENDMDL
