MODEL 1
REMARK VINA RESULT:      -9.3      0.000      0.000
REMARK  Name = 
REMARK  6 active torsions:
REMARK  status: ('A' for Active; 'I' for Inactive)
REMARK    1  A    between atoms: C_1  and  C_21
REMARK    2  A    between atoms: C_2  and  C_3
REMARK    3  A    between atoms: C_7  and  O_8
REMARK    4  A    between atoms: O_8  and  C_9
REMARK    5  A    between atoms: C_9  and  C_10
REMARK    6  A    between atoms: C_10  and  C_11
REMARK                            x       y       z     vdW  Elec       q    Type
REMARK                         _______ _______ _______ _____ _____    ______ ____
ROOT
ATOM      1  C   UNL     1       7.786   7.324  17.867  0.00  0.00    +0.000 A 
ATOM      2  C   UNL     1       8.083   6.477  18.930  0.00  0.00    +0.000 A 
ATOM      3  N   UNL     1       7.860   5.139  18.929  0.00  0.00    +0.000 NA
ATOM      4  C   UNL     1       7.317   4.623  17.801  0.00  0.00    +0.000 A 
ATOM      5  C   UNL     1       7.005   5.365  16.669  0.00  0.00    +0.000 A 
ATOM      6  C   UNL     1       7.244   6.739  16.714  0.00  0.00    +0.000 A 
ENDROOT
BRANCH   1   8
ATOM      7  C   UNL     1       8.930   9.293  18.861  0.00  0.00    +0.000 C 
ATOM      8  C   UNL     1       8.090   8.761  17.955  0.00  0.00    +0.000 C 
BRANCH   7   9
ATOM      9  C   UNL     1       9.243  10.727  18.974  0.00  0.00    +0.000 A 
ATOM     10  C   UNL     1       8.996  11.638  17.946  0.00  0.00    +0.000 A 
ATOM     11  C   UNL     1       9.291  12.976  18.159  0.00  0.00    +0.000 A 
ATOM     12  N   UNL     1       9.798  13.461  19.312  0.00  0.00    +0.000 NA
ATOM     13  C   UNL     1      10.012  12.568  20.299  0.00  0.00    +0.000 A 
ATOM     14  C   UNL     1       9.748  11.212  20.182  0.00  0.00    +0.000 A 
ENDBRANCH   7   9
ENDBRANCH   1   8
BRANCH   5  15
ATOM     15  O   UNL     1       6.453   4.690  15.618  0.00  0.00    +0.000 OA
BRANCH  15  16
ATOM     16  C   UNL     1       5.535   3.644  15.962  0.00  0.00    +0.000 C 
BRANCH  16  17
ATOM     17  C   UNL     1       4.261   4.274  16.526  0.00  0.00    +0.000 C 
BRANCH  17  18
ATOM     18  C   UNL     1       3.574   3.375  17.504  0.00  0.00    +0.000 A 
ATOM     19  C   UNL     1       3.568   1.993  17.473  0.00  0.00    +0.000 A 
ATOM     20  N   UNL     1       2.811   1.542  18.520  0.00  0.00    +0.000 N 
ATOM     21  C   UNL     1       2.309   2.602  19.236  0.00  0.00    +0.000 A 
ATOM     22  C   UNL     1       1.478   2.614  20.363  0.00  0.00    +0.000 A 
ATOM     23  C   UNL     1       1.124   3.857  20.896  0.00  0.00    +0.000 A 
ATOM     24  C   UNL     1       1.591   5.038  20.325  0.00  0.00    +0.000 A 
ATOM     25  C   UNL     1       2.420   5.009  19.197  0.00  0.00    +0.000 A 
ATOM     26  C   UNL     1       2.785   3.768  18.634  0.00  0.00    +0.000 A 
ATOM     27  H   UNL     1       2.634   0.571  18.735  0.00  0.00    +0.000 HD
ENDBRANCH  17  18
ENDBRANCH  16  17
ENDBRANCH  15  16
ENDBRANCH   5  15
TORSDOF 6
ENDMDL
MODEL 2
REMARK VINA RESULT:      -9.1      1.817      2.466
REMARK  Name = 
REMARK  6 active torsions:
REMARK  status: ('A' for Active; 'I' for Inactive)
REMARK    1  A    between atoms: C_1  and  C_21
REMARK    2  A    between atoms: C_2  and  C_3
REMARK    3  A    between atoms: C_7  and  O_8
REMARK    4  A    between atoms: O_8  and  C_9
REMARK    5  A    between atoms: C_9  and  C_10
REMARK    6  A    between atoms: C_10  and  C_11
REMARK                            x       y       z     vdW  Elec       q    Type
REMARK                         _______ _______ _______ _____ _____    ______ ____
ROOT
ATOM      1  C   UNL     1       7.553   7.460  17.846  0.00  0.00    +0.000 A 
ATOM      2  C   UNL     1       8.116   6.583  18.767  0.00  0.00    +0.000 A 
ATOM      3  N   UNL     1       7.684   5.315  18.981  0.00  0.00    +0.000 NA
ATOM      4  C   UNL     1       6.638   4.903  18.226  0.00  0.00    +0.000 A 
ATOM      5  C   UNL     1       6.015   5.679  17.257  0.00  0.00    +0.000 A 
ATOM      6  C   UNL     1       6.486   6.980  17.074  0.00  0.00    +0.000 A 
ENDROOT
BRANCH   1   8
ATOM      7  C   UNL     1       8.745   9.490  18.640  0.00  0.00    +0.000 C 
ATOM      8  C   UNL     1       8.111   8.810  17.669  0.00  0.00    +0.000 C 
BRANCH   7   9
ATOM      9  C   UNL     1       9.302  10.844  18.490  0.00  0.00    +0.000 A 
ATOM     10  C   UNL     1       8.629  11.869  17.824  0.00  0.00    +0.000 A 
ATOM     11  C   UNL     1       9.219  13.123  17.765  0.00  0.00    +0.000 A 
ATOM     12  N   UNL     1      10.410  13.421  18.324  0.00  0.00    +0.000 NA
ATOM     13  C   UNL     1      11.036  12.423  18.979  0.00  0.00    +0.000 A 
ATOM     14  C   UNL     1      10.527  11.139  19.093  0.00  0.00    +0.000 A 
ENDBRANCH   7   9
ENDBRANCH   1   8
BRANCH   5  15
ATOM     15  O   UNL     1       4.966   5.115  16.590  0.00  0.00    +0.000 OA
BRANCH  15  16
ATOM     16  C   UNL     1       4.500   3.862  17.110  0.00  0.00    +0.000 C 
BRANCH  16  17
ATOM     17  C   UNL     1       3.004   3.975  17.401  0.00  0.00    +0.000 C 
BRANCH  17  18
ATOM     18  C   UNL     1       2.727   4.825  18.599  0.00  0.00    +0.000 A 
ATOM     19  C   UNL     1       2.714   4.399  19.913  0.00  0.00    +0.000 A 
ATOM     20  N   UNL     1       2.395   5.465  20.710  0.00  0.00    +0.000 N 
ATOM     21  C   UNL     1       2.189   6.587  19.943  0.00  0.00    +0.000 A 
ATOM     22  C   UNL     1       1.829   7.885  20.326  0.00  0.00    +0.000 A 
ATOM     23  C   UNL     1       1.692   8.844  19.319  0.00  0.00    +0.000 A 
ATOM     24  C   UNL     1       1.914   8.516  17.984  0.00  0.00    +0.000 A 
ATOM     25  C   UNL     1       2.270   7.212  17.618  0.00  0.00    +0.000 A 
ATOM     26  C   UNL     1       2.407   6.223  18.614  0.00  0.00    +0.000 A 
ATOM     27  H   UNL     1       2.313   5.437  21.716  0.00  0.00    +0.000 HD
ENDBRANCH  17  18
ENDBRANCH  16  17
ENDBRANCH  15  16
ENDBRANCH   5  15
TORSDOF 6
ENDMDL
MODEL 3
REMARK VINA RESULT:      -8.6      1.041      1.603
REMARK  Name = 
REMARK  6 active torsions:
REMARK  status: ('A' for Active; 'I' for Inactive)
REMARK    1  A    between atoms: C_1  and  C_21
REMARK    2  A    between atoms: C_2  and  C_3
REMARK    3  A    between atoms: C_7  and  O_8
REMARK    4  A    between atoms: O_8  and  C_9
REMARK    5  A    between atoms: C_9  and  C_10
REMARK    6  A    between atoms: C_10  and  C_11
REMARK                            x       y       z     vdW  Elec       q    Type
REMARK                         _______ _______ _______ _____ _____    ______ ____
ROOT
ATOM      1  C   UNL     1       8.090   7.318  18.469  0.00  0.00    +0.000 A 
ATOM      2  C   UNL     1       8.225   6.267  19.371  0.00  0.00    +0.000 A 
ATOM      3  N   UNL     1       7.768   5.009  19.154  0.00  0.00    +0.000 NA
ATOM      4  C   UNL     1       7.150   4.792  17.968  0.00  0.00    +0.000 A 
ATOM      5  C   UNL     1       6.983   5.755  16.982  0.00  0.00    +0.000 A 
ATOM      6  C   UNL     1       7.462   7.038  17.248  0.00  0.00    +0.000 A 
ENDROOT
BRANCH   1   8
ATOM      7  C   UNL     1       8.540   9.711  17.973  0.00  0.00    +0.000 C 
ATOM      8  C   UNL     1       8.643   8.644  18.786  0.00  0.00    +0.000 C 
BRANCH   7   9
ATOM      9  C   UNL     1       9.093  11.044  18.263  0.00  0.00    +0.000 A 
ATOM     10  C   UNL     1      10.235  11.235  19.042  0.00  0.00    +0.000 A 
ATOM     11  C   UNL     1      10.702  12.527  19.230  0.00  0.00    +0.000 A 
ATOM     12  N   UNL     1      10.122  13.623  18.696  0.00  0.00    +0.000 NA
ATOM     13  C   UNL     1       9.030  13.415  17.932  0.00  0.00    +0.000 A 
ATOM     14  C   UNL     1       8.490  12.163  17.685  0.00  0.00    +0.000 A 
ENDBRANCH   7   9
ENDBRANCH   1   8
BRANCH   5  15
ATOM     15  O   UNL     1       6.328   5.373  15.846  0.00  0.00    +0.000 OA
BRANCH  15  16
ATOM     16  C   UNL     1       5.898   4.005  15.806  0.00  0.00    +0.000 C 
BRANCH  16  17
ATOM     17  C   UNL     1       4.371   3.970  15.745  0.00  0.00    +0.000 C 
BRANCH  17  18
ATOM     18  C   UNL     1       3.756   3.874  17.104  0.00  0.00    +0.000 A 
ATOM     19  C   UNL     1       3.508   2.709  17.804  0.00  0.00    +0.000 A 
ATOM     20  N   UNL     1       2.915   3.037  18.993  0.00  0.00    +0.000 N 
ATOM     21  C   UNL     1       2.758   4.400  19.086  0.00  0.00    +0.000 A 
ATOM     22  C   UNL     1       2.188   5.172  20.106  0.00  0.00    +0.000 A 
ATOM     23  C   UNL     1       2.167   6.559  19.934  0.00  0.00    +0.000 A 
ATOM     24  C   UNL     1       2.702   7.146  18.790  0.00  0.00    +0.000 A 
ATOM     25  C   UNL     1       3.266   6.359  17.779  0.00  0.00    +0.000 A 
ATOM     26  C   UNL     1       3.292   4.956  17.923  0.00  0.00    +0.000 A 
ATOM     27  H   UNL     1       2.624   2.378  19.700  0.00  0.00    +0.000 HD
ENDBRANCH  17  18
ENDBRANCH  16  17
ENDBRANCH  15  16
ENDBRANCH   5  15
TORSDOF 6
ENDMDL
MODEL 4
REMARK VINA RESULT:      -8.4      1.480      2.272
REMARK  Name = 
REMARK  6 active torsions:
REMARK  status: ('A' for Active; 'I' for Inactive)
REMARK    1  A    between atoms: C_1  and  C_21
REMARK    2  A    between atoms: C_2  and  C_3
REMARK    3  A    between atoms: C_7  and  O_8
REMARK    4  A    between atoms: O_8  and  C_9
REMARK    5  A    between atoms: C_9  and  C_10
REMARK    6  A    between atoms: C_10  and  C_11
REMARK                            x       y       z     vdW  Elec       q    Type
REMARK                         _______ _______ _______ _____ _____    ______ ____
ROOT
ATOM      1  C   UNL     1       8.039   7.176  18.495  0.00  0.00    +0.000 A 
ATOM      2  C   UNL     1       8.256   5.961  19.136  0.00  0.00    +0.000 A 
ATOM      3  N   UNL     1       7.625   4.803  18.817  0.00  0.00    +0.000 NA
ATOM      4  C   UNL     1       6.734   4.868  17.799  0.00  0.00    +0.000 A 
ATOM      5  C   UNL     1       6.456   6.016  17.070  0.00  0.00    +0.000 A 
ATOM      6  C   UNL     1       7.123   7.186  17.434  0.00  0.00    +0.000 A 
ENDROOT
BRANCH   1   8
ATOM      7  C   UNL     1       8.583   9.598  18.383  0.00  0.00    +0.000 C 
ATOM      8  C   UNL     1       8.794   8.373  18.897  0.00  0.00    +0.000 C 
BRANCH   7   9
ATOM      9  C   UNL     1       9.331  10.808  18.761  0.00  0.00    +0.000 A 
ATOM     10  C   UNL     1       9.825  11.019  20.050  0.00  0.00    +0.000 A 
ATOM     11  C   UNL     1      10.550  12.174  20.302  0.00  0.00    +0.000 A 
ATOM     12  N   UNL     1      10.819  13.113  19.371  0.00  0.00    +0.000 NA
ATOM     13  C   UNL     1      10.349  12.881  18.128  0.00  0.00    +0.000 A 
ATOM     14  C   UNL     1       9.617  11.758  17.778  0.00  0.00    +0.000 A 
ENDBRANCH   7   9
ENDBRANCH   1   8
BRANCH   5  15
ATOM     15  O   UNL     1       5.523   5.912  16.079  0.00  0.00    +0.000 OA
BRANCH  15  16
ATOM     16  C   UNL     1       4.215   5.496  16.497  0.00  0.00    +0.000 C 
BRANCH  16  17
ATOM     17  C   UNL     1       3.543   6.653  17.235  0.00  0.00    +0.000 C 
BRANCH  17  18
ATOM     18  C   UNL     1       2.854   6.199  18.482  0.00  0.00    +0.000 A 
ATOM     19  C   UNL     1       2.760   6.909  19.664  0.00  0.00    +0.000 A 
ATOM     20  N   UNL     1       2.077   6.146  20.572  0.00  0.00    +0.000 N 
ATOM     21  C   UNL     1       1.727   4.940  20.013  0.00  0.00    +0.000 A 
ATOM     22  C   UNL     1       1.044   3.853  20.574  0.00  0.00    +0.000 A 
ATOM     23  C   UNL     1       0.818   2.740  19.760  0.00  0.00    +0.000 A 
ATOM     24  C   UNL     1       1.252   2.722  18.436  0.00  0.00    +0.000 A 
ATOM     25  C   UNL     1       1.936   3.816  17.892  0.00  0.00    +0.000 A 
ATOM     26  C   UNL     1       2.185   4.949  18.695  0.00  0.00    +0.000 A 
ATOM     27  H   UNL     1       1.865   6.420  21.521  0.00  0.00    +0.000 HD
ENDBRANCH  17  18
ENDBRANCH  16  17
ENDBRANCH  15  16
ENDBRANCH   5  15
TORSDOF 6
ENDMDL
MODEL 5
REMARK VINA RESULT:      -8.4      1.313      1.924
REMARK  Name = 
REMARK  6 active torsions:
REMARK  status: ('A' for Active; 'I' for Inactive)
REMARK    1  A    between atoms: C_1  and  C_21
REMARK    2  A    between atoms: C_2  and  C_3
REMARK    3  A    between atoms: C_7  and  O_8
REMARK    4  A    between atoms: O_8  and  C_9
REMARK    5  A    between atoms: C_9  and  C_10
REMARK    6  A    between atoms: C_10  and  C_11
REMARK                            x       y       z     vdW  Elec       q    Type
REMARK                         _______ _______ _______ _____ _____    ______ ____
ROOT
ATOM      1  C   UNL     1       8.060   7.231  18.378  0.00  0.00    +0.000 A 
ATOM      2  C   UNL     1       8.261   6.196  19.285  0.00  0.00    +0.000 A 
ATOM      3  N   UNL     1       7.693   4.969  19.184  0.00  0.00    +0.000 NA
ATOM      4  C   UNL     1       6.887   4.767  18.114  0.00  0.00    +0.000 A 
ATOM      5  C   UNL     1       6.636   5.715  17.131  0.00  0.00    +0.000 A 
ATOM      6  C   UNL     1       7.235   6.967  17.276  0.00  0.00    +0.000 A 
ENDROOT
BRANCH   1   8
ATOM      7  C   UNL     1       8.278   9.689  18.081  0.00  0.00    +0.000 C 
ATOM      8  C   UNL     1       8.744   8.522  18.561  0.00  0.00    +0.000 C 
BRANCH   7   9
ATOM      9  C   UNL     1       8.947  10.990  18.242  0.00  0.00    +0.000 A 
ATOM     10  C   UNL     1      10.149  11.141  18.936  0.00  0.00    +0.000 A 
ATOM     11  C   UNL     1      10.723  12.401  19.004  0.00  0.00    +0.000 A 
ATOM     12  N   UNL     1      10.194  13.501  18.429  0.00  0.00    +0.000 NA
ATOM     13  C   UNL     1       9.042  13.332  17.748  0.00  0.00    +0.000 A 
ATOM     14  C   UNL     1       8.394  12.113  17.623  0.00  0.00    +0.000 A 
ENDBRANCH   7   9
ENDBRANCH   1   8
BRANCH   5  15
ATOM     15  O   UNL     1       5.791   5.354  16.121  0.00  0.00    +0.000 OA
BRANCH  15  16
ATOM     16  C   UNL     1       4.973   4.204  16.376  0.00  0.00    +0.000 C 
BRANCH  16  17
ATOM     17  C   UNL     1       3.530   4.662  16.586  0.00  0.00    +0.000 C 
BRANCH  17  18
ATOM     18  C   UNL     1       3.221   4.902  18.030  0.00  0.00    +0.000 A 
ATOM     19  C   UNL     1       3.578   6.017  18.764  0.00  0.00    +0.000 A 
ATOM     20  N   UNL     1       3.136   5.848  20.048  0.00  0.00    +0.000 N 
ATOM     21  C   UNL     1       2.499   4.636  20.176  0.00  0.00    +0.000 A 
ATOM     22  C   UNL     1       1.912   4.042  21.301  0.00  0.00    +0.000 A 
ATOM     23  C   UNL     1       1.323   2.786  21.138  0.00  0.00    +0.000 A 
ATOM     24  C   UNL     1       1.316   2.154  19.897  0.00  0.00    +0.000 A 
ATOM     25  C   UNL     1       1.910   2.761  18.783  0.00  0.00    +0.000 A 
ATOM     26  C   UNL     1       2.520   4.025  18.922  0.00  0.00    +0.000 A 
ATOM     27  H   UNL     1       3.263   6.510  20.800  0.00  0.00    +0.000 HD
ENDBRANCH  17  18
ENDBRANCH  16  17
ENDBRANCH  15  16
ENDBRANCH   5  15
TORSDOF 6
ENDMDL
MODEL 6
REMARK VINA RESULT:      -8.4      2.226      2.831
REMARK  Name = 
REMARK  6 active torsions:
REMARK  status: ('A' for Active; 'I' for Inactive)
REMARK    1  A    between atoms: C_1  and  C_21
REMARK    2  A    between atoms: C_2  and  C_3
REMARK    3  A    between atoms: C_7  and  O_8
REMARK    4  A    between atoms: O_8  and  C_9
REMARK    5  A    between atoms: C_9  and  C_10
REMARK    6  A    between atoms: C_10  and  C_11
REMARK                            x       y       z     vdW  Elec       q    Type
REMARK                         _______ _______ _______ _____ _____    ______ ____
ROOT
ATOM      1  C   UNL     1       8.152   7.377  18.465  0.00  0.00    +0.000 A 
ATOM      2  C   UNL     1       8.341   6.321  19.351  0.00  0.00    +0.000 A 
ATOM      3  N   UNL     1       7.864   5.066  19.160  0.00  0.00    +0.000 NA
ATOM      4  C   UNL     1       7.167   4.858  18.017  0.00  0.00    +0.000 A 
ATOM      5  C   UNL     1       6.940   5.826  17.048  0.00  0.00    +0.000 A 
ATOM      6  C   UNL     1       7.443   7.106  17.287  0.00  0.00    +0.000 A 
ENDROOT
BRANCH   1   8
ATOM      7  C   UNL     1       8.536   9.783  17.979  0.00  0.00    +0.000 C 
ATOM      8  C   UNL     1       8.733   8.699  18.750  0.00  0.00    +0.000 C 
BRANCH   7   9
ATOM      9  C   UNL     1       9.114  11.113  18.238  0.00  0.00    +0.000 A 
ATOM     10  C   UNL     1       8.594  12.283  17.682  0.00  0.00    +0.000 A 
ATOM     11  C   UNL     1       9.185  13.493  18.013  0.00  0.00    +0.000 A 
ATOM     12  N   UNL     1      10.234  13.615  18.853  0.00  0.00    +0.000 NA
ATOM     13  C   UNL     1      10.709  12.475  19.393  0.00  0.00    +0.000 A 
ATOM     14  C   UNL     1      10.186  11.219  19.125  0.00  0.00    +0.000 A 
ENDBRANCH   7   9
ENDBRANCH   1   8
BRANCH   5  15
ATOM     15  O   UNL     1       6.209   5.453  15.957  0.00  0.00    +0.000 OA
BRANCH  15  16
ATOM     16  C   UNL     1       4.795   5.335  16.167  0.00  0.00    +0.000 C 
BRANCH  16  17
ATOM     17  C   UNL     1       4.232   6.712  16.518  0.00  0.00    +0.000 C 
BRANCH  17  18
ATOM     18  C   UNL     1       3.594   6.730  17.870  0.00  0.00    +0.000 A 
ATOM     19  C   UNL     1       3.743   5.771  18.853  0.00  0.00    +0.000 A 
ATOM     20  N   UNL     1       2.981   6.134  19.930  0.00  0.00    +0.000 N 
ATOM     21  C   UNL     1       2.324   7.314  19.672  0.00  0.00    +0.000 A 
ATOM     22  C   UNL     1       1.432   8.041  20.470  0.00  0.00    +0.000 A 
ATOM     23  C   UNL     1       0.912   9.227  19.947  0.00  0.00    +0.000 A 
ATOM     24  C   UNL     1       1.277   9.670  18.678  0.00  0.00    +0.000 A 
ATOM     25  C   UNL     1       2.169   8.930  17.891  0.00  0.00    +0.000 A 
ATOM     26  C   UNL     1       2.701   7.723  18.392  0.00  0.00    +0.000 A 
ATOM     27  H   UNL     1       2.901   5.612  20.791  0.00  0.00    +0.000 HD
ENDBRANCH  17  18
ENDBRANCH  16  17
ENDBRANCH  15  16
ENDBRANCH   5  15
TORSDOF 6
ENDMDL
MODEL 7
REMARK VINA RESULT:      -8.3      2.426      3.430
REMARK  Name = 
REMARK  6 active torsions:
REMARK  status: ('A' for Active; 'I' for Inactive)
REMARK    1  A    between atoms: C_1  and  C_21
REMARK    2  A    between atoms: C_2  and  C_3
REMARK    3  A    between atoms: C_7  and  O_8
REMARK    4  A    between atoms: O_8  and  C_9
REMARK    5  A    between atoms: C_9  and  C_10
REMARK    6  A    between atoms: C_10  and  C_11
REMARK                            x       y       z     vdW  Elec       q    Type
REMARK                         _______ _______ _______ _____ _____    ______ ____
ROOT
ATOM      1  C   UNL     1       7.720   6.949  18.083  0.00  0.00    +0.000 A 
ATOM      2  C   UNL     1       7.675   6.791  16.702  0.00  0.00    +0.000 A 
ATOM      3  N   UNL     1       7.016   5.790  16.067  0.00  0.00    +0.000 NA
ATOM      4  C   UNL     1       6.363   4.906  16.858  0.00  0.00    +0.000 A 
ATOM      5  C   UNL     1       6.315   4.979  18.244  0.00  0.00    +0.000 A 
ATOM      6  C   UNL     1       7.011   6.020  18.858  0.00  0.00    +0.000 A 
ENDROOT
BRANCH   1   8
ATOM      7  C   UNL     1       8.456   9.322  18.149  0.00  0.00    +0.000 C 
ATOM      8  C   UNL     1       8.442   8.085  18.678  0.00  0.00    +0.000 C 
BRANCH   7   9
ATOM      9  C   UNL     1       9.177  10.471  18.719  0.00  0.00    +0.000 A 
ATOM     10  C   UNL     1       9.452  10.590  20.082  0.00  0.00    +0.000 A 
ATOM     11  C   UNL     1      10.170  11.692  20.521  0.00  0.00    +0.000 A 
ATOM     12  N   UNL     1      10.632  12.663  19.706  0.00  0.00    +0.000 NA
ATOM     13  C   UNL     1      10.371  12.521  18.390  0.00  0.00    +0.000 A 
ATOM     14  C   UNL     1       9.664  11.455  17.856  0.00  0.00    +0.000 A 
ENDBRANCH   7   9
ENDBRANCH   1   8
BRANCH   5  15
ATOM     15  O   UNL     1       5.618   4.000  18.893  0.00  0.00    +0.000 OA
BRANCH  15  16
ATOM     16  C   UNL     1       4.197   4.015  18.700  0.00  0.00    +0.000 C 
BRANCH  16  17
ATOM     17  C   UNL     1       3.571   4.958  19.727  0.00  0.00    +0.000 C 
BRANCH  17  18
ATOM     18  C   UNL     1       3.089   6.228  19.103  0.00  0.00    +0.000 A 
ATOM     19  C   UNL     1       3.407   6.685  17.838  0.00  0.00    +0.000 A 
ATOM     20  N   UNL     1       2.792   7.893  17.648  0.00  0.00    +0.000 N 
ATOM     21  C   UNL     1       2.079   8.245  18.770  0.00  0.00    +0.000 A 
ATOM     22  C   UNL     1       1.319   9.393  19.029  0.00  0.00    +0.000 A 
ATOM     23  C   UNL     1       0.688   9.486  20.272  0.00  0.00    +0.000 A 
ATOM     24  C   UNL     1       0.810   8.467  21.214  0.00  0.00    +0.000 A 
ATOM     25  C   UNL     1       1.577   7.328  20.940  0.00  0.00    +0.000 A 
ATOM     26  C   UNL     1       2.231   7.212  19.695  0.00  0.00    +0.000 A 
ATOM     27  H   UNL     1       2.855   8.454  16.811  0.00  0.00    +0.000 HD
ENDBRANCH  17  18
ENDBRANCH  16  17
ENDBRANCH  15  16
ENDBRANCH   5  15
TORSDOF 6
ENDMDL
MODEL 8
REMARK VINA RESULT:      -8.3      1.496      2.072
REMARK  Name = 
REMARK  6 active torsions:
REMARK  status: ('A' for Active; 'I' for Inactive)
REMARK    1  A    between atoms: C_1  and  C_21
REMARK    2  A    between atoms: C_2  and  C_3
REMARK    3  A    between atoms: C_7  and  O_8
REMARK    4  A    between atoms: O_8  and  C_9
REMARK    5  A    between atoms: C_9  and  C_10
REMARK    6  A    between atoms: C_10  and  C_11
REMARK                            x       y       z     vdW  Elec       q    Type
REMARK                         _______ _______ _______ _____ _____    ______ ____
ROOT
ATOM      1  C   UNL     1       8.327   8.106  18.418  0.00  0.00    +0.000 A 
ATOM      2  C   UNL     1       8.522   7.074  19.329  0.00  0.00    +0.000 A 
ATOM      3  N   UNL     1       8.064   5.808  19.163  0.00  0.00    +0.000 NA
ATOM      4  C   UNL     1       7.380   5.564  18.019  0.00  0.00    +0.000 A 
ATOM      5  C   UNL     1       7.148   6.506  17.027  0.00  0.00    +0.000 A 
ATOM      6  C   UNL     1       7.631   7.798  17.240  0.00  0.00    +0.000 A 
ENDROOT
BRANCH   1   8
ATOM      7  C   UNL     1       8.930  10.425  17.759  0.00  0.00    +0.000 C 
ATOM      8  C   UNL     1       8.886   9.442  18.677  0.00  0.00    +0.000 C 
BRANCH   7   9
ATOM      9  C   UNL     1       9.493  11.765  17.992  0.00  0.00    +0.000 A 
ATOM     10  C   UNL     1      10.859  12.037  17.905  0.00  0.00    +0.000 A 
ATOM     11  C   UNL     1      11.292  13.339  18.105  0.00  0.00    +0.000 A 
ATOM     12  N   UNL     1      10.468  14.373  18.372  0.00  0.00    +0.000 NA
ATOM     13  C   UNL     1       9.150  14.094  18.433  0.00  0.00    +0.000 A 
ATOM     14  C   UNL     1       8.622  12.826  18.247  0.00  0.00    +0.000 A 
ENDBRANCH   7   9
ENDBRANCH   1   8
BRANCH   5  15
ATOM     15  O   UNL     1       6.432   6.098  15.938  0.00  0.00    +0.000 OA
BRANCH  15  16
ATOM     16  C   UNL     1       5.008   6.234  16.044  0.00  0.00    +0.000 C 
BRANCH  16  17
ATOM     17  C   UNL     1       4.423   4.913  16.545  0.00  0.00    +0.000 C 
BRANCH  17  18
ATOM     18  C   UNL     1       3.729   5.069  17.860  0.00  0.00    +0.000 A 
ATOM     19  C   UNL     1       3.995   6.035  18.811  0.00  0.00    +0.000 A 
ATOM     20  N   UNL     1       3.168   5.826  19.881  0.00  0.00    +0.000 N 
ATOM     21  C   UNL     1       2.365   4.733  19.656  0.00  0.00    +0.000 A 
ATOM     22  C   UNL     1       1.392   4.147  20.476  0.00  0.00    +0.000 A 
ATOM     23  C   UNL     1       0.715   3.029  19.981  0.00  0.00    +0.000 A 
ATOM     24  C   UNL     1       0.998   2.524  18.715  0.00  0.00    +0.000 A 
ATOM     25  C   UNL     1       1.977   3.120  17.909  0.00  0.00    +0.000 A 
ATOM     26  C   UNL     1       2.681   4.245  18.388  0.00  0.00    +0.000 A 
ATOM     27  H   UNL     1       3.150   6.386  20.722  0.00  0.00    +0.000 HD
ENDBRANCH  17  18
ENDBRANCH  16  17
ENDBRANCH  15  16
ENDBRANCH   5  15
TORSDOF 6
ENDMDL
MODEL 9
REMARK VINA RESULT:      -8.2      1.735      2.592
REMARK  Name = 
REMARK  6 active torsions:
REMARK  status: ('A' for Active; 'I' for Inactive)
REMARK    1  A    between atoms: C_1  and  C_21
REMARK    2  A    between atoms: C_2  and  C_3
REMARK    3  A    between atoms: C_7  and  O_8
REMARK    4  A    between atoms: O_8  and  C_9
REMARK    5  A    between atoms: C_9  and  C_10
REMARK    6  A    between atoms: C_10  and  C_11
REMARK                            x       y       z     vdW  Elec       q    Type
REMARK                         _______ _______ _______ _____ _____    ______ ____
ROOT
ATOM      1  C   UNL     1       7.425   6.734  17.712  0.00  0.00    +0.000 A 
ATOM      2  C   UNL     1       7.621   6.440  16.367  0.00  0.00    +0.000 A 
ATOM      3  N   UNL     1       7.004   5.428  15.707  0.00  0.00    +0.000 NA
ATOM      4  C   UNL     1       6.140   4.678  16.432  0.00  0.00    +0.000 A 
ATOM      5  C   UNL     1       5.844   4.896  17.771  0.00  0.00    +0.000 A 
ATOM      6  C   UNL     1       6.506   5.943  18.414  0.00  0.00    +0.000 A 
ENDROOT
BRANCH   1   8
ATOM      7  C   UNL     1       8.045   9.135  17.879  0.00  0.00    +0.000 C 
ATOM      8  C   UNL     1       8.123   7.871  18.333  0.00  0.00    +0.000 C 
BRANCH   7   9
ATOM      9  C   UNL     1       8.741  10.287  18.476  0.00  0.00    +0.000 A 
ATOM     10  C   UNL     1       9.373  10.226  19.719  0.00  0.00    +0.000 A 
ATOM     11  C   UNL     1      10.034  11.353  20.183  0.00  0.00    +0.000 A 
ATOM     12  N   UNL     1      10.114  12.514  19.501  0.00  0.00    +0.000 NA
ATOM     13  C   UNL     1       9.513  12.546  18.294  0.00  0.00    +0.000 A 
ATOM     14  C   UNL     1       8.829  11.472  17.745  0.00  0.00    +0.000 A 
ENDBRANCH   7   9
ENDBRANCH   1   8
BRANCH   5  15
ATOM     15  O   UNL     1       4.956   4.041  18.357  0.00  0.00    +0.000 OA
BRANCH  15  16
ATOM     16  C   UNL     1       4.301   3.121  17.473  0.00  0.00    +0.000 C 
BRANCH  16  17
ATOM     17  C   UNL     1       2.795   3.383  17.518  0.00  0.00    +0.000 C 
BRANCH  17  18
ATOM     18  C   UNL     1       2.388   4.110  18.759  0.00  0.00    +0.000 A 
ATOM     19  C   UNL     1       2.003   3.529  19.953  0.00  0.00    +0.000 A 
ATOM     20  N   UNL     1       1.683   4.525  20.834  0.00  0.00    +0.000 N 
ATOM     21  C   UNL     1       1.842   5.755  20.241  0.00  0.00    +0.000 A 
ATOM     22  C   UNL     1       1.614   7.038  20.754  0.00  0.00    +0.000 A 
ATOM     23  C   UNL     1       1.869   8.127  19.916  0.00  0.00    +0.000 A 
ATOM     24  C   UNL     1       2.338   7.936  18.618  0.00  0.00    +0.000 A 
ATOM     25  C   UNL     1       2.557   6.646  18.119  0.00  0.00    +0.000 A 
ATOM     26  C   UNL     1       2.300   5.529  18.942  0.00  0.00    +0.000 A 
ATOM     27  H   UNL     1       1.367   4.384  21.783  0.00  0.00    +0.000 HD
ENDBRANCH  17  18
ENDBRANCH  16  17
ENDBRANCH  15  16
ENDBRANCH   5  15
TORSDOF 6
ENDMDL
