MODEL 1
REMARK VINA RESULT:      -7.9      0.000      0.000
REMARK  Name = 
REMARK  12 active torsions:
REMARK  status: ('A' for Active; 'I' for Inactive)
REMARK    1  A    between atoms: C_1  and  C_2
REMARK    2  A    between atoms: C_2  and  C_3
REMARK    3  A    between atoms: C_3  and  C_4
REMARK    4  A    between atoms: C_4  and  C_5
REMARK    5  A    between atoms: C_5  and  C_6
REMARK    6  A    between atoms: C_6  and  C_7
REMARK    7  A    between atoms: C_7  and  C_8
REMARK    8  A    between atoms: C_8  and  O_9
REMARK    9  A    between atoms: O_9  and  C_10
REMARK   10  A    between atoms: C_10  and  C_12
REMARK   11  A    between atoms: C_17  and  O_18
REMARK   12  A    between atoms: C_20  and  O_21
REMARK                            x       y       z     vdW  Elec       q    Type
REMARK                         _______ _______ _______ _____ _____    ______ ____
ROOT
ATOM      1  C   UNL     1       5.394   5.682  17.340  0.00  0.00    +0.000 A 
ATOM      2  C   UNL     1       4.232   6.349  17.274  0.00  0.00    +0.000 A 
ATOM      3  O   UNL     1       3.076   6.020  17.938  0.00  0.00    +0.000 OA
ATOM      4  C   UNL     1       3.089   4.895  18.729  0.00  0.00    +0.000 A 
ATOM      5  C   UNL     1       1.887   4.580  19.370  0.00  0.00    +0.000 A 
ATOM      6  C   UNL     1       1.828   3.460  20.190  0.00  0.00    +0.000 A 
ATOM      7  C   UNL     1       2.944   2.655  20.379  0.00  0.00    +0.000 A 
ATOM      8  C   UNL     1       4.142   2.972  19.737  0.00  0.00    +0.000 A 
ATOM      9  C   UNL     1       4.224   4.097  18.904  0.00  0.00    +0.000 A 
ATOM     10  C   UNL     1       5.473   4.493  18.213  0.00  0.00    +0.000 A 
ATOM     11  O   UNL     1       6.526   3.889  18.368  0.00  0.00    +0.000 OA
ENDROOT
BRANCH   1  12
ATOM     12  C   UNL     1       6.538   6.140  16.536  0.00  0.00    +0.000 C 
ATOM     13  O   UNL     1       7.575   6.598  17.021  0.00  0.00    +0.000 OA
BRANCH  12  14
ATOM     14  O   UNL     1       6.281   6.026  15.216  0.00  0.00    +0.000 OA
BRANCH  14  15
ATOM     15  C   UNL     1       6.867   4.879  14.587  0.00  0.00    +0.000 C 
BRANCH  15  16
ATOM     16  C   UNL     1       5.769   3.925  14.136  0.00  0.00    +0.000 C 
BRANCH  16  17
ATOM     17  C   UNL     1       5.956   3.529  12.675  0.00  0.00    +0.000 C 
BRANCH  17  18
ATOM     18  C   UNL     1       4.718   3.869  11.847  0.00  0.00    +0.000 C 
BRANCH  18  19
ATOM     19  C   UNL     1       4.169   2.631  11.137  0.00  0.00    +0.000 C 
BRANCH  19  20
ATOM     20  C   UNL     1       3.154   3.018  10.060  0.00  0.00    +0.000 C 
BRANCH  20  22
ATOM     21  C   UNL     1       2.056   4.926   8.844  0.00  0.00    +0.000 C 
ATOM     22  C   UNL     1       3.187   4.519   9.774  0.00  0.00    +0.000 C 
ENDBRANCH  20  22
ENDBRANCH  19  20
ENDBRANCH  18  19
ENDBRANCH  17  18
ENDBRANCH  16  17
ENDBRANCH  15  16
ENDBRANCH  14  15
ENDBRANCH  12  14
ENDBRANCH   1  12
BRANCH   6  23
ATOM     23  O   UNL     1       0.681   3.106  20.838  0.00  0.00    +0.000 OA
ATOM     24  H   UNL     1       0.895   2.827  21.744  0.00  0.00    +0.000 HD
ENDBRANCH   6  23
BRANCH   8  25
ATOM     25  O   UNL     1       5.224   2.163  19.938  0.00  0.00    +0.000 OA
ATOM     26  H   UNL     1       4.954   1.232  19.950  0.00  0.00    +0.000 HD
ENDBRANCH   8  25
TORSDOF 11
ENDMDL
MODEL 2
REMARK VINA RESULT:      -7.6      3.546      6.647
REMARK  Name = 
REMARK  12 active torsions:
REMARK  status: ('A' for Active; 'I' for Inactive)
REMARK    1  A    between atoms: C_1  and  C_2
REMARK    2  A    between atoms: C_2  and  C_3
REMARK    3  A    between atoms: C_3  and  C_4
REMARK    4  A    between atoms: C_4  and  C_5
REMARK    5  A    between atoms: C_5  and  C_6
REMARK    6  A    between atoms: C_6  and  C_7
REMARK    7  A    between atoms: C_7  and  C_8
REMARK    8  A    between atoms: C_8  and  O_9
REMARK    9  A    between atoms: O_9  and  C_10
REMARK   10  A    between atoms: C_10  and  C_12
REMARK   11  A    between atoms: C_17  and  O_18
REMARK   12  A    between atoms: C_20  and  O_21
REMARK                            x       y       z     vdW  Elec       q    Type
REMARK                         _______ _______ _______ _____ _____    ______ ____
ROOT
ATOM      1  C   UNL     1       4.157   3.546  17.874  0.00  0.00    +0.000 A 
ATOM      2  C   UNL     1       4.012   4.206  16.716  0.00  0.00    +0.000 A 
ATOM      3  O   UNL     1       4.767   5.273  16.296  0.00  0.00    +0.000 OA
ATOM      4  C   UNL     1       5.753   5.731  17.138  0.00  0.00    +0.000 A 
ATOM      5  C   UNL     1       6.485   6.833  16.686  0.00  0.00    +0.000 A 
ATOM      6  C   UNL     1       7.501   7.347  17.483  0.00  0.00    +0.000 A 
ATOM      7  C   UNL     1       7.795   6.780  18.716  0.00  0.00    +0.000 A 
ATOM      8  C   UNL     1       7.061   5.681  19.165  0.00  0.00    +0.000 A 
ATOM      9  C   UNL     1       6.032   5.146  18.378  0.00  0.00    +0.000 A 
ATOM     10  C   UNL     1       5.233   3.970  18.793  0.00  0.00    +0.000 A 
ATOM     11  O   UNL     1       5.459   3.360  19.829  0.00  0.00    +0.000 OA
ENDROOT
BRANCH   1  12
ATOM     12  C   UNL     1       3.241   2.442  18.198  0.00  0.00    +0.000 C 
ATOM     13  O   UNL     1       3.517   1.252  18.031  0.00  0.00    +0.000 OA
BRANCH  12  14
ATOM     14  O   UNL     1       2.062   2.909  18.660  0.00  0.00    +0.000 OA
BRANCH  14  15
ATOM     15  C   UNL     1       1.588   2.270  19.853  0.00  0.00    +0.000 C 
BRANCH  15  16
ATOM     16  C   UNL     1       1.206   3.325  20.881  0.00  0.00    +0.000 C 
BRANCH  16  17
ATOM     17  C   UNL     1       2.262   4.424  20.954  0.00  0.00    +0.000 C 
BRANCH  17  18
ATOM     18  C   UNL     1       1.696   5.767  20.496  0.00  0.00    +0.000 C 
BRANCH  18  19
ATOM     19  C   UNL     1       2.731   6.563  19.701  0.00  0.00    +0.000 C 
BRANCH  19  20
ATOM     20  C   UNL     1       2.303   6.721  18.241  0.00  0.00    +0.000 C 
BRANCH  20  22
ATOM     21  C   UNL     1       1.582   9.122  18.043  0.00  0.00    +0.000 C 
ATOM     22  C   UNL     1       2.659   8.105  17.701  0.00  0.00    +0.000 C 
ENDBRANCH  20  22
ENDBRANCH  19  20
ENDBRANCH  18  19
ENDBRANCH  17  18
ENDBRANCH  16  17
ENDBRANCH  15  16
ENDBRANCH  14  15
ENDBRANCH  12  14
ENDBRANCH   1  12
BRANCH   6  23
ATOM     23  O   UNL     1       8.245   8.421  17.091  0.00  0.00    +0.000 OA
ATOM     24  H   UNL     1       8.472   8.958  17.869  0.00  0.00    +0.000 HD
ENDBRANCH   6  23
BRANCH   8  25
ATOM     25  O   UNL     1       7.369   5.144  20.382  0.00  0.00    +0.000 OA
ATOM     26  H   UNL     1       6.923   4.291  20.500  0.00  0.00    +0.000 HD
ENDBRANCH   8  25
TORSDOF 11
ENDMDL
MODEL 3
REMARK VINA RESULT:      -7.4      4.060      7.018
REMARK  Name = 
REMARK  12 active torsions:
REMARK  status: ('A' for Active; 'I' for Inactive)
REMARK    1  A    between atoms: C_1  and  C_2
REMARK    2  A    between atoms: C_2  and  C_3
REMARK    3  A    between atoms: C_3  and  C_4
REMARK    4  A    between atoms: C_4  and  C_5
REMARK    5  A    between atoms: C_5  and  C_6
REMARK    6  A    between atoms: C_6  and  C_7
REMARK    7  A    between atoms: C_7  and  C_8
REMARK    8  A    between atoms: C_8  and  O_9
REMARK    9  A    between atoms: O_9  and  C_10
REMARK   10  A    between atoms: C_10  and  C_12
REMARK   11  A    between atoms: C_17  and  O_18
REMARK   12  A    between atoms: C_20  and  O_21
REMARK                            x       y       z     vdW  Elec       q    Type
REMARK                         _______ _______ _______ _____ _____    ______ ____
ROOT
ATOM      1  C   UNL     1       5.716   5.991  17.673  0.00  0.00    +0.000 A 
ATOM      2  C   UNL     1       4.572   6.633  17.393  0.00  0.00    +0.000 A 
ATOM      3  O   UNL     1       3.313   6.239  17.775  0.00  0.00    +0.000 OA
ATOM      4  C   UNL     1       3.197   5.072  18.493  0.00  0.00    +0.000 A 
ATOM      5  C   UNL     1       1.898   4.693  18.844  0.00  0.00    +0.000 A 
ATOM      6  C   UNL     1       1.705   3.527  19.576  0.00  0.00    +0.000 A 
ATOM      7  C   UNL     1       2.783   2.740  19.960  0.00  0.00    +0.000 A 
ATOM      8  C   UNL     1       4.079   3.121  19.607  0.00  0.00    +0.000 A 
ATOM      9  C   UNL     1       4.296   4.294  18.869  0.00  0.00    +0.000 A 
ATOM     10  C   UNL     1       5.649   4.758  18.483  0.00  0.00    +0.000 A 
ATOM     11  O   UNL     1       6.665   4.171  18.830  0.00  0.00    +0.000 OA
ENDROOT
BRANCH   1  12
ATOM     12  C   UNL     1       6.988   6.521  17.157  0.00  0.00    +0.000 C 
ATOM     13  O   UNL     1       7.428   6.270  16.033  0.00  0.00    +0.000 OA
BRANCH  12  14
ATOM     14  O   UNL     1       7.612   7.276  18.086  0.00  0.00    +0.000 OA
BRANCH  14  15
ATOM     15  C   UNL     1       7.915   8.613  17.668  0.00  0.00    +0.000 C 
BRANCH  15  16
ATOM     16  C   UNL     1       8.861   9.260  18.670  0.00  0.00    +0.000 C 
BRANCH  16  17
ATOM     17  C   UNL     1       9.047  10.744  18.366  0.00  0.00    +0.000 C 
BRANCH  17  18
ATOM     18  C   UNL     1       9.408  11.527  19.627  0.00  0.00    +0.000 C 
BRANCH  18  19
ATOM     19  C   UNL     1       9.616  13.010  19.319  0.00  0.00    +0.000 C 
BRANCH  19  20
ATOM     20  C   UNL     1       9.545  13.276  17.814  0.00  0.00    +0.000 C 
BRANCH  20  22
ATOM     21  C   UNL     1      11.968  12.962  17.218  0.00  0.00    +0.000 C 
ATOM     22  C   UNL     1      10.817  13.952  17.305  0.00  0.00    +0.000 C 
ENDBRANCH  20  22
ENDBRANCH  19  20
ENDBRANCH  18  19
ENDBRANCH  17  18
ENDBRANCH  16  17
ENDBRANCH  15  16
ENDBRANCH  14  15
ENDBRANCH  12  14
ENDBRANCH   1  12
BRANCH   6  23
ATOM     23  O   UNL     1       0.459   3.110  19.944  0.00  0.00    +0.000 OA
ATOM     24  H   UNL     1       0.029   3.804  20.471  0.00  0.00    +0.000 HD
ENDBRANCH   6  23
BRANCH   8  25
ATOM     25  O   UNL     1       5.120   2.329  19.994  0.00  0.00    +0.000 OA
ATOM     26  H   UNL     1       5.609   2.741  20.723  0.00  0.00    +0.000 HD
ENDBRANCH   8  25
TORSDOF 11
ENDMDL
MODEL 4
REMARK VINA RESULT:      -7.4      3.629      6.602
REMARK  Name = 
REMARK  12 active torsions:
REMARK  status: ('A' for Active; 'I' for Inactive)
REMARK    1  A    between atoms: C_1  and  C_2
REMARK    2  A    between atoms: C_2  and  C_3
REMARK    3  A    between atoms: C_3  and  C_4
REMARK    4  A    between atoms: C_4  and  C_5
REMARK    5  A    between atoms: C_5  and  C_6
REMARK    6  A    between atoms: C_6  and  C_7
REMARK    7  A    between atoms: C_7  and  C_8
REMARK    8  A    between atoms: C_8  and  O_9
REMARK    9  A    between atoms: O_9  and  C_10
REMARK   10  A    between atoms: C_10  and  C_12
REMARK   11  A    between atoms: C_17  and  O_18
REMARK   12  A    between atoms: C_20  and  O_21
REMARK                            x       y       z     vdW  Elec       q    Type
REMARK                         _______ _______ _______ _____ _____    ______ ____
ROOT
ATOM      1  C   UNL     1       4.422   6.028  17.227  0.00  0.00    +0.000 A 
ATOM      2  C   UNL     1       3.625   6.796  17.985  0.00  0.00    +0.000 A 
ATOM      3  O   UNL     1       2.716   6.346  18.911  0.00  0.00    +0.000 OA
ATOM      4  C   UNL     1       2.587   4.987  19.074  0.00  0.00    +0.000 A 
ATOM      5  C   UNL     1       1.636   4.567  20.010  0.00  0.00    +0.000 A 
ATOM      6  C   UNL     1       1.454   3.207  20.230  0.00  0.00    +0.000 A 
ATOM      7  C   UNL     1       2.204   2.266  19.536  0.00  0.00    +0.000 A 
ATOM      8  C   UNL     1       3.151   2.689  18.601  0.00  0.00    +0.000 A 
ATOM      9  C   UNL     1       3.350   4.056  18.362  0.00  0.00    +0.000 A 
ATOM     10  C   UNL     1       4.354   4.563  17.398  0.00  0.00    +0.000 A 
ATOM     11  O   UNL     1       5.108   3.818  16.787  0.00  0.00    +0.000 OA
ENDROOT
BRANCH   1  12
ATOM     12  C   UNL     1       5.319   6.662  16.248  0.00  0.00    +0.000 C 
ATOM     13  O   UNL     1       5.186   6.551  15.027  0.00  0.00    +0.000 OA
BRANCH  12  14
ATOM     14  O   UNL     1       6.311   7.338  16.864  0.00  0.00    +0.000 OA
BRANCH  14  15
ATOM     15  C   UNL     1       7.256   6.516  17.561  0.00  0.00    +0.000 C 
BRANCH  15  16
ATOM     16  C   UNL     1       8.192   7.393  18.380  0.00  0.00    +0.000 C 
BRANCH  16  17
ATOM     17  C   UNL     1       8.124   8.845  17.916  0.00  0.00    +0.000 C 
BRANCH  17  18
ATOM     18  C   UNL     1       8.956   9.754  18.819  0.00  0.00    +0.000 C 
BRANCH  18  19
ATOM     19  C   UNL     1       8.988  11.187  18.286  0.00  0.00    +0.000 C 
BRANCH  19  20
ATOM     20  C   UNL     1       9.853  12.085  19.170  0.00  0.00    +0.000 C 
BRANCH  20  22
ATOM     21  C   UNL     1      12.037  12.289  17.940  0.00  0.00    +0.000 C 
ATOM     22  C   UNL     1      11.322  11.665  19.127  0.00  0.00    +0.000 C 
ENDBRANCH  20  22
ENDBRANCH  19  20
ENDBRANCH  18  19
ENDBRANCH  17  18
ENDBRANCH  16  17
ENDBRANCH  15  16
ENDBRANCH  14  15
ENDBRANCH  12  14
ENDBRANCH   1  12
BRANCH   6  23
ATOM     23  O   UNL     1       0.541   2.743  21.130  0.00  0.00    +0.000 OA
ATOM     24  H   UNL     1      -0.327   3.138  20.942  0.00  0.00    +0.000 HD
ENDBRANCH   6  23
BRANCH   8  25
ATOM     25  O   UNL     1       3.872   1.743  17.930  0.00  0.00    +0.000 OA
ATOM     26  H   UNL     1       3.360   1.389  17.187  0.00  0.00    +0.000 HD
ENDBRANCH   8  25
TORSDOF 11
ENDMDL
MODEL 5
REMARK VINA RESULT:      -7.3      1.530      1.896
REMARK  Name = 
REMARK  12 active torsions:
REMARK  status: ('A' for Active; 'I' for Inactive)
REMARK    1  A    between atoms: C_1  and  C_2
REMARK    2  A    between atoms: C_2  and  C_3
REMARK    3  A    between atoms: C_3  and  C_4
REMARK    4  A    between atoms: C_4  and  C_5
REMARK    5  A    between atoms: C_5  and  C_6
REMARK    6  A    between atoms: C_6  and  C_7
REMARK    7  A    between atoms: C_7  and  C_8
REMARK    8  A    between atoms: C_8  and  O_9
REMARK    9  A    between atoms: O_9  and  C_10
REMARK   10  A    between atoms: C_10  and  C_12
REMARK   11  A    between atoms: C_17  and  O_18
REMARK   12  A    between atoms: C_20  and  O_21
REMARK                            x       y       z     vdW  Elec       q    Type
REMARK                         _______ _______ _______ _____ _____    ______ ____
ROOT
ATOM      1  C   UNL     1       4.536   5.566  17.631  0.00  0.00    +0.000 A 
ATOM      2  C   UNL     1       4.501   6.172  18.827  0.00  0.00    +0.000 A 
ATOM      3  O   UNL     1       3.821   5.729  19.936  0.00  0.00    +0.000 OA
ATOM      4  C   UNL     1       3.089   4.572  19.817  0.00  0.00    +0.000 A 
ATOM      5  C   UNL     1       2.392   4.165  20.960  0.00  0.00    +0.000 A 
ATOM      6  C   UNL     1       1.634   3.001  20.915  0.00  0.00    +0.000 A 
ATOM      7  C   UNL     1       1.564   2.241  19.754  0.00  0.00    +0.000 A 
ATOM      8  C   UNL     1       2.259   2.650  18.616  0.00  0.00    +0.000 A 
ATOM      9  C   UNL     1       3.029   3.822  18.638  0.00  0.00    +0.000 A 
ATOM     10  C   UNL     1       3.803   4.294  17.467  0.00  0.00    +0.000 A 
ATOM     11  O   UNL     1       3.859   3.661  16.422  0.00  0.00    +0.000 OA
ENDROOT
BRANCH   1  12
ATOM     12  C   UNL     1       5.282   6.188  16.527  0.00  0.00    +0.000 C 
ATOM     13  O   UNL     1       4.748   6.803  15.601  0.00  0.00    +0.000 OA
BRANCH  12  14
ATOM     14  O   UNL     1       6.608   5.963  16.647  0.00  0.00    +0.000 OA
BRANCH  14  15
ATOM     15  C   UNL     1       7.044   4.678  16.186  0.00  0.00    +0.000 C 
BRANCH  15  16
ATOM     16  C   UNL     1       7.177   4.696  14.670  0.00  0.00    +0.000 C 
BRANCH  16  17
ATOM     17  C   UNL     1       6.203   3.715  14.025  0.00  0.00    +0.000 C 
BRANCH  17  18
ATOM     18  C   UNL     1       6.122   3.929  12.515  0.00  0.00    +0.000 C 
BRANCH  18  19
ATOM     19  C   UNL     1       5.230   2.878  11.852  0.00  0.00    +0.000 C 
BRANCH  19  20
ATOM     20  C   UNL     1       3.795   3.384  11.709  0.00  0.00    +0.000 C 
BRANCH  20  22
ATOM     21  C   UNL     1       3.142   4.331   9.473  0.00  0.00    +0.000 C 
ATOM     22  C   UNL     1       3.228   3.075  10.324  0.00  0.00    +0.000 C 
ENDBRANCH  20  22
ENDBRANCH  19  20
ENDBRANCH  18  19
ENDBRANCH  17  18
ENDBRANCH  16  17
ENDBRANCH  15  16
ENDBRANCH  14  15
ENDBRANCH  12  14
ENDBRANCH   1  12
BRANCH   6  23
ATOM     23  O   UNL     1       0.935   2.559  22.000  0.00  0.00    +0.000 OA
ATOM     24  H   UNL     1       1.529   2.058  22.584  0.00  0.00    +0.000 HD
ENDBRANCH   6  23
BRANCH   8  25
ATOM     25  O   UNL     1       2.170   1.887  17.487  0.00  0.00    +0.000 OA
ATOM     26  H   UNL     1       2.873   2.121  16.862  0.00  0.00    +0.000 HD
ENDBRANCH   8  25
TORSDOF 11
ENDMDL
MODEL 6
REMARK VINA RESULT:      -7.3      4.075      7.360
REMARK  Name = 
REMARK  12 active torsions:
REMARK  status: ('A' for Active; 'I' for Inactive)
REMARK    1  A    between atoms: C_1  and  C_2
REMARK    2  A    between atoms: C_2  and  C_3
REMARK    3  A    between atoms: C_3  and  C_4
REMARK    4  A    between atoms: C_4  and  C_5
REMARK    5  A    between atoms: C_5  and  C_6
REMARK    6  A    between atoms: C_6  and  C_7
REMARK    7  A    between atoms: C_7  and  C_8
REMARK    8  A    between atoms: C_8  and  O_9
REMARK    9  A    between atoms: O_9  and  C_10
REMARK   10  A    between atoms: C_10  and  C_12
REMARK   11  A    between atoms: C_17  and  O_18
REMARK   12  A    between atoms: C_20  and  O_21
REMARK                            x       y       z     vdW  Elec       q    Type
REMARK                         _______ _______ _______ _____ _____    ______ ____
ROOT
ATOM      1  C   UNL     1       5.432   5.851  17.481  0.00  0.00    +0.000 A 
ATOM      2  C   UNL     1       4.257   6.488  17.362  0.00  0.00    +0.000 A 
ATOM      3  O   UNL     1       3.063   6.087  17.908  0.00  0.00    +0.000 OA
ATOM      4  C   UNL     1       3.050   4.916  18.629  0.00  0.00    +0.000 A 
ATOM      5  C   UNL     1       1.812   4.529  19.151  0.00  0.00    +0.000 A 
ATOM      6  C   UNL     1       1.724   3.358  19.895  0.00  0.00    +0.000 A 
ATOM      7  C   UNL     1       2.848   2.575  20.126  0.00  0.00    +0.000 A 
ATOM      8  C   UNL     1       4.082   2.964  19.603  0.00  0.00    +0.000 A 
ATOM      9  C   UNL     1       4.193   4.141  18.848  0.00  0.00    +0.000 A 
ATOM     10  C   UNL     1       5.479   4.613  18.286  0.00  0.00    +0.000 A 
ATOM     11  O   UNL     1       6.535   4.030  18.489  0.00  0.00    +0.000 OA
ENDROOT
BRANCH   1  12
ATOM     12  C   UNL     1       6.619   6.390  16.801  0.00  0.00    +0.000 C 
ATOM     13  O   UNL     1       7.363   5.714  16.086  0.00  0.00    +0.000 OA
BRANCH  12  14
ATOM     14  O   UNL     1       6.799   7.694  17.096  0.00  0.00    +0.000 OA
BRANCH  14  15
ATOM     15  C   UNL     1       7.982   7.983  17.852  0.00  0.00    +0.000 C 
BRANCH  15  16
ATOM     16  C   UNL     1       8.223   9.486  17.872  0.00  0.00    +0.000 C 
BRANCH  16  17
ATOM     17  C   UNL     1       9.271   9.856  18.917  0.00  0.00    +0.000 C 
BRANCH  17  18
ATOM     18  C   UNL     1       9.927  11.197  18.591  0.00  0.00    +0.000 C 
BRANCH  18  19
ATOM     19  C   UNL     1       9.493  12.281  19.578  0.00  0.00    +0.000 C 
BRANCH  19  20
ATOM     20  C   UNL     1       9.760  11.853  21.021  0.00  0.00    +0.000 C 
BRANCH  20  22
ATOM     21  C   UNL     1       9.635  14.188  21.946  0.00  0.00    +0.000 C 
ATOM     22  C   UNL     1       9.065  12.780  22.018  0.00  0.00    +0.000 C 
ENDBRANCH  20  22
ENDBRANCH  19  20
ENDBRANCH  18  19
ENDBRANCH  17  18
ENDBRANCH  16  17
ENDBRANCH  15  16
ENDBRANCH  14  15
ENDBRANCH  12  14
ENDBRANCH   1  12
BRANCH   6  23
ATOM     23  O   UNL     1       0.542   2.934  20.426  0.00  0.00    +0.000 OA
ATOM     24  H   UNL     1      -0.124   3.636  20.334  0.00  0.00    +0.000 HD
ENDBRANCH   6  23
BRANCH   8  25
ATOM     25  O   UNL     1       5.170   2.174  19.841  0.00  0.00    +0.000 OA
ATOM     26  H   UNL     1       5.034   1.288  19.472  0.00  0.00    +0.000 HD
ENDBRANCH   8  25
TORSDOF 11
ENDMDL
MODEL 7
REMARK VINA RESULT:      -7.2      1.261      1.977
REMARK  Name = 
REMARK  12 active torsions:
REMARK  status: ('A' for Active; 'I' for Inactive)
REMARK    1  A    between atoms: C_1  and  C_2
REMARK    2  A    between atoms: C_2  and  C_3
REMARK    3  A    between atoms: C_3  and  C_4
REMARK    4  A    between atoms: C_4  and  C_5
REMARK    5  A    between atoms: C_5  and  C_6
REMARK    6  A    between atoms: C_6  and  C_7
REMARK    7  A    between atoms: C_7  and  C_8
REMARK    8  A    between atoms: C_8  and  O_9
REMARK    9  A    between atoms: O_9  and  C_10
REMARK   10  A    between atoms: C_10  and  C_12
REMARK   11  A    between atoms: C_17  and  O_18
REMARK   12  A    between atoms: C_20  and  O_21
REMARK                            x       y       z     vdW  Elec       q    Type
REMARK                         _______ _______ _______ _____ _____    ______ ____
ROOT
ATOM      1  C   UNL     1       5.471   4.571  17.057  0.00  0.00    +0.000 A 
ATOM      2  C   UNL     1       5.086   3.303  16.847  0.00  0.00    +0.000 A 
ATOM      3  O   UNL     1       4.000   2.686  17.417  0.00  0.00    +0.000 OA
ATOM      4  C   UNL     1       3.240   3.415  18.301  0.00  0.00    +0.000 A 
ATOM      5  C   UNL     1       2.156   2.746  18.877  0.00  0.00    +0.000 A 
ATOM      6  C   UNL     1       1.340   3.422  19.777  0.00  0.00    +0.000 A 
ATOM      7  C   UNL     1       1.588   4.749  20.105  0.00  0.00    +0.000 A 
ATOM      8  C   UNL     1       2.672   5.413  19.528  0.00  0.00    +0.000 A 
ATOM      9  C   UNL     1       3.508   4.750  18.620  0.00  0.00    +0.000 A 
ATOM     10  C   UNL     1       4.660   5.409  17.962  0.00  0.00    +0.000 A 
ATOM     11  O   UNL     1       4.921   6.592  18.134  0.00  0.00    +0.000 OA
ENDROOT
BRANCH   1  12
ATOM     12  C   UNL     1       6.686   5.076  16.399  0.00  0.00    +0.000 C 
ATOM     13  O   UNL     1       7.801   5.072  16.925  0.00  0.00    +0.000 OA
BRANCH  12  14
ATOM     14  O   UNL     1       6.406   5.571  15.175  0.00  0.00    +0.000 OA
BRANCH  14  15
ATOM     15  C   UNL     1       7.017   4.866  14.087  0.00  0.00    +0.000 C 
BRANCH  15  16
ATOM     16  C   UNL     1       5.952   4.458  13.079  0.00  0.00    +0.000 C 
BRANCH  16  17
ATOM     17  C   UNL     1       6.163   3.021  12.613  0.00  0.00    +0.000 C 
BRANCH  17  18
ATOM     18  C   UNL     1       5.106   2.610  11.591  0.00  0.00    +0.000 C 
BRANCH  18  19
ATOM     19  C   UNL     1       4.196   3.785  11.229  0.00  0.00    +0.000 C 
BRANCH  19  20
ATOM     20  C   UNL     1       3.070   3.343  10.294  0.00  0.00    +0.000 C 
BRANCH  20  22
ATOM     21  C   UNL     1       1.970   5.156   8.942  0.00  0.00    +0.000 C 
ATOM     22  C   UNL     1       3.091   4.130   8.984  0.00  0.00    +0.000 C 
ENDBRANCH  20  22
ENDBRANCH  19  20
ENDBRANCH  18  19
ENDBRANCH  17  18
ENDBRANCH  16  17
ENDBRANCH  15  16
ENDBRANCH  14  15
ENDBRANCH  12  14
ENDBRANCH   1  12
BRANCH   6  23
ATOM     23  O   UNL     1       0.270   2.817  20.368  0.00  0.00    +0.000 OA
ATOM     24  H   UNL     1      -0.212   2.295  19.706  0.00  0.00    +0.000 HD
ENDBRANCH   6  23
BRANCH   8  25
ATOM     25  O   UNL     1       2.895   6.716  19.871  0.00  0.00    +0.000 OA
ATOM     26  H   UNL     1       3.594   7.097  19.319  0.00  0.00    +0.000 HD
ENDBRANCH   8  25
TORSDOF 11
ENDMDL
MODEL 8
REMARK VINA RESULT:      -7.1      1.030      1.375
REMARK  Name = 
REMARK  12 active torsions:
REMARK  status: ('A' for Active; 'I' for Inactive)
REMARK    1  A    between atoms: C_1  and  C_2
REMARK    2  A    between atoms: C_2  and  C_3
REMARK    3  A    between atoms: C_3  and  C_4
REMARK    4  A    between atoms: C_4  and  C_5
REMARK    5  A    between atoms: C_5  and  C_6
REMARK    6  A    between atoms: C_6  and  C_7
REMARK    7  A    between atoms: C_7  and  C_8
REMARK    8  A    between atoms: C_8  and  O_9
REMARK    9  A    between atoms: O_9  and  C_10
REMARK   10  A    between atoms: C_10  and  C_12
REMARK   11  A    between atoms: C_17  and  O_18
REMARK   12  A    between atoms: C_20  and  O_21
REMARK                            x       y       z     vdW  Elec       q    Type
REMARK                         _______ _______ _______ _____ _____    ______ ____
ROOT
ATOM      1  C   UNL     1       4.774   5.804  18.028  0.00  0.00    +0.000 A 
ATOM      2  C   UNL     1       3.590   6.407  18.212  0.00  0.00    +0.000 A 
ATOM      3  O   UNL     1       2.568   5.950  19.008  0.00  0.00    +0.000 OA
ATOM      4  C   UNL     1       2.754   4.757  19.667  0.00  0.00    +0.000 A 
ATOM      5  C   UNL     1       1.683   4.314  20.450  0.00  0.00    +0.000 A 
ATOM      6  C   UNL     1       1.802   3.118  21.148  0.00  0.00    +0.000 A 
ATOM      7  C   UNL     1       2.966   2.365  21.079  0.00  0.00    +0.000 A 
ATOM      8  C   UNL     1       4.033   2.810  20.296  0.00  0.00    +0.000 A 
ATOM      9  C   UNL     1       3.935   4.013  19.582  0.00  0.00    +0.000 A 
ATOM     10  C   UNL     1       5.039   4.544  18.751  0.00  0.00    +0.000 A 
ATOM     11  O   UNL     1       6.128   3.989  18.678  0.00  0.00    +0.000 OA
ENDROOT
BRANCH   1  12
ATOM     12  C   UNL     1       5.755   6.402  17.110  0.00  0.00    +0.000 C 
ATOM     13  O   UNL     1       6.009   7.609  17.071  0.00  0.00    +0.000 OA
BRANCH  12  14
ATOM     14  O   UNL     1       6.299   5.467  16.304  0.00  0.00    +0.000 OA
BRANCH  14  15
ATOM     15  C   UNL     1       5.746   5.416  14.983  0.00  0.00    +0.000 C 
BRANCH  15  16
ATOM     16  C   UNL     1       6.348   4.244  14.220  0.00  0.00    +0.000 C 
BRANCH  16  17
ATOM     17  C   UNL     1       7.193   4.733  13.047  0.00  0.00    +0.000 C 
BRANCH  17  18
ATOM     18  C   UNL     1       6.947   3.889  11.798  0.00  0.00    +0.000 C 
BRANCH  18  19
ATOM     19  C   UNL     1       6.178   2.611  12.135  0.00  0.00    +0.000 C 
BRANCH  19  20
ATOM     20  C   UNL     1       5.019   2.393  11.163  0.00  0.00    +0.000 C 
BRANCH  20  22
ATOM     21  C   UNL     1       3.186   3.703  10.046  0.00  0.00    +0.000 C 
ATOM     22  C   UNL     1       3.928   3.448  11.347  0.00  0.00    +0.000 C 
ENDBRANCH  20  22
ENDBRANCH  19  20
ENDBRANCH  18  19
ENDBRANCH  17  18
ENDBRANCH  16  17
ENDBRANCH  15  16
ENDBRANCH  14  15
ENDBRANCH  12  14
ENDBRANCH   1  12
BRANCH   6  23
ATOM     23  O   UNL     1       0.788   2.639  21.925  0.00  0.00    +0.000 OA
ATOM     24  H   UNL     1       0.706   3.188  22.723  0.00  0.00    +0.000 HD
ENDBRANCH   6  23
BRANCH   8  25
ATOM     25  O   UNL     1       5.165   2.049  20.242  0.00  0.00    +0.000 OA
ATOM     26  H   UNL     1       5.890   2.484  20.716  0.00  0.00    +0.000 HD
ENDBRANCH   8  25
TORSDOF 11
ENDMDL
MODEL 9
REMARK VINA RESULT:      -7.1      3.825      6.837
REMARK  Name = 
REMARK  12 active torsions:
REMARK  status: ('A' for Active; 'I' for Inactive)
REMARK    1  A    between atoms: C_1  and  C_2
REMARK    2  A    between atoms: C_2  and  C_3
REMARK    3  A    between atoms: C_3  and  C_4
REMARK    4  A    between atoms: C_4  and  C_5
REMARK    5  A    between atoms: C_5  and  C_6
REMARK    6  A    between atoms: C_6  and  C_7
REMARK    7  A    between atoms: C_7  and  C_8
REMARK    8  A    between atoms: C_8  and  O_9
REMARK    9  A    between atoms: O_9  and  C_10
REMARK   10  A    between atoms: C_10  and  C_12
REMARK   11  A    between atoms: C_17  and  O_18
REMARK   12  A    between atoms: C_20  and  O_21
REMARK                            x       y       z     vdW  Elec       q    Type
REMARK                         _______ _______ _______ _____ _____    ______ ____
ROOT
ATOM      1  C   UNL     1       4.862   6.010  17.740  0.00  0.00    +0.000 A 
ATOM      2  C   UNL     1       3.691   6.629  17.955  0.00  0.00    +0.000 A 
ATOM      3  O   UNL     1       2.669   6.168  18.748  0.00  0.00    +0.000 OA
ATOM      4  C   UNL     1       2.838   4.953  19.368  0.00  0.00    +0.000 A 
ATOM      5  C   UNL     1       1.767   4.506  20.148  0.00  0.00    +0.000 A 
ATOM      6  C   UNL     1       1.869   3.288  20.809  0.00  0.00    +0.000 A 
ATOM      7  C   UNL     1       3.018   2.514  20.704  0.00  0.00    +0.000 A 
ATOM      8  C   UNL     1       4.085   2.962  19.923  0.00  0.00    +0.000 A 
ATOM      9  C   UNL     1       4.003   4.188  19.248  0.00  0.00    +0.000 A 
ATOM     10  C   UNL     1       5.110   4.723  18.422  0.00  0.00    +0.000 A 
ATOM     11  O   UNL     1       6.186   4.150  18.320  0.00  0.00    +0.000 OA
ENDROOT
BRANCH   1  12
ATOM     12  C   UNL     1       5.845   6.617  16.830  0.00  0.00    +0.000 C 
ATOM     13  O   UNL     1       5.601   6.907  15.656  0.00  0.00    +0.000 OA
BRANCH  12  14
ATOM     14  O   UNL     1       7.039   6.773  17.438  0.00  0.00    +0.000 OA
BRANCH  14  15
ATOM     15  C   UNL     1       7.480   8.131  17.558  0.00  0.00    +0.000 C 
BRANCH  15  16
ATOM     16  C   UNL     1       8.604   8.216  18.581  0.00  0.00    +0.000 C 
BRANCH  16  17
ATOM     17  C   UNL     1       8.810   9.654  19.048  0.00  0.00    +0.000 C 
BRANCH  17  18
ATOM     18  C   UNL     1       8.889  10.614  17.863  0.00  0.00    +0.000 C 
BRANCH  18  19
ATOM     19  C   UNL     1       9.625  11.901  18.240  0.00  0.00    +0.000 C 
BRANCH  19  20
ATOM     20  C   UNL     1      11.072  11.872  17.747  0.00  0.00    +0.000 C 
BRANCH  20  22
ATOM     21  C   UNL     1      11.380  11.978  20.241  0.00  0.00    +0.000 C 
ATOM     22  C   UNL     1      12.057  12.126  18.888  0.00  0.00    +0.000 C 
ENDBRANCH  20  22
ENDBRANCH  19  20
ENDBRANCH  18  19
ENDBRANCH  17  18
ENDBRANCH  16  17
ENDBRANCH  15  16
ENDBRANCH  14  15
ENDBRANCH  12  14
ENDBRANCH   1  12
BRANCH   6  23
ATOM     23  O   UNL     1       0.854   2.805  21.582  0.00  0.00    +0.000 OA
ATOM     24  H   UNL     1       0.735   3.382  22.355  0.00  0.00    +0.000 HD
ENDBRANCH   6  23
BRANCH   8  25
ATOM     25  O   UNL     1       5.201   2.181  19.834  0.00  0.00    +0.000 OA
ATOM     26  H   UNL     1       5.639   2.311  18.979  0.00  0.00    +0.000 HD
ENDBRANCH   8  25
TORSDOF 11
ENDMDL
