MODEL 1
REMARK VINA RESULT:      -7.6      0.000      0.000
REMARK  Name = 
REMARK  10 active torsions:
REMARK  status: ('A' for Active; 'I' for Inactive)
REMARK    1  A    between atoms: CG_2  and  OD2_3
REMARK    2  A    between atoms: CG_2  and  CB_4
REMARK    3  A    between atoms: CB_4  and  CA_5
REMARK    4  A    between atoms: CA_5  and  N_6
REMARK    5  A    between atoms: CA_5  and  C_30
REMARK    6  A    between atoms: C_7  and  C_9
REMARK    7  A    between atoms: C_18  and  N_19
REMARK    8  A    between atoms: C_20  and  O_22
REMARK    9  A    between atoms: O_22  and  C_23
REMARK   10  A    between atoms: C_30  and  OXT_32
REMARK                            x       y       z     vdW  Elec       q    Type
REMARK                         _______ _______ _______ _____ _____    ______ ____
ROOT
ATOM      1  C   UNK A   0       3.845   6.128  18.881  0.00  0.00    +0.000 A 
ATOM      2  C   UNK A   0       2.710   6.623  19.569  0.00  0.00    +0.000 A 
ATOM      3  C   UNK A   0       2.103   7.835  19.227  0.00  0.00    +0.000 A 
ATOM      4  C   UNK A   0       0.938   8.284  19.876  0.00  0.00    +0.000 A 
ATOM      5  C   UNK A   0       0.330   9.479  19.494  0.00  0.00    +0.000 A 
ATOM      6  C   UNK A   0       0.882  10.237  18.466  0.00  0.00    +0.000 A 
ATOM      7  C   UNK A   0       2.045   9.804  17.826  0.00  0.00    +0.000 A 
ATOM      8  C   UNK A   0       2.668   8.603  18.199  0.00  0.00    +0.000 A 
ATOM      9  C   UNK A   0       3.845   8.149  17.570  0.00  0.00    +0.000 A 
ATOM     10  C   UNK A   0       4.476   6.932  17.902  0.00  0.00    +0.000 A 
ENDROOT
BRANCH   1  12
ATOM     11  N   ASP A   1       3.362   3.772  19.350  0.00  0.00    +0.000 N 
ATOM     12  C   UNK A   0       4.327   4.755  19.252  0.00  0.00    +0.000 C 
ATOM     13  O   UNK A   0       5.516   4.541  19.453  0.00  0.00    +0.000 OA
ATOM     14  H   ASP A   1       2.432   3.942  18.980  0.00  0.00    +0.000 HD
BRANCH  11  15
ATOM     15  CA  ASP A   1       3.606   2.388  19.779  0.00  0.00    +0.000 C 
BRANCH  15  16
ATOM     16  C   ASP A   1       3.552   1.520  18.507  0.00  0.00    +0.000 C 
ATOM     17  O   ASP A   1       2.766   1.735  17.591  0.00  0.00    +0.000 OA
BRANCH  16  18
ATOM     18  OXT ASP A   1       4.414   0.481  18.482  0.00  0.00    +0.000 OA
ATOM     19  HXT ASP A   1       4.674   0.132  19.370  0.00  0.00    +0.000 HD
ENDBRANCH  16  18
ENDBRANCH  15  16
BRANCH  15  20
ATOM     20  CB  ASP A   1       2.537   1.901  20.761  0.00  0.00    +0.000 C 
BRANCH  20  22
ATOM     21  OD1 ASP A   1       2.181   3.753  22.249  0.00  0.00    +0.000 OA
ATOM     22  CG  ASP A   1       1.785   3.084  21.303  0.00  0.00    +0.000 C 
BRANCH  22  23
ATOM     23  OD2 ASP A   1       0.612   3.319  20.685  0.00  0.00    +0.000 OA
ATOM     24  HD2 ASP A   1       0.608   4.080  20.072  0.00  0.00    +0.000 HD
ENDBRANCH  22  23
ENDBRANCH  20  22
ENDBRANCH  15  20
ENDBRANCH  11  15
ENDBRANCH   1  12
BRANCH  10  25
ATOM     25  N   UNK A   0       5.671   6.527  17.224  0.00  0.00    +0.000 N 
ATOM     26  C   UNK A   0       5.864   6.524  15.846  0.00  0.00    +0.000 C 
ATOM     27  O   UNK A   0       5.121   7.068  15.035  0.00  0.00    +0.000 OA
ATOM     28  H   UNK A   0       6.483   6.312  17.799  0.00  0.00    +0.000 HD
BRANCH  26  29
ATOM     29  O   UNK A   0       7.002   5.798  15.468  0.00  0.00    +0.000 OA
BRANCH  29  30
ATOM     30  C   UNK A   0       6.841   5.007  14.298  0.00  0.00    +0.000 A 
ATOM     31  C   UNK A   0       7.561   5.333  13.138  0.00  0.00    +0.000 A 
ATOM     32  C   UNK A   0       7.465   4.533  11.997  0.00  0.00    +0.000 A 
ATOM     33  C   UNK A   0       6.624   3.422  11.989  0.00  0.00    +0.000 A 
ATOM     34  C   UNK A   0       5.851   3.134  13.116  0.00  0.00    +0.000 A 
ATOM     35  C   UNK A   0       5.944   3.929  14.269  0.00  0.00    +0.000 A 
ATOM     36 CL   UNK A   0       4.922   3.565  15.604  0.00  0.00    +0.000 Cl
ENDBRANCH  29  30
ENDBRANCH  26  29
ENDBRANCH  10  25
TORSDOF 10
ENDMDL
MODEL 2
REMARK VINA RESULT:      -7.5      1.734      2.472
REMARK  Name = 
REMARK  10 active torsions:
REMARK  status: ('A' for Active; 'I' for Inactive)
REMARK    1  A    between atoms: CG_2  and  OD2_3
REMARK    2  A    between atoms: CG_2  and  CB_4
REMARK    3  A    between atoms: CB_4  and  CA_5
REMARK    4  A    between atoms: CA_5  and  N_6
REMARK    5  A    between atoms: CA_5  and  C_30
REMARK    6  A    between atoms: C_7  and  C_9
REMARK    7  A    between atoms: C_18  and  N_19
REMARK    8  A    between atoms: C_20  and  O_22
REMARK    9  A    between atoms: O_22  and  C_23
REMARK   10  A    between atoms: C_30  and  OXT_32
REMARK                            x       y       z     vdW  Elec       q    Type
REMARK                         _______ _______ _______ _____ _____    ______ ____
ROOT
ATOM      1  C   UNK A   0       2.470   6.394  19.807  0.00  0.00    +0.000 A 
ATOM      2  C   UNK A   0       1.685   7.405  20.415  0.00  0.00    +0.000 A 
ATOM      3  C   UNK A   0       1.434   8.630  19.789  0.00  0.00    +0.000 A 
ATOM      4  C   UNK A   0       0.600   9.599  20.374  0.00  0.00    +0.000 A 
ATOM      5  C   UNK A   0       0.336  10.799  19.714  0.00  0.00    +0.000 A 
ATOM      6  C   UNK A   0       0.907  11.042  18.469  0.00  0.00    +0.000 A 
ATOM      7  C   UNK A   0       1.745  10.089  17.887  0.00  0.00    +0.000 A 
ATOM      8  C   UNK A   0       2.019   8.876  18.538  0.00  0.00    +0.000 A 
ATOM      9  C   UNK A   0       2.867   7.903  17.971  0.00  0.00    +0.000 A 
ATOM     10  C   UNK A   0       3.136   6.663  18.588  0.00  0.00    +0.000 A 
ENDROOT
BRANCH   1  12
ATOM     11  N   ASP A   1       3.075   4.019  19.795  0.00  0.00    +0.000 N 
ATOM     12  C   UNK A   0       2.559   5.075  20.519  0.00  0.00    +0.000 C 
ATOM     13  O   UNK A   0       2.187   4.963  21.682  0.00  0.00    +0.000 OA
ATOM     14  H   ASP A   1       3.556   4.199  18.918  0.00  0.00    +0.000 HD
BRANCH  11  15
ATOM     15  CA  ASP A   1       3.172   2.633  20.271  0.00  0.00    +0.000 C 
BRANCH  15  16
ATOM     16  C   ASP A   1       4.664   2.252  20.209  0.00  0.00    +0.000 C 
ATOM     17  O   ASP A   1       5.114   1.245  20.745  0.00  0.00    +0.000 OA
BRANCH  16  18
ATOM     18  OXT ASP A   1       5.453   3.123  19.545  0.00  0.00    +0.000 OA
ATOM     19  HXT ASP A   1       5.185   3.300  18.609  0.00  0.00    +0.000 HD
ENDBRANCH  16  18
ENDBRANCH  15  16
BRANCH  15  20
ATOM     20  CB  ASP A   1       2.374   1.672  19.388  0.00  0.00    +0.000 C 
BRANCH  20  22
ATOM     21  OD1 ASP A   1       0.280   2.042  18.271  0.00  0.00    +0.000 OA
ATOM     22  CG  ASP A   1       0.954   2.152  19.288  0.00  0.00    +0.000 C 
BRANCH  22  23
ATOM     23  OD2 ASP A   1       0.497   2.754  20.403  0.00  0.00    +0.000 OA
ATOM     24  HD2 ASP A   1      -0.293   3.316  20.281  0.00  0.00    +0.000 HD
ENDBRANCH  22  23
ENDBRANCH  20  22
ENDBRANCH  15  20
ENDBRANCH  11  15
ENDBRANCH   1  12
BRANCH  10  25
ATOM     25  N   UNK A   0       4.007   5.715  17.960  0.00  0.00    +0.000 N 
ATOM     26  C   UNK A   0       3.606   4.577  17.267  0.00  0.00    +0.000 C 
ATOM     27  O   UNK A   0       2.454   4.342  16.914  0.00  0.00    +0.000 OA
ATOM     28  H   UNK A   0       5.000   5.939  17.933  0.00  0.00    +0.000 HD
BRANCH  26  29
ATOM     29  O   UNK A   0       4.669   3.693  17.032  0.00  0.00    +0.000 OA
BRANCH  29  30
ATOM     30  C   UNK A   0       5.493   4.035  15.925  0.00  0.00    +0.000 A 
ATOM     31  C   UNK A   0       5.041   3.780  14.621  0.00  0.00    +0.000 A 
ATOM     32  C   UNK A   0       5.808   4.164  13.519  0.00  0.00    +0.000 A 
ATOM     33  C   UNK A   0       7.047   4.774  13.705  0.00  0.00    +0.000 A 
ATOM     34  C   UNK A   0       7.534   4.965  15.000  0.00  0.00    +0.000 A 
ATOM     35  C   UNK A   0       6.768   4.586  16.114  0.00  0.00    +0.000 A 
ATOM     36 CL   UNK A   0       7.445   4.788  17.684  0.00  0.00    +0.000 Cl
ENDBRANCH  29  30
ENDBRANCH  26  29
ENDBRANCH  10  25
TORSDOF 10
ENDMDL
MODEL 3
REMARK VINA RESULT:      -7.2      1.114      1.461
REMARK  Name = 
REMARK  10 active torsions:
REMARK  status: ('A' for Active; 'I' for Inactive)
REMARK    1  A    between atoms: CG_2  and  OD2_3
REMARK    2  A    between atoms: CG_2  and  CB_4
REMARK    3  A    between atoms: CB_4  and  CA_5
REMARK    4  A    between atoms: CA_5  and  N_6
REMARK    5  A    between atoms: CA_5  and  C_30
REMARK    6  A    between atoms: C_7  and  C_9
REMARK    7  A    between atoms: C_18  and  N_19
REMARK    8  A    between atoms: C_20  and  O_22
REMARK    9  A    between atoms: O_22  and  C_23
REMARK   10  A    between atoms: C_30  and  OXT_32
REMARK                            x       y       z     vdW  Elec       q    Type
REMARK                         _______ _______ _______ _____ _____    ______ ____
ROOT
ATOM      1  C   UNK A   0       3.523   6.281  18.812  0.00  0.00    +0.000 A 
ATOM      2  C   UNK A   0       2.423   6.861  19.491  0.00  0.00    +0.000 A 
ATOM      3  C   UNK A   0       1.929   8.126  19.162  0.00  0.00    +0.000 A 
ATOM      4  C   UNK A   0       0.796   8.663  19.800  0.00  0.00    +0.000 A 
ATOM      5  C   UNK A   0       0.300   9.913  19.430  0.00  0.00    +0.000 A 
ATOM      6  C   UNK A   0       0.933  10.637  18.425  0.00  0.00    +0.000 A 
ATOM      7  C   UNK A   0       2.065  10.116  17.796  0.00  0.00    +0.000 A 
ATOM      8  C   UNK A   0       2.576   8.859  18.157  0.00  0.00    +0.000 A 
ATOM      9  C   UNK A   0       3.720   8.316  17.538  0.00  0.00    +0.000 A 
ATOM     10  C   UNK A   0       4.238   7.044  17.858  0.00  0.00    +0.000 A 
ENDROOT
BRANCH   1  12
ATOM     11  N   ASP A   1       2.868   3.931  19.046  0.00  0.00    +0.000 N 
ATOM     12  C   UNK A   0       3.878   4.866  19.166  0.00  0.00    +0.000 C 
ATOM     13  O   UNK A   0       5.009   4.577  19.538  0.00  0.00    +0.000 OA
ATOM     14  H   ASP A   1       2.018   4.171  18.545  0.00  0.00    +0.000 HD
BRANCH  11  15
ATOM     15  CA  ASP A   1       2.979   2.514  19.419  0.00  0.00    +0.000 C 
BRANCH  15  16
ATOM     16  C   ASP A   1       3.095   1.724  18.101  0.00  0.00    +0.000 C 
ATOM     17  O   ASP A   1       2.418   1.982  17.112  0.00  0.00    +0.000 OA
BRANCH  16  18
ATOM     18  OXT ASP A   1       3.975   0.700  18.118  0.00  0.00    +0.000 OA
ATOM     19  HXT ASP A   1       4.621   0.693  17.369  0.00  0.00    +0.000 HD
ENDBRANCH  16  18
ENDBRANCH  15  16
BRANCH  15  20
ATOM     20  CB  ASP A   1       1.745   2.030  20.184  0.00  0.00    +0.000 C 
BRANCH  20  22
ATOM     21  OD1 ASP A   1       0.944   2.535  22.392  0.00  0.00    +0.000 OA
ATOM     22  CG  ASP A   1       1.896   2.374  21.639  0.00  0.00    +0.000 C 
BRANCH  22  23
ATOM     23  OD2 ASP A   1       3.174   2.533  22.037  0.00  0.00    +0.000 OA
ATOM     24  HD2 ASP A   1       3.839   2.514  21.322  0.00  0.00    +0.000 HD
ENDBRANCH  22  23
ENDBRANCH  20  22
ENDBRANCH  15  20
ENDBRANCH  11  15
ENDBRANCH   1  12
BRANCH  10  25
ATOM     25  N   UNK A   0       5.404   6.548  17.191  0.00  0.00    +0.000 N 
ATOM     26  C   UNK A   0       5.598   6.503  15.814  0.00  0.00    +0.000 C 
ATOM     27  O   UNK A   0       4.892   7.076  14.990  0.00  0.00    +0.000 OA
ATOM     28  H   UNK A   0       6.201   6.294  17.772  0.00  0.00    +0.000 HD
BRANCH  26  29
ATOM     29  O   UNK A   0       6.688   5.697  15.454  0.00  0.00    +0.000 OA
BRANCH  29  30
ATOM     30  C   UNK A   0       6.478   4.894  14.301  0.00  0.00    +0.000 A 
ATOM     31  C   UNK A   0       5.398   3.997  14.269  0.00  0.00    +0.000 A 
ATOM     32  C   UNK A   0       5.137   3.244  13.123  0.00  0.00    +0.000 A 
ATOM     33  C   UNK A   0       5.970   3.350  12.010  0.00  0.00    +0.000 A 
ATOM     34  C   UNK A   0       7.086   4.187  12.061  0.00  0.00    +0.000 A 
ATOM     35  C   UNK A   0       7.354   4.951  13.208  0.00  0.00    +0.000 A 
ATOM     36 CL   UNK A   0       8.779   5.917  13.239  0.00  0.00    +0.000 Cl
ENDBRANCH  29  30
ENDBRANCH  26  29
ENDBRANCH  10  25
TORSDOF 10
ENDMDL
MODEL 4
REMARK VINA RESULT:      -7.1      3.031      7.395
REMARK  Name = 
REMARK  10 active torsions:
REMARK  status: ('A' for Active; 'I' for Inactive)
REMARK    1  A    between atoms: CG_2  and  OD2_3
REMARK    2  A    between atoms: CG_2  and  CB_4
REMARK    3  A    between atoms: CB_4  and  CA_5
REMARK    4  A    between atoms: CA_5  and  N_6
REMARK    5  A    between atoms: CA_5  and  C_30
REMARK    6  A    between atoms: C_7  and  C_9
REMARK    7  A    between atoms: C_18  and  N_19
REMARK    8  A    between atoms: C_20  and  O_22
REMARK    9  A    between atoms: O_22  and  C_23
REMARK   10  A    between atoms: C_30  and  OXT_32
REMARK                            x       y       z     vdW  Elec       q    Type
REMARK                         _______ _______ _______ _____ _____    ______ ____
ROOT
ATOM      1  C   UNK A   0       3.629   5.669  18.130  0.00  0.00    +0.000 A 
ATOM      2  C   UNK A   0       3.905   4.438  18.777  0.00  0.00    +0.000 A 
ATOM      3  C   UNK A   0       3.066   3.911  19.763  0.00  0.00    +0.000 A 
ATOM      4  C   UNK A   0       3.318   2.658  20.351  0.00  0.00    +0.000 A 
ATOM      5  C   UNK A   0       2.446   2.135  21.306  0.00  0.00    +0.000 A 
ATOM      6  C   UNK A   0       1.322   2.862  21.686  0.00  0.00    +0.000 A 
ATOM      7  C   UNK A   0       1.073   4.111  21.115  0.00  0.00    +0.000 A 
ATOM      8  C   UNK A   0       1.940   4.650  20.151  0.00  0.00    +0.000 A 
ATOM      9  C   UNK A   0       1.709   5.911  19.566  0.00  0.00    +0.000 A 
ATOM     10  C   UNK A   0       2.545   6.464  18.574  0.00  0.00    +0.000 A 
ENDROOT
BRANCH   1  12
ATOM     11  N   ASP A   1       5.225   5.045  16.379  0.00  0.00    +0.000 N 
ATOM     12  C   UNK A   0       4.532   6.066  16.999  0.00  0.00    +0.000 C 
ATOM     13  O   UNK A   0       4.632   7.239  16.659  0.00  0.00    +0.000 OA
ATOM     14  H   ASP A   1       4.961   4.080  16.552  0.00  0.00    +0.000 HD
BRANCH  11  15
ATOM     15  CA  ASP A   1       6.219   5.224  15.311  0.00  0.00    +0.000 C 
BRANCH  15  16
ATOM     16  C   ASP A   1       6.213   3.923  14.486  0.00  0.00    +0.000 C 
ATOM     17  O   ASP A   1       6.358   3.910  13.269  0.00  0.00    +0.000 OA
BRANCH  16  18
ATOM     18  OXT ASP A   1       6.003   2.793  15.194  0.00  0.00    +0.000 OA
ATOM     19  HXT ASP A   1       6.603   2.670  15.971  0.00  0.00    +0.000 HD
ENDBRANCH  16  18
ENDBRANCH  15  16
BRANCH  15  20
ATOM     20  CB  ASP A   1       7.623   5.451  15.875  0.00  0.00    +0.000 C 
BRANCH  20  22
ATOM     21  OD1 ASP A   1       7.585   4.364  18.017  0.00  0.00    +0.000 OA
ATOM     22  CG  ASP A   1       7.570   5.407  17.376  0.00  0.00    +0.000 C 
BRANCH  22  23
ATOM     23  OD2 ASP A   1       7.461   6.617  17.958  0.00  0.00    +0.000 OA
ATOM     24  HD2 ASP A   1       8.217   7.219  17.814  0.00  0.00    +0.000 HD
ENDBRANCH  22  23
ENDBRANCH  20  22
ENDBRANCH  15  20
ENDBRANCH  11  15
ENDBRANCH   1  12
BRANCH  10  25
ATOM     25  N   UNK A   0       2.256   7.752  18.018  0.00  0.00    +0.000 N 
ATOM     26  C   UNK A   0       1.699   8.828  18.702  0.00  0.00    +0.000 C 
ATOM     27  O   UNK A   0       1.577   8.893  19.922  0.00  0.00    +0.000 OA
ATOM     28  H   UNK A   0       2.571   7.931  17.067  0.00  0.00    +0.000 HD
BRANCH  26  29
ATOM     29  O   UNK A   0       1.254   9.838  17.838  0.00  0.00    +0.000 OA
BRANCH  29  30
ATOM     30  C   UNK A   0      -0.045  10.337  18.125  0.00  0.00    +0.000 A 
ATOM     31  C   UNK A   0      -1.167   9.714  17.557  0.00  0.00    +0.000 A 
ATOM     32  C   UNK A   0      -2.455  10.150  17.874  0.00  0.00    +0.000 A 
ATOM     33  C   UNK A   0      -2.637  11.233  18.733  0.00  0.00    +0.000 A 
ATOM     34  C   UNK A   0      -1.523  11.902  19.245  0.00  0.00    +0.000 A 
ATOM     35  C   UNK A   0      -0.224  11.468  18.935  0.00  0.00    +0.000 A 
ATOM     36 CL   UNK A   0       1.111  12.369  19.542  0.00  0.00    +0.000 Cl
ENDBRANCH  29  30
ENDBRANCH  26  29
ENDBRANCH  10  25
TORSDOF 10
ENDMDL
MODEL 5
REMARK VINA RESULT:      -7.1      2.916      7.516
REMARK  Name = 
REMARK  10 active torsions:
REMARK  status: ('A' for Active; 'I' for Inactive)
REMARK    1  A    between atoms: CG_2  and  OD2_3
REMARK    2  A    between atoms: CG_2  and  CB_4
REMARK    3  A    between atoms: CB_4  and  CA_5
REMARK    4  A    between atoms: CA_5  and  N_6
REMARK    5  A    between atoms: CA_5  and  C_30
REMARK    6  A    between atoms: C_7  and  C_9
REMARK    7  A    between atoms: C_18  and  N_19
REMARK    8  A    between atoms: C_20  and  O_22
REMARK    9  A    between atoms: O_22  and  C_23
REMARK   10  A    between atoms: C_30  and  OXT_32
REMARK                            x       y       z     vdW  Elec       q    Type
REMARK                         _______ _______ _______ _____ _____    ______ ____
ROOT
ATOM      1  C   UNK A   0       3.625   5.674  18.135  0.00  0.00    +0.000 A 
ATOM      2  C   UNK A   0       3.957   4.441  18.751  0.00  0.00    +0.000 A 
ATOM      3  C   UNK A   0       3.179   3.886  19.771  0.00  0.00    +0.000 A 
ATOM      4  C   UNK A   0       3.484   2.631  20.329  0.00  0.00    +0.000 A 
ATOM      5  C   UNK A   0       2.672   2.080  21.320  0.00  0.00    +0.000 A 
ATOM      6  C   UNK A   0       1.555   2.780  21.765  0.00  0.00    +0.000 A 
ATOM      7  C   UNK A   0       1.254   4.031  21.224  0.00  0.00    +0.000 A 
ATOM      8  C   UNK A   0       2.060   4.598  20.225  0.00  0.00    +0.000 A 
ATOM      9  C   UNK A   0       1.777   5.862  19.669  0.00  0.00    +0.000 A 
ATOM     10  C   UNK A   0       2.551   6.443  18.643  0.00  0.00    +0.000 A 
ENDROOT
BRANCH   1  12
ATOM     11  N   ASP A   1       5.143   5.103  16.297  0.00  0.00    +0.000 N 
ATOM     12  C   UNK A   0       4.462   6.102  16.964  0.00  0.00    +0.000 C 
ATOM     13  O   UNK A   0       4.524   7.281  16.635  0.00  0.00    +0.000 OA
ATOM     14  H   ASP A   1       4.905   4.131  16.471  0.00  0.00    +0.000 HD
BRANCH  11  15
ATOM     15  CA  ASP A   1       6.077   5.313  15.183  0.00  0.00    +0.000 C 
BRANCH  15  16
ATOM     16  C   ASP A   1       6.215   3.957  14.466  0.00  0.00    +0.000 C 
ATOM     17  O   ASP A   1       6.414   3.862  13.260  0.00  0.00    +0.000 OA
BRANCH  16  18
ATOM     18  OXT ASP A   1       6.072   2.871  15.255  0.00  0.00    +0.000 OA
ATOM     19  HXT ASP A   1       5.506   3.008  16.056  0.00  0.00    +0.000 HD
ENDBRANCH  16  18
ENDBRANCH  15  16
BRANCH  15  20
ATOM     20  CB  ASP A   1       7.455   5.761  15.675  0.00  0.00    +0.000 C 
BRANCH  20  22
ATOM     21  OD1 ASP A   1       7.480   6.139  18.047  0.00  0.00    +0.000 OA
ATOM     22  CG  ASP A   1       7.624   5.360  17.114  0.00  0.00    +0.000 C 
BRANCH  22  23
ATOM     23  OD2 ASP A   1       7.991   4.075  17.287  0.00  0.00    +0.000 OA
ATOM     24  HD2 ASP A   1       8.500   3.893  18.101  0.00  0.00    +0.000 HD
ENDBRANCH  22  23
ENDBRANCH  20  22
ENDBRANCH  15  20
ENDBRANCH  11  15
ENDBRANCH   1  12
BRANCH  10  25
ATOM     25  N   UNK A   0       2.210   7.731  18.119  0.00  0.00    +0.000 N 
ATOM     26  C   UNK A   0       1.585   8.757  18.822  0.00  0.00    +0.000 C 
ATOM     27  O   UNK A   0       1.434   8.778  20.040  0.00  0.00    +0.000 OA
ATOM     28  H   UNK A   0       2.536   7.955  17.181  0.00  0.00    +0.000 HD
BRANCH  26  29
ATOM     29  O   UNK A   0       1.110   9.770  17.978  0.00  0.00    +0.000 OA
BRANCH  29  30
ATOM     30  C   UNK A   0       0.323  10.761  18.624  0.00  0.00    +0.000 A 
ATOM     31  C   UNK A   0       0.920  11.618  19.562  0.00  0.00    +0.000 A 
ATOM     32  C   UNK A   0       0.180  12.638  20.162  0.00  0.00    +0.000 A 
ATOM     33  C   UNK A   0      -1.172  12.794  19.860  0.00  0.00    +0.000 A 
ATOM     34  C   UNK A   0      -1.790  11.901  18.981  0.00  0.00    +0.000 A 
ATOM     35  C   UNK A   0      -1.052  10.874  18.370  0.00  0.00    +0.000 A 
ATOM     36 CL   UNK A   0      -1.878   9.765  17.346  0.00  0.00    +0.000 Cl
ENDBRANCH  29  30
ENDBRANCH  26  29
ENDBRANCH  10  25
TORSDOF 10
ENDMDL
MODEL 6
REMARK VINA RESULT:      -7.0      2.981      7.536
REMARK  Name = 
REMARK  10 active torsions:
REMARK  status: ('A' for Active; 'I' for Inactive)
REMARK    1  A    between atoms: CG_2  and  OD2_3
REMARK    2  A    between atoms: CG_2  and  CB_4
REMARK    3  A    between atoms: CB_4  and  CA_5
REMARK    4  A    between atoms: CA_5  and  N_6
REMARK    5  A    between atoms: CA_5  and  C_30
REMARK    6  A    between atoms: C_7  and  C_9
REMARK    7  A    between atoms: C_18  and  N_19
REMARK    8  A    between atoms: C_20  and  O_22
REMARK    9  A    between atoms: O_22  and  C_23
REMARK   10  A    between atoms: C_30  and  OXT_32
REMARK                            x       y       z     vdW  Elec       q    Type
REMARK                         _______ _______ _______ _____ _____    ______ ____
ROOT
ATOM      1  C   UNK A   0       3.836   4.872  17.984  0.00  0.00    +0.000 A 
ATOM      2  C   UNK A   0       4.041   3.691  18.740  0.00  0.00    +0.000 A 
ATOM      3  C   UNK A   0       3.232   3.356  19.830  0.00  0.00    +0.000 A 
ATOM      4  C   UNK A   0       3.406   2.150  20.532  0.00  0.00    +0.000 A 
ATOM      5  C   UNK A   0       2.564   1.820  21.594  0.00  0.00    +0.000 A 
ATOM      6  C   UNK A   0       1.547   2.694  21.965  0.00  0.00    +0.000 A 
ATOM      7  C   UNK A   0       1.377   3.898  21.280  0.00  0.00    +0.000 A 
ATOM      8  C   UNK A   0       2.216   4.244  20.209  0.00  0.00    +0.000 A 
ATOM      9  C   UNK A   0       2.064   5.457  19.508  0.00  0.00    +0.000 A 
ATOM     10  C   UNK A   0       2.872   5.816  18.409  0.00  0.00    +0.000 A 
ENDROOT
BRANCH   1  12
ATOM     11  N   ASP A   1       5.234   3.913  16.214  0.00  0.00    +0.000 N 
ATOM     12  C   UNK A   0       4.685   5.057  16.759  0.00  0.00    +0.000 C 
ATOM     13  O   UNK A   0       4.867   6.172  16.285  0.00  0.00    +0.000 OA
ATOM     14  H   ASP A   1       4.895   3.003  16.510  0.00  0.00    +0.000 HD
BRANCH  11  15
ATOM     15  CA  ASP A   1       6.156   3.879  15.071  0.00  0.00    +0.000 C 
BRANCH  15  16
ATOM     16  C   ASP A   1       7.353   4.772  15.449  0.00  0.00    +0.000 C 
ATOM     17  O   ASP A   1       7.779   5.657  14.714  0.00  0.00    +0.000 OA
BRANCH  16  18
ATOM     18  OXT ASP A   1       7.927   4.494  16.639  0.00  0.00    +0.000 OA
ATOM     19  HXT ASP A   1       8.884   4.735  16.708  0.00  0.00    +0.000 HD
ENDBRANCH  16  18
ENDBRANCH  15  16
BRANCH  15  20
ATOM     20  CB  ASP A   1       5.506   4.429  13.800  0.00  0.00    +0.000 C 
BRANCH  20  22
ATOM     21  OD1 ASP A   1       5.499   2.665  12.169  0.00  0.00    +0.000 OA
ATOM     22  CG  ASP A   1       6.029   3.677  12.608  0.00  0.00    +0.000 C 
BRANCH  22  23
ATOM     23  OD2 ASP A   1       7.160   4.191  12.088  0.00  0.00    +0.000 OA
ATOM     24  HD2 ASP A   1       7.856   4.412  12.737  0.00  0.00    +0.000 HD
ENDBRANCH  22  23
ENDBRANCH  20  22
ENDBRANCH  15  20
ENDBRANCH  11  15
ENDBRANCH   1  12
BRANCH  10  25
ATOM     25  N   UNK A   0       2.667   7.065  17.737  0.00  0.00    +0.000 N 
ATOM     26  C   UNK A   0       2.253   8.252  18.333  0.00  0.00    +0.000 C 
ATOM     27  O   UNK A   0       2.214   8.450  19.544  0.00  0.00    +0.000 OA
ATOM     28  H   UNK A   0       2.937   7.117  16.757  0.00  0.00    +0.000 HD
BRANCH  26  29
ATOM     29  O   UNK A   0       1.850   9.210  17.393  0.00  0.00    +0.000 OA
BRANCH  29  30
ATOM     30  C   UNK A   0       0.823  10.085  17.838  0.00  0.00    +0.000 A 
ATOM     31  C   UNK A   0      -0.510   9.644  17.841  0.00  0.00    +0.000 A 
ATOM     32  C   UNK A   0      -1.527  10.466  18.332  0.00  0.00    +0.000 A 
ATOM     33  C   UNK A   0      -1.230  11.747  18.793  0.00  0.00    +0.000 A 
ATOM     34  C   UNK A   0       0.083  12.218  18.727  0.00  0.00    +0.000 A 
ATOM     35  C   UNK A   0       1.112  11.398  18.238  0.00  0.00    +0.000 A 
ATOM     36 CL   UNK A   0       2.699  12.052  18.120  0.00  0.00    +0.000 Cl
ENDBRANCH  29  30
ENDBRANCH  26  29
ENDBRANCH  10  25
TORSDOF 10
ENDMDL
MODEL 7
REMARK VINA RESULT:      -7.0      1.246      1.618
REMARK  Name = 
REMARK  10 active torsions:
REMARK  status: ('A' for Active; 'I' for Inactive)
REMARK    1  A    between atoms: CG_2  and  OD2_3
REMARK    2  A    between atoms: CG_2  and  CB_4
REMARK    3  A    between atoms: CB_4  and  CA_5
REMARK    4  A    between atoms: CA_5  and  N_6
REMARK    5  A    between atoms: CA_5  and  C_30
REMARK    6  A    between atoms: C_7  and  C_9
REMARK    7  A    between atoms: C_18  and  N_19
REMARK    8  A    between atoms: C_20  and  O_22
REMARK    9  A    between atoms: O_22  and  C_23
REMARK   10  A    between atoms: C_30  and  OXT_32
REMARK                            x       y       z     vdW  Elec       q    Type
REMARK                         _______ _______ _______ _____ _____    ______ ____
ROOT
ATOM      1  C   UNK A   0       3.602   6.179  18.973  0.00  0.00    +0.000 A 
ATOM      2  C   UNK A   0       2.516   6.803  19.636  0.00  0.00    +0.000 A 
ATOM      3  C   UNK A   0       1.981   8.021  19.203  0.00  0.00    +0.000 A 
ATOM      4  C   UNK A   0       0.862   8.597  19.831  0.00  0.00    +0.000 A 
ATOM      5  C   UNK A   0       0.323   9.795  19.360  0.00  0.00    +0.000 A 
ATOM      6  C   UNK A   0       0.901  10.427  18.263  0.00  0.00    +0.000 A 
ATOM      7  C   UNK A   0       2.019   9.866  17.643  0.00  0.00    +0.000 A 
ATOM      8  C   UNK A   0       2.572   8.661  18.105  0.00  0.00    +0.000 A 
ATOM      9  C   UNK A   0       3.703   8.081  17.497  0.00  0.00    +0.000 A 
ATOM     10  C   UNK A   0       4.261   6.857  17.920  0.00  0.00    +0.000 A 
ENDROOT
BRANCH   1  12
ATOM     11  N   ASP A   1       2.974   3.958  19.795  0.00  0.00    +0.000 N 
ATOM     12  C   UNK A   0       4.002   4.813  19.450  0.00  0.00    +0.000 C 
ATOM     13  O   UNK A   0       5.183   4.495  19.522  0.00  0.00    +0.000 OA
ATOM     14  H   ASP A   1       2.021   4.185  19.529  0.00  0.00    +0.000 HD
BRANCH  11  15
ATOM     15  CA  ASP A   1       3.147   2.613  20.361  0.00  0.00    +0.000 C 
BRANCH  15  16
ATOM     16  C   ASP A   1       4.095   1.857  19.411  0.00  0.00    +0.000 C 
ATOM     17  O   ASP A   1       3.799   1.596  18.250  0.00  0.00    +0.000 OA
BRANCH  16  18
ATOM     18  OXT ASP A   1       5.269   1.472  19.954  0.00  0.00    +0.000 OA
ATOM     19  HXT ASP A   1       5.367   0.497  20.089  0.00  0.00    +0.000 HD
ENDBRANCH  16  18
ENDBRANCH  15  16
BRANCH  15  20
ATOM     20  CB  ASP A   1       1.819   1.858  20.446  0.00  0.00    +0.000 C 
BRANCH  20  22
ATOM     21  OD1 ASP A   1      -0.065   3.198  19.792  0.00  0.00    +0.000 OA
ATOM     22  CG  ASP A   1       0.847   2.450  19.464  0.00  0.00    +0.000 C 
BRANCH  22  23
ATOM     23  OD2 ASP A   1       1.039   2.050  18.192  0.00  0.00    +0.000 OA
ATOM     24  HD2 ASP A   1       1.682   2.579  17.681  0.00  0.00    +0.000 HD
ENDBRANCH  22  23
ENDBRANCH  20  22
ENDBRANCH  15  20
ENDBRANCH  11  15
ENDBRANCH   1  12
BRANCH  10  25
ATOM     25  N   UNK A   0       5.413   6.319  17.259  0.00  0.00    +0.000 N 
ATOM     26  C   UNK A   0       5.656   6.353  15.890  0.00  0.00    +0.000 C 
ATOM     27  O   UNK A   0       5.026   7.034  15.085  0.00  0.00    +0.000 OA
ATOM     28  H   UNK A   0       6.165   5.965  17.847  0.00  0.00    +0.000 HD
BRANCH  26  29
ATOM     29  O   UNK A   0       6.694   5.492  15.510  0.00  0.00    +0.000 OA
BRANCH  29  30
ATOM     30  C   UNK A   0       6.469   4.788  14.296  0.00  0.00    +0.000 A 
ATOM     31  C   UNK A   0       5.371   3.920  14.193  0.00  0.00    +0.000 A 
ATOM     32  C   UNK A   0       5.096   3.266  12.989  0.00  0.00    +0.000 A 
ATOM     33  C   UNK A   0       5.933   3.444  11.889  0.00  0.00    +0.000 A 
ATOM     34  C   UNK A   0       7.067   4.250  12.007  0.00  0.00    +0.000 A 
ATOM     35  C   UNK A   0       7.349   4.914  13.211  0.00  0.00    +0.000 A 
ATOM     36 CL   UNK A   0       8.793   5.844  13.319  0.00  0.00    +0.000 Cl
ENDBRANCH  29  30
ENDBRANCH  26  29
ENDBRANCH  10  25
TORSDOF 10
ENDMDL
MODEL 8
REMARK VINA RESULT:      -7.0      0.584      1.025
REMARK  Name = 
REMARK  10 active torsions:
REMARK  status: ('A' for Active; 'I' for Inactive)
REMARK    1  A    between atoms: CG_2  and  OD2_3
REMARK    2  A    between atoms: CG_2  and  CB_4
REMARK    3  A    between atoms: CB_4  and  CA_5
REMARK    4  A    between atoms: CA_5  and  N_6
REMARK    5  A    between atoms: CA_5  and  C_30
REMARK    6  A    between atoms: C_7  and  C_9
REMARK    7  A    between atoms: C_18  and  N_19
REMARK    8  A    between atoms: C_20  and  O_22
REMARK    9  A    between atoms: O_22  and  C_23
REMARK   10  A    between atoms: C_30  and  OXT_32
REMARK                            x       y       z     vdW  Elec       q    Type
REMARK                         _______ _______ _______ _____ _____    ______ ____
ROOT
ATOM      1  C   UNK A   0       3.626   6.310  18.867  0.00  0.00    +0.000 A 
ATOM      2  C   UNK A   0       2.490   6.857  19.515  0.00  0.00    +0.000 A 
ATOM      3  C   UNK A   0       1.958   8.100  19.160  0.00  0.00    +0.000 A 
ATOM      4  C   UNK A   0       0.792   8.602  19.766  0.00  0.00    +0.000 A 
ATOM      5  C   UNK A   0       0.259   9.828  19.370  0.00  0.00    +0.000 A 
ATOM      6  C   UNK A   0       0.889  10.564  18.372  0.00  0.00    +0.000 A 
ATOM      7  C   UNK A   0       2.053  10.078  17.774  0.00  0.00    +0.000 A 
ATOM      8  C   UNK A   0       2.601   8.845  18.161  0.00  0.00    +0.000 A 
ATOM      9  C   UNK A   0       3.778   8.338  17.574  0.00  0.00    +0.000 A 
ATOM     10  C   UNK A   0       4.334   7.089  17.921  0.00  0.00    +0.000 A 
ENDROOT
BRANCH   1  12
ATOM     11  N   ASP A   1       3.010   3.977  19.294  0.00  0.00    +0.000 N 
ATOM     12  C   UNK A   0       4.024   4.913  19.246  0.00  0.00    +0.000 C 
ATOM     13  O   UNK A   0       5.193   4.639  19.495  0.00  0.00    +0.000 OA
ATOM     14  H   ASP A   1       2.106   4.195  18.886  0.00  0.00    +0.000 HD
BRANCH  11  15
ATOM     15  CA  ASP A   1       3.168   2.580  19.719  0.00  0.00    +0.000 C 
BRANCH  15  16
ATOM     16  C   ASP A   1       3.353   1.750  18.435  0.00  0.00    +0.000 C 
ATOM     17  O   ASP A   1       4.155   0.825  18.353  0.00  0.00    +0.000 OA
BRANCH  16  18
ATOM     18  OXT ASP A   1       2.591   2.131  17.388  0.00  0.00    +0.000 OA
ATOM     19  HXT ASP A   1       1.617   2.138  17.561  0.00  0.00    +0.000 HD
ENDBRANCH  16  18
ENDBRANCH  15  16
BRANCH  15  20
ATOM     20  CB  ASP A   1       1.934   2.072  20.468  0.00  0.00    +0.000 C 
BRANCH  20  22
ATOM     21  OD1 ASP A   1       0.068   2.341  18.979  0.00  0.00    +0.000 OA
ATOM     22  CG  ASP A   1       0.710   2.760  19.934  0.00  0.00    +0.000 C 
BRANCH  22  23
ATOM     23  OD2 ASP A   1       0.401   3.906  20.571  0.00  0.00    +0.000 OA
ATOM     24  HD2 ASP A   1       0.677   3.951  21.508  0.00  0.00    +0.000 HD
ENDBRANCH  22  23
ENDBRANCH  20  22
ENDBRANCH  15  20
ENDBRANCH  11  15
ENDBRANCH   1  12
BRANCH  10  25
ATOM     25  N   UNK A   0       5.533   6.629  17.287  0.00  0.00    +0.000 N 
ATOM     26  C   UNK A   0       5.746   6.540  15.915  0.00  0.00    +0.000 C 
ATOM     27  O   UNK A   0       5.022   7.043  15.061  0.00  0.00    +0.000 OA
ATOM     28  H   UNK A   0       6.335   6.440  17.886  0.00  0.00    +0.000 HD
BRANCH  26  29
ATOM     29  O   UNK A   0       6.880   5.779  15.599  0.00  0.00    +0.000 OA
BRANCH  29  30
ATOM     30  C   UNK A   0       6.783   5.041  14.388  0.00  0.00    +0.000 A 
ATOM     31  C   UNK A   0       7.565   5.416  13.284  0.00  0.00    +0.000 A 
ATOM     32  C   UNK A   0       7.530   4.667  12.106  0.00  0.00    +0.000 A 
ATOM     33  C   UNK A   0       6.691   3.559  12.003  0.00  0.00    +0.000 A 
ATOM     34  C   UNK A   0       5.858   3.224  13.073  0.00  0.00    +0.000 A 
ATOM     35  C   UNK A   0       5.889   3.968  14.263  0.00  0.00    +0.000 A 
ATOM     36 CL   UNK A   0       4.795   3.548  15.524  0.00  0.00    +0.000 Cl
ENDBRANCH  29  30
ENDBRANCH  26  29
ENDBRANCH  10  25
TORSDOF 10
ENDMDL
MODEL 9
REMARK VINA RESULT:      -7.0      2.155      5.741
REMARK  Name = 
REMARK  10 active torsions:
REMARK  status: ('A' for Active; 'I' for Inactive)
REMARK    1  A    between atoms: CG_2  and  OD2_3
REMARK    2  A    between atoms: CG_2  and  CB_4
REMARK    3  A    between atoms: CB_4  and  CA_5
REMARK    4  A    between atoms: CA_5  and  N_6
REMARK    5  A    between atoms: CA_5  and  C_30
REMARK    6  A    between atoms: C_7  and  C_9
REMARK    7  A    between atoms: C_18  and  N_19
REMARK    8  A    between atoms: C_20  and  O_22
REMARK    9  A    between atoms: O_22  and  C_23
REMARK   10  A    between atoms: C_30  and  OXT_32
REMARK                            x       y       z     vdW  Elec       q    Type
REMARK                         _______ _______ _______ _____ _____    ______ ____
ROOT
ATOM      1  C   UNK A   0       3.554   7.330  17.363  0.00  0.00    +0.000 A 
ATOM      2  C   UNK A   0       3.349   8.731  17.308  0.00  0.00    +0.000 A 
ATOM      3  C   UNK A   0       2.393   9.376  18.099  0.00  0.00    +0.000 A 
ATOM      4  C   UNK A   0       2.243  10.774  18.081  0.00  0.00    +0.000 A 
ATOM      5  C   UNK A   0       1.308  11.398  18.906  0.00  0.00    +0.000 A 
ATOM      6  C   UNK A   0       0.511  10.630  19.750  0.00  0.00    +0.000 A 
ATOM      7  C   UNK A   0       0.646   9.240  19.763  0.00  0.00    +0.000 A 
ATOM      8  C   UNK A   0       1.584   8.598  18.940  0.00  0.00    +0.000 A 
ATOM      9  C   UNK A   0       1.732   7.197  18.934  0.00  0.00    +0.000 A 
ATOM     10  C   UNK A   0       2.686   6.527  18.141  0.00  0.00    +0.000 A 
ENDROOT
BRANCH   1  12
ATOM     11  N   ASP A   1       5.525   5.882  17.216  0.00  0.00    +0.000 N 
ATOM     12  C   UNK A   0       4.696   6.773  16.564  0.00  0.00    +0.000 C 
ATOM     13  O   UNK A   0       4.865   7.105  15.397  0.00  0.00    +0.000 OA
ATOM     14  H   ASP A   1       5.234   5.482  18.103  0.00  0.00    +0.000 HD
BRANCH  11  15
ATOM     15  CA  ASP A   1       6.741   5.286  16.647  0.00  0.00    +0.000 C 
BRANCH  15  16
ATOM     16  C   ASP A   1       6.281   4.107  15.768  0.00  0.00    +0.000 C 
ATOM     17  O   ASP A   1       6.605   3.993  14.591  0.00  0.00    +0.000 OA
BRANCH  16  18
ATOM     18  OXT ASP A   1       5.466   3.219  16.376  0.00  0.00    +0.000 OA
ATOM     19  HXT ASP A   1       5.182   3.470  17.290  0.00  0.00    +0.000 HD
ENDBRANCH  16  18
ENDBRANCH  15  16
BRANCH  15  20
ATOM     20  CB  ASP A   1       7.678   4.760  17.736  0.00  0.00    +0.000 C 
BRANCH  20  22
ATOM     21  OD1 ASP A   1       8.205   6.871  18.755  0.00  0.00    +0.000 OA
ATOM     22  CG  ASP A   1       7.730   5.748  18.868  0.00  0.00    +0.000 C 
BRANCH  22  23
ATOM     23  OD2 ASP A   1       7.247   5.275  20.033  0.00  0.00    +0.000 OA
ATOM     24  HD2 ASP A   1       6.412   5.681  20.334  0.00  0.00    +0.000 HD
ENDBRANCH  22  23
ENDBRANCH  20  22
ENDBRANCH  15  20
ENDBRANCH  11  15
ENDBRANCH   1  12
BRANCH  10  25
ATOM     25  N   UNK A   0       2.788   5.099  18.181  0.00  0.00    +0.000 N 
ATOM     26  C   UNK A   0       1.879   4.202  17.628  0.00  0.00    +0.000 C 
ATOM     27  O   UNK A   0       0.981   4.507  16.848  0.00  0.00    +0.000 OA
ATOM     28  H   UNK A   0       3.645   4.702  18.562  0.00  0.00    +0.000 HD
BRANCH  26  29
ATOM     29  O   UNK A   0       2.077   2.891  18.084  0.00  0.00    +0.000 OA
BRANCH  29  30
ATOM     30  C   UNK A   0       2.098   2.750  19.498  0.00  0.00    +0.000 A 
ATOM     31  C   UNK A   0       0.937   3.021  20.239  0.00  0.00    +0.000 A 
ATOM     32  C   UNK A   0       0.918   2.830  21.622  0.00  0.00    +0.000 A 
ATOM     33  C   UNK A   0       2.066   2.399  22.285  0.00  0.00    +0.000 A 
ATOM     34  C   UNK A   0       3.244   2.196  21.564  0.00  0.00    +0.000 A 
ATOM     35  C   UNK A   0       3.272   2.382  20.172  0.00  0.00    +0.000 A 
ATOM     36 CL   UNK A   0       4.767   2.179  19.344  0.00  0.00    +0.000 Cl
ENDBRANCH  29  30
ENDBRANCH  26  29
ENDBRANCH  10  25
TORSDOF 10
ENDMDL
