MODEL 1
REMARK VINA RESULT:      -8.1      0.000      0.000
REMARK  Name = 
REMARK  9 active torsions:
REMARK  status: ('A' for Active; 'I' for Inactive)
REMARK    1  A    between atoms: C_1  and  C_2
REMARK    2  A    between atoms: C_5  and  C_6
REMARK    3  A    between atoms: C_6  and  N_7
REMARK    4  A    between atoms: C_8  and  C_10
REMARK    5  A    between atoms: C_10  and  C_11
REMARK    6  A    between atoms: C_11  and  C_12
REMARK    7  A    between atoms: C_11  and  S_13
REMARK    8  A    between atoms: S_13  and  C_16
REMARK    9  A    between atoms: C_25  and  C_26
REMARK                            x       y       z     vdW  Elec       q    Type
REMARK                         _______ _______ _______ _____ _____    ______ ____
ROOT
ATOM      1  S   UNL     1       2.683   4.491  20.213  0.00  0.00    +0.000 S 
ATOM      2  O   UNL     1       1.979   4.309  21.471  0.00  0.00    +0.000 OA
ATOM      3  O   UNL     1       4.121   4.288  20.131  0.00  0.00    +0.000 OA
ENDROOT
BRANCH   1   4
ATOM      4  C   UNL     1       2.374   6.185  19.748  0.00  0.00    +0.000 A 
ATOM      5  C   UNL     1       2.760   6.611  18.478  0.00  0.00    +0.000 A 
ATOM      6  C   UNL     1       2.468   7.915  18.077  0.00  0.00    +0.000 A 
ATOM      7  C   UNL     1       1.799   8.796  18.937  0.00  0.00    +0.000 A 
ATOM      8  C   UNL     1       1.433   8.369  20.223  0.00  0.00    +0.000 A 
ATOM      9  C   UNL     1       1.702   7.051  20.622  0.00  0.00    +0.000 A 
ATOM     10  N   UNL     1       0.893   9.254  21.172  0.00  0.00    +0.000 N 
ATOM     11  C   UNL     1       0.561  10.569  20.950  0.00  0.00    +0.000 C 
ATOM     12  O   UNL     1       0.401  11.316  21.916  0.00  0.00    +0.000 OA
ATOM     13  C   UNL     1       0.250  10.984  19.516  0.00  0.00    +0.000 C 
ATOM     14  C   UNL     1       0.072  12.492  19.364  0.00  0.00    +0.000 C 
ATOM     15  S   UNL     1       1.552  10.459  18.363  0.00  0.00    +0.000 S 
ATOM     16  H   UNL     1       0.891   8.982  22.148  0.00  0.00    +0.000 HD
ENDBRANCH   1   4
BRANCH   1  17
ATOM     17  C   UNL     1       1.895   3.478  18.950  0.00  0.00    +0.000 C 
ATOM     18  C   UNL     1       0.741   2.695  19.587  0.00  0.00    +0.000 C 
BRANCH  17  19
ATOM     19  C   UNL     1       2.915   2.549  18.292  0.00  0.00    +0.000 C 
BRANCH  19  21
ATOM     20  N   UNL     1       5.066   3.353  17.498  0.00  0.00    +0.000 N 
ATOM     21  C   UNL     1       3.722   3.274  17.238  0.00  0.00    +0.000 C 
ATOM     22  O   UNL     1       3.184   3.779  16.258  0.00  0.00    +0.000 OA
ATOM     23  H   UNL     1       5.474   2.807  18.244  0.00  0.00    +0.000 HD
BRANCH  20  24
ATOM     24  C   UNL     1       5.982   3.960  16.553  0.00  0.00    +0.000 C 
BRANCH  24  29
ATOM     25  C   UNL     1       8.574   8.753  18.619  0.00  0.00    +0.000 C 
ATOM     26  C   UNL     1       7.881   7.519  18.117  0.00  0.00    +0.000 A 
ATOM     27  C   UNL     1       8.050   6.287  18.754  0.00  0.00    +0.000 A 
ATOM     28  C   UNL     1       7.422   5.139  18.262  0.00  0.00    +0.000 A 
ATOM     29  C   UNL     1       6.620   5.202  17.115  0.00  0.00    +0.000 A 
ATOM     30  C   UNL     1       6.432   6.443  16.490  0.00  0.00    +0.000 A 
ATOM     31  C   UNL     1       7.062   7.590  16.983  0.00  0.00    +0.000 A 
ENDBRANCH  24  29
ENDBRANCH  20  24
ENDBRANCH  19  21
ENDBRANCH  17  19
ENDBRANCH   1  17
TORSDOF 6
ENDMDL
MODEL 2
REMARK VINA RESULT:      -8.0      1.503      2.015
REMARK  Name = 
REMARK  9 active torsions:
REMARK  status: ('A' for Active; 'I' for Inactive)
REMARK    1  A    between atoms: C_1  and  C_2
REMARK    2  A    between atoms: C_5  and  C_6
REMARK    3  A    between atoms: C_6  and  N_7
REMARK    4  A    between atoms: C_8  and  C_10
REMARK    5  A    between atoms: C_10  and  C_11
REMARK    6  A    between atoms: C_11  and  C_12
REMARK    7  A    between atoms: C_11  and  S_13
REMARK    8  A    between atoms: S_13  and  C_16
REMARK    9  A    between atoms: C_25  and  C_26
REMARK                            x       y       z     vdW  Elec       q    Type
REMARK                         _______ _______ _______ _____ _____    ______ ____
ROOT
ATOM      1  S   UNL     1       3.179   6.113  18.488  0.00  0.00    +0.000 S 
ATOM      2  O   UNL     1       4.072   5.777  19.583  0.00  0.00    +0.000 OA
ATOM      3  O   UNL     1       3.704   6.386  17.160  0.00  0.00    +0.000 OA
ENDROOT
BRANCH   1   4
ATOM      4  C   UNL     1       2.326   7.587  19.019  0.00  0.00    +0.000 A 
ATOM      5  C   UNL     1       2.165   8.631  18.109  0.00  0.00    +0.000 A 
ATOM      6  C   UNL     1       1.447   9.764  18.490  0.00  0.00    +0.000 A 
ATOM      7  C   UNL     1       0.893   9.863  19.774  0.00  0.00    +0.000 A 
ATOM      8  C   UNL     1       1.078   8.820  20.693  0.00  0.00    +0.000 A 
ATOM      9  C   UNL     1       1.779   7.667  20.307  0.00  0.00    +0.000 A 
ATOM     10  N   UNL     1       0.671   8.933  22.034  0.00  0.00    +0.000 N 
ATOM     11  C   UNL     1      -0.030   9.982  22.578  0.00  0.00    +0.000 C 
ATOM     12  O   UNL     1      -0.050  10.116  23.802  0.00  0.00    +0.000 OA
ATOM     13  C   UNL     1      -0.879  10.827  21.633  0.00  0.00    +0.000 C 
ATOM     14  C   UNL     1      -1.463  12.062  22.311  0.00  0.00    +0.000 C 
ATOM     15  S   UNL     1       0.071  11.383  20.188  0.00  0.00    +0.000 S 
ATOM     16  H   UNL     1       1.050   8.285  22.716  0.00  0.00    +0.000 HD
ENDBRANCH   1   4
BRANCH   1  17
ATOM     17  C   UNL     1       1.919   4.835  18.349  0.00  0.00    +0.000 C 
ATOM     18  C   UNL     1       1.634   4.260  19.741  0.00  0.00    +0.000 C 
BRANCH  17  19
ATOM     19  C   UNL     1       2.361   3.749  17.368  0.00  0.00    +0.000 C 
BRANCH  19  21
ATOM     20  N   UNL     1       4.606   3.882  16.449  0.00  0.00    +0.000 N 
ATOM     21  C   UNL     1       3.839   3.453  17.501  0.00  0.00    +0.000 C 
ATOM     22  O   UNL     1       4.282   2.839  18.465  0.00  0.00    +0.000 OA
ATOM     23  H   UNL     1       4.215   4.498  15.750  0.00  0.00    +0.000 HD
BRANCH  20  24
ATOM     24  C   UNL     1       6.048   3.731  16.456  0.00  0.00    +0.000 C 
BRANCH  24  29
ATOM     25  C   UNL     1       8.556   8.491  18.696  0.00  0.00    +0.000 C 
ATOM     26  C   UNL     1       7.941   7.259  18.097  0.00  0.00    +0.000 A 
ATOM     27  C   UNL     1       7.450   7.261  16.788  0.00  0.00    +0.000 A 
ATOM     28  C   UNL     1       6.856   6.117  16.249  0.00  0.00    +0.000 A 
ATOM     29  C   UNL     1       6.732   4.950  17.015  0.00  0.00    +0.000 A 
ATOM     30  C   UNL     1       7.245   4.942  18.320  0.00  0.00    +0.000 A 
ATOM     31  C   UNL     1       7.840   6.088  18.857  0.00  0.00    +0.000 A 
ENDBRANCH  24  29
ENDBRANCH  20  24
ENDBRANCH  19  21
ENDBRANCH  17  19
ENDBRANCH   1  17
TORSDOF 6
ENDMDL
MODEL 3
REMARK VINA RESULT:      -7.9      2.561      4.173
REMARK  Name = 
REMARK  9 active torsions:
REMARK  status: ('A' for Active; 'I' for Inactive)
REMARK    1  A    between atoms: C_1  and  C_2
REMARK    2  A    between atoms: C_5  and  C_6
REMARK    3  A    between atoms: C_6  and  N_7
REMARK    4  A    between atoms: C_8  and  C_10
REMARK    5  A    between atoms: C_10  and  C_11
REMARK    6  A    between atoms: C_11  and  C_12
REMARK    7  A    between atoms: C_11  and  S_13
REMARK    8  A    between atoms: S_13  and  C_16
REMARK    9  A    between atoms: C_25  and  C_26
REMARK                            x       y       z     vdW  Elec       q    Type
REMARK                         _______ _______ _______ _____ _____    ______ ____
ROOT
ATOM      1  S   UNL     1       3.625   5.557  18.366  0.00  0.00    +0.000 S 
ATOM      2  O   UNL     1       2.677   4.796  17.570  0.00  0.00    +0.000 OA
ATOM      3  O   UNL     1       4.211   4.985  19.568  0.00  0.00    +0.000 OA
ENDROOT
BRANCH   1   4
ATOM      4  C   UNL     1       2.738   7.020  18.871  0.00  0.00    +0.000 A 
ATOM      5  C   UNL     1       2.482   8.008  17.921  0.00  0.00    +0.000 A 
ATOM      6  C   UNL     1       1.736   9.129  18.286  0.00  0.00    +0.000 A 
ATOM      7  C   UNL     1       1.248   9.271  19.592  0.00  0.00    +0.000 A 
ATOM      8  C   UNL     1       1.528   8.284  20.550  0.00  0.00    +0.000 A 
ATOM      9  C   UNL     1       2.257   7.143  20.182  0.00  0.00    +0.000 A 
ATOM     10  N   UNL     1       1.189   8.449  21.904  0.00  0.00    +0.000 N 
ATOM     11  C   UNL     1       0.472   9.495  22.434  0.00  0.00    +0.000 C 
ATOM     12  O   UNL     1       0.512   9.691  23.650  0.00  0.00    +0.000 OA
ATOM     13  C   UNL     1      -0.462  10.255  21.498  0.00  0.00    +0.000 C 
ATOM     14  C   UNL     1      -1.063  11.498  22.147  0.00  0.00    +0.000 C 
ATOM     15  S   UNL     1       0.383  10.775  19.977  0.00  0.00    +0.000 S 
ATOM     16  H   UNL     1       1.632   7.854  22.595  0.00  0.00    +0.000 HD
ENDBRANCH   1   4
BRANCH   1  17
ATOM     17  C   UNL     1       4.957   6.129  17.300  0.00  0.00    +0.000 C 
ATOM     18  C   UNL     1       5.111   5.155  16.126  0.00  0.00    +0.000 C 
BRANCH  17  19
ATOM     19  C   UNL     1       6.257   6.270  18.093  0.00  0.00    +0.000 C 
BRANCH  19  21
ATOM     20  N   UNL     1       7.480   8.360  17.904  0.00  0.00    +0.000 N 
ATOM     21  C   UNL     1       7.265   7.122  17.355  0.00  0.00    +0.000 C 
ATOM     22  O   UNL     1       7.800   6.729  16.324  0.00  0.00    +0.000 OA
ATOM     23  H   UNL     1       7.119   8.581  18.822  0.00  0.00    +0.000 HD
BRANCH  20  24
ATOM     24  C   UNL     1       8.464   9.269  17.350  0.00  0.00    +0.000 C 
BRANCH  24  29
ATOM     25  C   UNL     1       9.805  13.408  21.228  0.00  0.00    +0.000 C 
ATOM     26  C   UNL     1       9.494  12.347  20.212  0.00  0.00    +0.000 A 
ATOM     27  C   UNL     1       9.191  12.682  18.889  0.00  0.00    +0.000 A 
ATOM     28  C   UNL     1       8.876  11.688  17.958  0.00  0.00    +0.000 A 
ATOM     29  C   UNL     1       8.850  10.339  18.337  0.00  0.00    +0.000 A 
ATOM     30  C   UNL     1       9.177  10.003  19.658  0.00  0.00    +0.000 A 
ATOM     31  C   UNL     1       9.491  10.999  20.588  0.00  0.00    +0.000 A 
ENDBRANCH  24  29
ENDBRANCH  20  24
ENDBRANCH  19  21
ENDBRANCH  17  19
ENDBRANCH   1  17
TORSDOF 6
ENDMDL
MODEL 4
REMARK VINA RESULT:      -7.8      0.640      1.045
REMARK  Name = 
REMARK  9 active torsions:
REMARK  status: ('A' for Active; 'I' for Inactive)
REMARK    1  A    between atoms: C_1  and  C_2
REMARK    2  A    between atoms: C_5  and  C_6
REMARK    3  A    between atoms: C_6  and  N_7
REMARK    4  A    between atoms: C_8  and  C_10
REMARK    5  A    between atoms: C_10  and  C_11
REMARK    6  A    between atoms: C_11  and  C_12
REMARK    7  A    between atoms: C_11  and  S_13
REMARK    8  A    between atoms: S_13  and  C_16
REMARK    9  A    between atoms: C_25  and  C_26
REMARK                            x       y       z     vdW  Elec       q    Type
REMARK                         _______ _______ _______ _____ _____    ______ ____
ROOT
ATOM      1  S   UNL     1       2.660   4.109  20.387  0.00  0.00    +0.000 S 
ATOM      2  O   UNL     1       2.096   4.102  21.725  0.00  0.00    +0.000 OA
ATOM      3  O   UNL     1       4.054   3.757  20.167  0.00  0.00    +0.000 OA
ENDROOT
BRANCH   1   4
ATOM      4  C   UNL     1       2.453   5.783  19.804  0.00  0.00    +0.000 A 
ATOM      5  C   UNL     1       2.919   6.110  18.531  0.00  0.00    +0.000 A 
ATOM      6  C   UNL     1       2.708   7.398  18.038  0.00  0.00    +0.000 A 
ATOM      7  C   UNL     1       2.041   8.360  18.808  0.00  0.00    +0.000 A 
ATOM      8  C   UNL     1       1.595   8.032  20.097  0.00  0.00    +0.000 A 
ATOM      9  C   UNL     1       1.782   6.731  20.589  0.00  0.00    +0.000 A 
ATOM     10  N   UNL     1       1.054   8.998  20.963  0.00  0.00    +0.000 N 
ATOM     11  C   UNL     1       0.794  10.310  20.645  0.00  0.00    +0.000 C 
ATOM     12  O   UNL     1       0.625  11.123  21.554  0.00  0.00    +0.000 OA
ATOM     13  C   UNL     1       0.571  10.647  19.174  0.00  0.00    +0.000 C 
ATOM     14  C   UNL     1       0.473  12.149  18.922  0.00  0.00    +0.000 C 
ATOM     15  S   UNL     1       1.900   9.993  18.122  0.00  0.00    +0.000 S 
ATOM     16  H   UNL     1       0.992   8.788  21.952  0.00  0.00    +0.000 HD
ENDBRANCH   1   4
BRANCH   1  17
ATOM     17  C   UNL     1       1.639   3.083  19.317  0.00  0.00    +0.000 C 
ATOM     18  C   UNL     1       0.662   2.278  20.181  0.00  0.00    +0.000 C 
BRANCH  17  19
ATOM     19  C   UNL     1       2.513   2.173  18.453  0.00  0.00    +0.000 C 
BRANCH  19  21
ATOM     20  N   UNL     1       4.536   2.987  17.382  0.00  0.00    +0.000 N 
ATOM     21  C   UNL     1       3.167   2.942  17.326  0.00  0.00    +0.000 C 
ATOM     22  O   UNL     1       2.498   3.508  16.467  0.00  0.00    +0.000 OA
ATOM     23  H   UNL     1       5.040   2.395  18.027  0.00  0.00    +0.000 HD
BRANCH  20  24
ATOM     24  C   UNL     1       5.312   3.631  16.341  0.00  0.00    +0.000 C 
BRANCH  24  29
ATOM     25  C   UNL     1       8.408   8.073  18.497  0.00  0.00    +0.000 C 
ATOM     26  C   UNL     1       7.643   6.914  17.926  0.00  0.00    +0.000 A 
ATOM     27  C   UNL     1       7.373   6.832  16.557  0.00  0.00    +0.000 A 
ATOM     28  C   UNL     1       6.636   5.763  16.039  0.00  0.00    +0.000 A 
ATOM     29  C   UNL     1       6.147   4.759  16.886  0.00  0.00    +0.000 A 
ATOM     30  C   UNL     1       6.438   4.830  18.255  0.00  0.00    +0.000 A 
ATOM     31  C   UNL     1       7.175   5.901  18.771  0.00  0.00    +0.000 A 
ENDBRANCH  24  29
ENDBRANCH  20  24
ENDBRANCH  19  21
ENDBRANCH  17  19
ENDBRANCH   1  17
TORSDOF 6
ENDMDL
MODEL 5
REMARK VINA RESULT:      -7.6      1.707      2.349
REMARK  Name = 
REMARK  9 active torsions:
REMARK  status: ('A' for Active; 'I' for Inactive)
REMARK    1  A    between atoms: C_1  and  C_2
REMARK    2  A    between atoms: C_5  and  C_6
REMARK    3  A    between atoms: C_6  and  N_7
REMARK    4  A    between atoms: C_8  and  C_10
REMARK    5  A    between atoms: C_10  and  C_11
REMARK    6  A    between atoms: C_11  and  C_12
REMARK    7  A    between atoms: C_11  and  S_13
REMARK    8  A    between atoms: S_13  and  C_16
REMARK    9  A    between atoms: C_25  and  C_26
REMARK                            x       y       z     vdW  Elec       q    Type
REMARK                         _______ _______ _______ _____ _____    ______ ____
ROOT
ATOM      1  S   UNL     1       2.891   6.190  18.767  0.00  0.00    +0.000 S 
ATOM      2  O   UNL     1       3.930   5.872  19.732  0.00  0.00    +0.000 OA
ATOM      3  O   UNL     1       3.233   6.559  17.403  0.00  0.00    +0.000 OA
ENDROOT
BRANCH   1   4
ATOM      4  C   UNL     1       2.010   7.573  19.470  0.00  0.00    +0.000 A 
ATOM      5  C   UNL     1       1.658   7.525  20.818  0.00  0.00    +0.000 A 
ATOM      6  C   UNL     1       1.025   8.625  21.397  0.00  0.00    +0.000 A 
ATOM      7  C   UNL     1       0.737   9.767  20.639  0.00  0.00    +0.000 A 
ATOM      8  C   UNL     1       1.072   9.800  19.277  0.00  0.00    +0.000 A 
ATOM      9  C   UNL     1       1.732   8.707  18.695  0.00  0.00    +0.000 A 
ATOM     10  N   UNL     1       0.676  10.859  18.441  0.00  0.00    +0.000 N 
ATOM     11  C   UNL     1       0.033  12.005  18.843  0.00  0.00    +0.000 C 
ATOM     12  O   UNL     1      -0.536  12.698  17.999  0.00  0.00    +0.000 OA
ATOM     13  C   UNL     1       0.204  12.436  20.296  0.00  0.00    +0.000 C 
ATOM     14  C   UNL     1      -0.693  13.612  20.671  0.00  0.00    +0.000 C 
ATOM     15  S   UNL     1      -0.148  11.078  21.449  0.00  0.00    +0.000 S 
ATOM     16  H   UNL     1       0.702  10.725  17.437  0.00  0.00    +0.000 HD
ENDBRANCH   1   4
BRANCH   1  17
ATOM     17  C   UNL     1       1.712   4.830  18.708  0.00  0.00    +0.000 C 
ATOM     18  C   UNL     1       1.659   4.155  20.084  0.00  0.00    +0.000 C 
BRANCH  17  19
ATOM     19  C   UNL     1       2.089   3.840  17.606  0.00  0.00    +0.000 C 
BRANCH  19  21
ATOM     20  N   UNL     1       4.318   4.015  16.657  0.00  0.00    +0.000 N 
ATOM     21  C   UNL     1       3.557   3.481  17.664  0.00  0.00    +0.000 C 
ATOM     22  O   UNL     1       3.998   2.734  18.532  0.00  0.00    +0.000 OA
ATOM     23  H   UNL     1       3.936   4.729  16.052  0.00  0.00    +0.000 HD
BRANCH  20  24
ATOM     24  C   UNL     1       5.753   3.817  16.610  0.00  0.00    +0.000 C 
BRANCH  24  29
ATOM     25  C   UNL     1       8.515   8.534  18.630  0.00  0.00    +0.000 C 
ATOM     26  C   UNL     1       7.831   7.316  18.081  0.00  0.00    +0.000 A 
ATOM     27  C   UNL     1       7.092   7.376  16.895  0.00  0.00    +0.000 A 
ATOM     28  C   UNL     1       6.436   6.242  16.408  0.00  0.00    +0.000 A 
ATOM     29  C   UNL     1       6.499   5.028  17.105  0.00  0.00    +0.000 A 
ATOM     30  C   UNL     1       7.258   4.963  18.281  0.00  0.00    +0.000 A 
ATOM     31  C   UNL     1       7.913   6.099  18.768  0.00  0.00    +0.000 A 
ENDBRANCH  24  29
ENDBRANCH  20  24
ENDBRANCH  19  21
ENDBRANCH  17  19
ENDBRANCH   1  17
TORSDOF 6
ENDMDL
MODEL 6
REMARK VINA RESULT:      -7.6      2.094      3.419
REMARK  Name = 
REMARK  9 active torsions:
REMARK  status: ('A' for Active; 'I' for Inactive)
REMARK    1  A    between atoms: C_1  and  C_2
REMARK    2  A    between atoms: C_5  and  C_6
REMARK    3  A    between atoms: C_6  and  N_7
REMARK    4  A    between atoms: C_8  and  C_10
REMARK    5  A    between atoms: C_10  and  C_11
REMARK    6  A    between atoms: C_11  and  C_12
REMARK    7  A    between atoms: C_11  and  S_13
REMARK    8  A    between atoms: S_13  and  C_16
REMARK    9  A    between atoms: C_25  and  C_26
REMARK                            x       y       z     vdW  Elec       q    Type
REMARK                         _______ _______ _______ _____ _____    ______ ____
ROOT
ATOM      1  S   UNL     1       2.442   4.476  19.786  0.00  0.00    +0.000 S 
ATOM      2  O   UNL     1       1.426   3.797  19.000  0.00  0.00    +0.000 OA
ATOM      3  O   UNL     1       2.537   4.261  21.221  0.00  0.00    +0.000 OA
ENDROOT
BRANCH   1   4
ATOM      4  C   UNL     1       2.129   6.216  19.545  0.00  0.00    +0.000 A 
ATOM      5  C   UNL     1       2.422   6.782  18.304  0.00  0.00    +0.000 A 
ATOM      6  C   UNL     1       2.125   8.127  18.081  0.00  0.00    +0.000 A 
ATOM      7  C   UNL     1       1.544   8.909  19.088  0.00  0.00    +0.000 A 
ATOM      8  C   UNL     1       1.273   8.340  20.341  0.00  0.00    +0.000 A 
ATOM      9  C   UNL     1       1.547   6.982  20.563  0.00  0.00    +0.000 A 
ATOM     10  N   UNL     1       0.829   9.116  21.426  0.00  0.00    +0.000 N 
ATOM     11  C   UNL     1       0.506  10.450  21.384  0.00  0.00    +0.000 C 
ATOM     12  O   UNL     1       0.438  11.082  22.439  0.00  0.00    +0.000 OA
ATOM     13  C   UNL     1       0.090  11.032  20.037  0.00  0.00    +0.000 C 
ATOM     14  C   UNL     1      -0.069  12.549  20.074  0.00  0.00    +0.000 C 
ATOM     15  S   UNL     1       1.285  10.631  18.730  0.00  0.00    +0.000 S 
ATOM     16  H   UNL     1       0.898   8.732  22.362  0.00  0.00    +0.000 HD
ENDBRANCH   1   4
BRANCH   1  17
ATOM     17  C   UNL     1       4.056   4.157  19.056  0.00  0.00    +0.000 C 
ATOM     18  C   UNL     1       4.437   2.693  19.306  0.00  0.00    +0.000 C 
BRANCH  17  19
ATOM     19  C   UNL     1       5.101   5.119  19.622  0.00  0.00    +0.000 C 
BRANCH  19  21
ATOM     20  N   UNL     1       5.943   5.477  17.372  0.00  0.00    +0.000 N 
ATOM     21  C   UNL     1       6.279   5.269  18.685  0.00  0.00    +0.000 C 
ATOM     22  O   UNL     1       7.433   5.165  19.088  0.00  0.00    +0.000 OA
ATOM     23  H   UNL     1       4.989   5.689  17.117  0.00  0.00    +0.000 HD
BRANCH  20  24
ATOM     24  C   UNL     1       6.958   5.704  16.362  0.00  0.00    +0.000 C 
BRANCH  24  29
ATOM     25  C   UNL     1       5.780   2.785  11.457  0.00  0.00    +0.000 C 
ATOM     26  C   UNL     1       6.072   3.570  12.703  0.00  0.00    +0.000 A 
ATOM     27  C   UNL     1       7.202   4.390  12.790  0.00  0.00    +0.000 A 
ATOM     28  C   UNL     1       7.480   5.096  13.965  0.00  0.00    +0.000 A 
ATOM     29  C   UNL     1       6.636   4.985  15.078  0.00  0.00    +0.000 A 
ATOM     30  C   UNL     1       5.492   4.182  14.982  0.00  0.00    +0.000 A 
ATOM     31  C   UNL     1       5.216   3.476  13.806  0.00  0.00    +0.000 A 
ENDBRANCH  24  29
ENDBRANCH  20  24
ENDBRANCH  19  21
ENDBRANCH  17  19
ENDBRANCH   1  17
TORSDOF 6
ENDMDL
MODEL 7
REMARK VINA RESULT:      -7.5      1.916      3.067
REMARK  Name = 
REMARK  9 active torsions:
REMARK  status: ('A' for Active; 'I' for Inactive)
REMARK    1  A    between atoms: C_1  and  C_2
REMARK    2  A    between atoms: C_5  and  C_6
REMARK    3  A    between atoms: C_6  and  N_7
REMARK    4  A    between atoms: C_8  and  C_10
REMARK    5  A    between atoms: C_10  and  C_11
REMARK    6  A    between atoms: C_11  and  C_12
REMARK    7  A    between atoms: C_11  and  S_13
REMARK    8  A    between atoms: S_13  and  C_16
REMARK    9  A    between atoms: C_25  and  C_26
REMARK                            x       y       z     vdW  Elec       q    Type
REMARK                         _______ _______ _______ _____ _____    ______ ____
ROOT
ATOM      1  S   UNL     1       2.081   3.840  20.027  0.00  0.00    +0.000 S 
ATOM      2  O   UNL     1       0.827   3.295  19.536  0.00  0.00    +0.000 OA
ATOM      3  O   UNL     1       2.426   3.753  21.437  0.00  0.00    +0.000 OA
ENDROOT
BRANCH   1   4
ATOM      4  C   UNL     1       2.024   5.576  19.617  0.00  0.00    +0.000 A 
ATOM      5  C   UNL     1       2.418   5.973  18.340  0.00  0.00    +0.000 A 
ATOM      6  C   UNL     1       2.320   7.319  17.984  0.00  0.00    +0.000 A 
ATOM      7  C   UNL     1       1.838   8.268  18.895  0.00  0.00    +0.000 A 
ATOM      8  C   UNL     1       1.465   7.865  20.186  0.00  0.00    +0.000 A 
ATOM      9  C   UNL     1       1.537   6.510  20.541  0.00  0.00    +0.000 A 
ATOM     10  N   UNL     1       1.114   8.796  21.180  0.00  0.00    +0.000 N 
ATOM     11  C   UNL     1       0.986  10.152  21.005  0.00  0.00    +0.000 C 
ATOM     12  O   UNL     1       0.989  10.885  21.995  0.00  0.00    +0.000 OA
ATOM     13  C   UNL     1       0.683  10.655  19.597  0.00  0.00    +0.000 C 
ATOM     14  C   UNL     1       0.741  12.176  19.489  0.00  0.00    +0.000 C 
ATOM     15  S   UNL     1       1.834   9.966  18.372  0.00  0.00    +0.000 S 
ATOM     16  H   UNL     1       1.111   8.497  22.149  0.00  0.00    +0.000 HD
ENDBRANCH   1   4
BRANCH   1  17
ATOM     17  C   UNL     1       3.436   3.148  19.066  0.00  0.00    +0.000 C 
ATOM     18  C   UNL     1       3.153   1.665  18.798  0.00  0.00    +0.000 C 
BRANCH  17  19
ATOM     19  C   UNL     1       4.766   3.349  19.792  0.00  0.00    +0.000 C 
BRANCH  19  21
ATOM     20  N   UNL     1       5.370   4.501  17.740  0.00  0.00    +0.000 N 
ATOM     21  C   UNL     1       5.639   4.356  19.077  0.00  0.00    +0.000 C 
ATOM     22  O   UNL     1       6.539   4.950  19.661  0.00  0.00    +0.000 OA
ATOM     23  H   UNL     1       4.536   4.093  17.341  0.00  0.00    +0.000 HD
BRANCH  20  24
ATOM     24  C   UNL     1       6.076   5.474  16.930  0.00  0.00    +0.000 C 
BRANCH  24  29
ATOM     25  C   UNL     1       6.903   3.668  11.452  0.00  0.00    +0.000 C 
ATOM     26  C   UNL     1       6.699   4.097  12.876  0.00  0.00    +0.000 A 
ATOM     27  C   UNL     1       5.576   3.687  13.599  0.00  0.00    +0.000 A 
ATOM     28  C   UNL     1       5.382   4.115  14.916  0.00  0.00    +0.000 A 
ATOM     29  C   UNL     1       6.306   4.971  15.530  0.00  0.00    +0.000 A 
ATOM     30  C   UNL     1       7.443   5.364  14.811  0.00  0.00    +0.000 A 
ATOM     31  C   UNL     1       7.635   4.935  13.494  0.00  0.00    +0.000 A 
ENDBRANCH  24  29
ENDBRANCH  20  24
ENDBRANCH  19  21
ENDBRANCH  17  19
ENDBRANCH   1  17
TORSDOF 6
ENDMDL
MODEL 8
REMARK VINA RESULT:      -7.5      2.230      3.559
REMARK  Name = 
REMARK  9 active torsions:
REMARK  status: ('A' for Active; 'I' for Inactive)
REMARK    1  A    between atoms: C_1  and  C_2
REMARK    2  A    between atoms: C_5  and  C_6
REMARK    3  A    between atoms: C_6  and  N_7
REMARK    4  A    between atoms: C_8  and  C_10
REMARK    5  A    between atoms: C_10  and  C_11
REMARK    6  A    between atoms: C_11  and  C_12
REMARK    7  A    between atoms: C_11  and  S_13
REMARK    8  A    between atoms: S_13  and  C_16
REMARK    9  A    between atoms: C_25  and  C_26
REMARK                            x       y       z     vdW  Elec       q    Type
REMARK                         _______ _______ _______ _____ _____    ______ ____
ROOT
ATOM      1  S   UNL     1       2.581   4.397  18.470  0.00  0.00    +0.000 S 
ATOM      2  O   UNL     1       2.846   4.350  17.042  0.00  0.00    +0.000 OA
ATOM      3  O   UNL     1       1.491   3.626  19.048  0.00  0.00    +0.000 OA
ENDROOT
BRANCH   1   4
ATOM      4  C   UNL     1       2.244   6.112  18.824  0.00  0.00    +0.000 A 
ATOM      5  C   UNL     1       2.368   7.044  17.794  0.00  0.00    +0.000 A 
ATOM      6  C   UNL     1       2.048   8.380  18.040  0.00  0.00    +0.000 A 
ATOM      7  C   UNL     1       1.610   8.790  19.306  0.00  0.00    +0.000 A 
ATOM      8  C   UNL     1       1.509   7.852  20.345  0.00  0.00    +0.000 A 
ATOM      9  C   UNL     1       1.805   6.504  20.097  0.00  0.00    +0.000 A 
ATOM     10  N   UNL     1       1.216   8.237  21.665  0.00  0.00    +0.000 N 
ATOM     11  C   UNL     1       0.894   9.506  22.081  0.00  0.00    +0.000 C 
ATOM     12  O   UNL     1       0.971   9.779  23.280  0.00  0.00    +0.000 OA
ATOM     13  C   UNL     1       0.302  10.458  21.047  0.00  0.00    +0.000 C 
ATOM     14  C   UNL     1       0.154  11.883  21.574  0.00  0.00    +0.000 C 
ATOM     15  S   UNL     1       1.310  10.526  19.537  0.00  0.00    +0.000 S 
ATOM     16  H   UNL     1       1.410   7.587  22.418  0.00  0.00    +0.000 HD
ENDBRANCH   1   4
BRANCH   1  17
ATOM     17  C   UNL     1       4.094   3.996  19.359  0.00  0.00    +0.000 C 
ATOM     18  C   UNL     1       3.729   3.421  20.733  0.00  0.00    +0.000 C 
BRANCH  17  19
ATOM     19  C   UNL     1       4.988   5.230  19.482  0.00  0.00    +0.000 C 
BRANCH  19  21
ATOM     20  N   UNL     1       5.950   5.804  17.326  0.00  0.00    +0.000 N 
ATOM     21  C   UNL     1       6.154   5.164  18.521  0.00  0.00    +0.000 C 
ATOM     22  O   UNL     1       7.176   4.544  18.799  0.00  0.00    +0.000 OA
ATOM     23  H   UNL     1       5.151   6.410  17.202  0.00  0.00    +0.000 HD
BRANCH  20  24
ATOM     24  C   UNL     1       6.996   5.885  16.326  0.00  0.00    +0.000 C 
BRANCH  24  29
ATOM     25  C   UNL     1       5.682   2.756  11.588  0.00  0.00    +0.000 C 
ATOM     26  C   UNL     1       6.011   3.595  12.789  0.00  0.00    +0.000 A 
ATOM     27  C   UNL     1       7.167   4.380  12.826  0.00  0.00    +0.000 A 
ATOM     28  C   UNL     1       7.478   5.136  13.961  0.00  0.00    +0.000 A 
ATOM     29  C   UNL     1       6.640   5.112  15.084  0.00  0.00    +0.000 A 
ATOM     30  C   UNL     1       5.470   4.342  15.037  0.00  0.00    +0.000 A 
ATOM     31  C   UNL     1       5.161   3.586  13.901  0.00  0.00    +0.000 A 
ENDBRANCH  24  29
ENDBRANCH  20  24
ENDBRANCH  19  21
ENDBRANCH  17  19
ENDBRANCH   1  17
TORSDOF 6
ENDMDL
MODEL 9
REMARK VINA RESULT:      -7.4      1.804      2.361
REMARK  Name = 
REMARK  9 active torsions:
REMARK  status: ('A' for Active; 'I' for Inactive)
REMARK    1  A    between atoms: C_1  and  C_2
REMARK    2  A    between atoms: C_5  and  C_6
REMARK    3  A    between atoms: C_6  and  N_7
REMARK    4  A    between atoms: C_8  and  C_10
REMARK    5  A    between atoms: C_10  and  C_11
REMARK    6  A    between atoms: C_11  and  C_12
REMARK    7  A    between atoms: C_11  and  S_13
REMARK    8  A    between atoms: S_13  and  C_16
REMARK    9  A    between atoms: C_25  and  C_26
REMARK                            x       y       z     vdW  Elec       q    Type
REMARK                         _______ _______ _______ _____ _____    ______ ____
ROOT
ATOM      1  S   UNL     1       2.574   6.228  19.071  0.00  0.00    +0.000 S 
ATOM      2  O   UNL     1       3.890   6.215  19.686  0.00  0.00    +0.000 OA
ATOM      3  O   UNL     1       2.432   6.280  17.625  0.00  0.00    +0.000 OA
ENDROOT
BRANCH   1   4
ATOM      4  C   UNL     1       1.772   7.683  19.720  0.00  0.00    +0.000 A 
ATOM      5  C   UNL     1       1.432   7.712  21.072  0.00  0.00    +0.000 A 
ATOM      6  C   UNL     1       0.861   8.867  21.608  0.00  0.00    +0.000 A 
ATOM      7  C   UNL     1       0.624   9.989  20.803  0.00  0.00    +0.000 A 
ATOM      8  C   UNL     1       0.948   9.946  19.438  0.00  0.00    +0.000 A 
ATOM      9  C   UNL     1       1.545   8.797  18.899  0.00  0.00    +0.000 A 
ATOM     10  N   UNL     1       0.597  10.987  18.561  0.00  0.00    +0.000 N 
ATOM     11  C   UNL     1       0.018  12.181  18.917  0.00  0.00    +0.000 C 
ATOM     12  O   UNL     1      -0.523  12.865  18.048  0.00  0.00    +0.000 OA
ATOM     13  C   UNL     1       0.226  12.664  20.349  0.00  0.00    +0.000 C 
ATOM     14  C   UNL     1      -0.606  13.900  20.680  0.00  0.00    +0.000 C 
ATOM     15  S   UNL     1      -0.184  11.377  21.563  0.00  0.00    +0.000 S 
ATOM     16  H   UNL     1       0.607  10.809  17.563  0.00  0.00    +0.000 HD
ENDBRANCH   1   4
BRANCH   1  17
ATOM     17  C   UNL     1       1.627   4.825  19.685  0.00  0.00    +0.000 C 
ATOM     18  C   UNL     1       2.097   4.488  21.105  0.00  0.00    +0.000 C 
BRANCH  17  19
ATOM     19  C   UNL     1       1.767   3.629  18.744  0.00  0.00    +0.000 C 
BRANCH  19  21
ATOM     20  N   UNL     1       3.582   3.767  17.134  0.00  0.00    +0.000 N 
ATOM     21  C   UNL     1       3.216   3.369  18.394  0.00  0.00    +0.000 C 
ATOM     22  O   UNL     1       3.971   2.804  19.180  0.00  0.00    +0.000 OA
ATOM     23  H   UNL     1       2.964   4.345  16.582  0.00  0.00    +0.000 HD
BRANCH  20  24
ATOM     24  C   UNL     1       4.951   3.644  16.674  0.00  0.00    +0.000 C 
BRANCH  24  29
ATOM     25  C   UNL     1       8.245   8.251  18.049  0.00  0.00    +0.000 C 
ATOM     26  C   UNL     1       7.380   7.066  17.730  0.00  0.00    +0.000 A 
ATOM     27  C   UNL     1       7.625   5.817  18.308  0.00  0.00    +0.000 A 
ATOM     28  C   UNL     1       6.829   4.714  17.983  0.00  0.00    +0.000 A 
ATOM     29  C   UNL     1       5.779   4.840  17.064  0.00  0.00    +0.000 A 
ATOM     30  C   UNL     1       5.520   6.097  16.502  0.00  0.00    +0.000 A 
ATOM     31  C   UNL     1       6.317   7.199  16.828  0.00  0.00    +0.000 A 
ENDBRANCH  24  29
ENDBRANCH  20  24
ENDBRANCH  19  21
ENDBRANCH  17  19
ENDBRANCH   1  17
TORSDOF 6
ENDMDL
