MODEL 1
REMARK VINA RESULT:      -8.7      0.000      0.000
REMARK  Name = 
REMARK  3 active torsions:
REMARK  status: ('A' for Active; 'I' for Inactive)
REMARK    1  A    between atoms: C_10  and  C_11
REMARK    2  A    between atoms: C_11  and  N_13
REMARK    3  A    between atoms: C_17  and  C_18
REMARK                            x       y       z     vdW  Elec       q    Type
REMARK                         _______ _______ _______ _____ _____    ______ ____
ROOT
ATOM      1  C   UNL     1       1.815   6.759  20.419  0.00  0.00    +0.000 C 
ATOM      2  C   UNL     1       2.132   5.503  20.057  0.00  0.00    +0.000 C 
ATOM      3  C   UNL     1       1.415   4.345  20.713  0.00  0.00    +0.000 C 
ATOM      4  C   UNL     1       2.403   3.388  21.337  0.00  0.00    +0.000 C 
ATOM      5  S   UNL     1       3.351   2.608  20.066  0.00  0.00    +0.000 S 
ATOM      6  O   UNL     1       4.571   2.107  20.673  0.00  0.00    +0.000 OA
ATOM      7  O   UNL     1       2.473   1.733  19.315  0.00  0.00    +0.000 OA
ATOM      8  C   UNL     1       3.811   3.925  18.980  0.00  0.00    +0.000 A 
ATOM      9  C   UNL     1       4.841   3.654  18.062  0.00  0.00    +0.000 A 
ATOM     10  C   UNL     1       5.299   4.649  17.187  0.00  0.00    +0.000 A 
ATOM     11  C   UNL     1       4.684   5.914  17.217  0.00  0.00    +0.000 A 
ATOM     12  C   UNL     1       5.035   7.064  16.310  0.00  0.00    +0.000 C 
ATOM     13  C   UNL     1       3.650   6.153  18.155  0.00  0.00    +0.000 A 
ATOM     14  C   UNL     1       3.204   5.184  19.072  0.00  0.00    +0.000 A 
ENDROOT
BRANCH  10  15
ATOM     15  C   UNL     1       6.448   4.322  16.282  0.00  0.00    +0.000 C 
ATOM     16  O   UNL     1       7.592   4.632  16.605  0.00  0.00    +0.000 OA
BRANCH  15  17
ATOM     17  N   UNL     1       6.130   3.630  15.135  0.00  0.00    +0.000 NA
ATOM     18  C   UNL     1       6.559   4.086  14.007  0.00  0.00    +0.000 C 
ATOM     19  N   UNL     1       7.263   5.217  13.766  0.00  0.00    +0.000 N 
ATOM     20  N   UNL     1       6.264   3.433  12.859  0.00  0.00    +0.000 N 
ATOM     21  H   UNL     1       7.691   5.596  14.611  0.00  0.00    +0.000 HD
ATOM     22  H   UNL     1       7.922   5.186  13.002  0.00  0.00    +0.000 HD
ATOM     23  H   UNL     1       5.909   2.497  13.022  0.00  0.00    +0.000 HD
ATOM     24  H   UNL     1       6.945   3.474  12.117  0.00  0.00    +0.000 HD
ENDBRANCH  15  17
ENDBRANCH  10  15
TORSDOF 2
ENDMDL
MODEL 2
REMARK VINA RESULT:      -8.0      0.870      1.117
REMARK  Name = 
REMARK  3 active torsions:
REMARK  status: ('A' for Active; 'I' for Inactive)
REMARK    1  A    between atoms: C_10  and  C_11
REMARK    2  A    between atoms: C_11  and  N_13
REMARK    3  A    between atoms: C_17  and  C_18
REMARK                            x       y       z     vdW  Elec       q    Type
REMARK                         _______ _______ _______ _____ _____    ______ ____
ROOT
ATOM      1  C   UNL     1       1.773   6.363  20.420  0.00  0.00    +0.000 C 
ATOM      2  C   UNL     1       2.262   5.188  19.983  0.00  0.00    +0.000 C 
ATOM      3  C   UNL     1       1.528   3.912  20.329  0.00  0.00    +0.000 C 
ATOM      4  C   UNL     1       2.449   2.938  21.026  0.00  0.00    +0.000 C 
ATOM      5  S   UNL     1       3.695   2.394  19.896  0.00  0.00    +0.000 S 
ATOM      6  O   UNL     1       4.806   1.887  20.679  0.00  0.00    +0.000 OA
ATOM      7  O   UNL     1       3.062   1.580  18.877  0.00  0.00    +0.000 OA
ATOM      8  C   UNL     1       4.250   3.871  19.098  0.00  0.00    +0.000 A 
ATOM      9  C   UNL     1       5.462   3.787  18.390  0.00  0.00    +0.000 A 
ATOM     10  C   UNL     1       6.000   4.917  17.758  0.00  0.00    +0.000 A 
ATOM     11  C   UNL     1       5.286   6.128  17.812  0.00  0.00    +0.000 A 
ATOM     12  C   UNL     1       5.713   7.409  17.145  0.00  0.00    +0.000 C 
ATOM     13  C   UNL     1       4.069   6.177  18.534  0.00  0.00    +0.000 A 
ATOM     14  C   UNL     1       3.532   5.069  19.213  0.00  0.00    +0.000 A 
ENDROOT
BRANCH  10  15
ATOM     15  C   UNL     1       7.330   4.783  17.080  0.00  0.00    +0.000 C 
ATOM     16  O   UNL     1       8.228   4.137  17.614  0.00  0.00    +0.000 OA
BRANCH  15  17
ATOM     17  N   UNL     1       7.435   5.375  15.842  0.00  0.00    +0.000 NA
ATOM     18  C   UNL     1       6.986   4.734  14.817  0.00  0.00    +0.000 C 
ATOM     19  N   UNL     1       6.448   3.493  14.767  0.00  0.00    +0.000 N 
ATOM     20  N   UNL     1       7.075   5.285  13.585  0.00  0.00    +0.000 N 
ATOM     21  H   UNL     1       6.160   3.156  15.687  0.00  0.00    +0.000 HD
ATOM     22  H   UNL     1       5.728   3.339  14.077  0.00  0.00    +0.000 HD
ATOM     23  H   UNL     1       7.293   6.275  13.614  0.00  0.00    +0.000 HD
ATOM     24  H   UNL     1       6.346   5.059  12.925  0.00  0.00    +0.000 HD
ENDBRANCH  15  17
ENDBRANCH  10  15
TORSDOF 2
ENDMDL
MODEL 3
REMARK VINA RESULT:      -7.6      1.398      1.711
REMARK  Name = 
REMARK  3 active torsions:
REMARK  status: ('A' for Active; 'I' for Inactive)
REMARK    1  A    between atoms: C_10  and  C_11
REMARK    2  A    between atoms: C_11  and  N_13
REMARK    3  A    between atoms: C_17  and  C_18
REMARK                            x       y       z     vdW  Elec       q    Type
REMARK                         _______ _______ _______ _____ _____    ______ ____
ROOT
ATOM      1  C   UNL     1       0.567   5.090  20.716  0.00  0.00    +0.000 C 
ATOM      2  C   UNL     1       1.445   4.298  20.073  0.00  0.00    +0.000 C 
ATOM      3  C   UNL     1       1.356   2.800  20.258  0.00  0.00    +0.000 C 
ATOM      4  C   UNL     1       2.675   2.242  20.738  0.00  0.00    +0.000 C 
ATOM      5  S   UNL     1       3.889   2.422  19.467  0.00  0.00    +0.000 S 
ATOM      6  O   UNL     1       5.196   2.353  20.094  0.00  0.00    +0.000 OA
ATOM      7  O   UNL     1       3.536   1.539  18.372  0.00  0.00    +0.000 OA
ATOM      8  C   UNL     1       3.678   4.075  18.878  0.00  0.00    +0.000 A 
ATOM      9  C   UNL     1       4.721   4.603  18.095  0.00  0.00    +0.000 A 
ATOM     10  C   UNL     1       4.660   5.919  17.617  0.00  0.00    +0.000 A 
ATOM     11  C   UNL     1       3.518   6.691  17.901  0.00  0.00    +0.000 A 
ATOM     12  C   UNL     1       3.290   8.100  17.419  0.00  0.00    +0.000 C 
ATOM     13  C   UNL     1       2.487   6.128  18.693  0.00  0.00    +0.000 A 
ATOM     14  C   UNL     1       2.547   4.827  19.220  0.00  0.00    +0.000 A 
ENDROOT
BRANCH  10  15
ATOM     15  C   UNL     1       5.833   6.449  16.850  0.00  0.00    +0.000 C 
ATOM     16  O   UNL     1       6.654   7.173  17.407  0.00  0.00    +0.000 OA
BRANCH  15  17
ATOM     17  N   UNL     1       5.933   6.032  15.542  0.00  0.00    +0.000 NA
ATOM     18  C   UNL     1       6.814   5.136  15.251  0.00  0.00    +0.000 C 
ATOM     19  N   UNL     1       7.728   4.555  16.064  0.00  0.00    +0.000 N 
ATOM     20  N   UNL     1       6.942   4.704  13.975  0.00  0.00    +0.000 N 
ATOM     21  H   UNL     1       7.507   4.684  17.052  0.00  0.00    +0.000 HD
ATOM     22  H   UNL     1       7.969   3.597  15.863  0.00  0.00    +0.000 HD
ATOM     23  H   UNL     1       6.158   4.973  13.391  0.00  0.00    +0.000 HD
ATOM     24  H   UNL     1       7.227   3.746  13.839  0.00  0.00    +0.000 HD
ENDBRANCH  15  17
ENDBRANCH  10  15
TORSDOF 2
ENDMDL
MODEL 4
REMARK VINA RESULT:      -7.5      3.984      6.258
REMARK  Name = 
REMARK  3 active torsions:
REMARK  status: ('A' for Active; 'I' for Inactive)
REMARK    1  A    between atoms: C_10  and  C_11
REMARK    2  A    between atoms: C_11  and  N_13
REMARK    3  A    between atoms: C_17  and  C_18
REMARK                            x       y       z     vdW  Elec       q    Type
REMARK                         _______ _______ _______ _____ _____    ______ ____
ROOT
ATOM      1  C   UNL     1       5.513   3.501  14.765  0.00  0.00    +0.000 C 
ATOM      2  C   UNL     1       5.819   4.369  15.747  0.00  0.00    +0.000 C 
ATOM      3  C   UNL     1       7.157   5.071  15.717  0.00  0.00    +0.000 C 
ATOM      4  C   UNL     1       7.914   4.835  17.003  0.00  0.00    +0.000 C 
ATOM      5  S   UNL     1       7.070   5.630  18.337  0.00  0.00    +0.000 S 
ATOM      6  O   UNL     1       7.505   5.000  19.570  0.00  0.00    +0.000 OA
ATOM      7  O   UNL     1       7.173   7.064  18.151  0.00  0.00    +0.000 OA
ATOM      8  C   UNL     1       5.369   5.206  18.106  0.00  0.00    +0.000 A 
ATOM      9  C   UNL     1       4.511   5.425  19.198  0.00  0.00    +0.000 A 
ATOM     10  C   UNL     1       3.154   5.082  19.121  0.00  0.00    +0.000 A 
ATOM     11  C   UNL     1       2.657   4.551  17.917  0.00  0.00    +0.000 A 
ATOM     12  C   UNL     1       1.218   4.181  17.669  0.00  0.00    +0.000 C 
ATOM     13  C   UNL     1       3.549   4.343  16.837  0.00  0.00    +0.000 A 
ATOM     14  C   UNL     1       4.922   4.638  16.906  0.00  0.00    +0.000 A 
ENDROOT
BRANCH  10  15
ATOM     15  C   UNL     1       2.305   5.272  20.342  0.00  0.00    +0.000 C 
ATOM     16  O   UNL     1       1.526   6.219  20.406  0.00  0.00    +0.000 OA
BRANCH  15  17
ATOM     17  N   UNL     1       2.432   4.308  21.316  0.00  0.00    +0.000 NA
ATOM     18  C   UNL     1       1.585   3.336  21.329  0.00  0.00    +0.000 C 
ATOM     19  N   UNL     1       0.516   3.137  20.523  0.00  0.00    +0.000 N 
ATOM     20  N   UNL     1       1.678   2.372  22.274  0.00  0.00    +0.000 N 
ATOM     21  H   UNL     1       0.555   3.706  19.676  0.00  0.00    +0.000 HD
ATOM     22  H   UNL     1       0.278   2.179  20.312  0.00  0.00    +0.000 HD
ATOM     23  H   UNL     1       2.567   2.388  22.763  0.00  0.00    +0.000 HD
ATOM     24  H   UNL     1       1.387   1.442  22.014  0.00  0.00    +0.000 HD
ENDBRANCH  15  17
ENDBRANCH  10  15
TORSDOF 2
ENDMDL
MODEL 5
REMARK VINA RESULT:      -7.1      2.066      2.579
REMARK  Name = 
REMARK  3 active torsions:
REMARK  status: ('A' for Active; 'I' for Inactive)
REMARK    1  A    between atoms: C_10  and  C_11
REMARK    2  A    between atoms: C_11  and  N_13
REMARK    3  A    between atoms: C_17  and  C_18
REMARK                            x       y       z     vdW  Elec       q    Type
REMARK                         _______ _______ _______ _____ _____    ______ ____
ROOT
ATOM      1  C   UNL     1       1.085   5.631  20.825  0.00  0.00    +0.000 C 
ATOM      2  C   UNL     1       1.789   4.639  20.250  0.00  0.00    +0.000 C 
ATOM      3  C   UNL     1       1.483   3.207  20.627  0.00  0.00    +0.000 C 
ATOM      4  C   UNL     1       2.728   2.506  21.118  0.00  0.00    +0.000 C 
ATOM      5  S   UNL     1       3.875   2.338  19.784  0.00  0.00    +0.000 S 
ATOM      6  O   UNL     1       5.192   2.136  20.359  0.00  0.00    +0.000 OA
ATOM      7  O   UNL     1       3.324   1.400  18.826  0.00  0.00    +0.000 OA
ATOM      8  C   UNL     1       3.884   3.923  19.000  0.00  0.00    +0.000 A 
ATOM      9  C   UNL     1       4.945   4.180  18.114  0.00  0.00    +0.000 A 
ATOM     10  C   UNL     1       5.057   5.424  17.476  0.00  0.00    +0.000 A 
ATOM     11  C   UNL     1       4.067   6.396  17.708  0.00  0.00    +0.000 A 
ATOM     12  C   UNL     1       4.028   7.756  17.061  0.00  0.00    +0.000 C 
ATOM     13  C   UNL     1       3.013   6.103  18.607  0.00  0.00    +0.000 A 
ATOM     14  C   UNL     1       2.904   4.880  19.292  0.00  0.00    +0.000 A 
ENDROOT
BRANCH  10  15
ATOM     15  C   UNL     1       6.249   5.665  16.599  0.00  0.00    +0.000 C 
ATOM     16  O   UNL     1       6.607   4.803  15.800  0.00  0.00    +0.000 OA
BRANCH  15  17
ATOM     17  N   UNL     1       6.846   6.898  16.724  0.00  0.00    +0.000 NA
ATOM     18  C   UNL     1       7.607   7.109  17.744  0.00  0.00    +0.000 C 
ATOM     19  N   UNL     1       7.879   6.281  18.780  0.00  0.00    +0.000 N 
ATOM     20  N   UNL     1       8.208   8.311  17.900  0.00  0.00    +0.000 N 
ATOM     21  H   UNL     1       7.634   5.311  18.577  0.00  0.00    +0.000 HD
ATOM     22  H   UNL     1       8.799   6.351  19.187  0.00  0.00    +0.000 HD
ATOM     23  H   UNL     1       8.180   8.875  17.058  0.00  0.00    +0.000 HD
ATOM     24  H   UNL     1       9.110   8.320  18.352  0.00  0.00    +0.000 HD
ENDBRANCH  15  17
ENDBRANCH  10  15
TORSDOF 2
ENDMDL
MODEL 6
REMARK VINA RESULT:      -7.0      2.075      2.755
REMARK  Name = 
REMARK  3 active torsions:
REMARK  status: ('A' for Active; 'I' for Inactive)
REMARK    1  A    between atoms: C_10  and  C_11
REMARK    2  A    between atoms: C_11  and  N_13
REMARK    3  A    between atoms: C_17  and  C_18
REMARK                            x       y       z     vdW  Elec       q    Type
REMARK                         _______ _______ _______ _____ _____    ______ ____
ROOT
ATOM      1  C   UNL     1       4.730   1.743  21.091  0.00  0.00    +0.000 C 
ATOM      2  C   UNL     1       3.901   2.638  20.524  0.00  0.00    +0.000 C 
ATOM      3  C   UNL     1       2.499   2.791  21.068  0.00  0.00    +0.000 C 
ATOM      4  C   UNL     1       1.476   2.592  19.975  0.00  0.00    +0.000 C 
ATOM      5  S   UNL     1       1.601   3.909  18.803  0.00  0.00    +0.000 S 
ATOM      6  O   UNL     1       0.997   3.454  17.565  0.00  0.00    +0.000 OA
ATOM      7  O   UNL     1       1.164   5.133  19.446  0.00  0.00    +0.000 OA
ATOM      8  C   UNL     1       3.336   4.080  18.506  0.00  0.00    +0.000 A 
ATOM      9  C   UNL     1       3.710   4.826  17.375  0.00  0.00    +0.000 A 
ATOM     10  C   UNL     1       5.062   4.983  17.038  0.00  0.00    +0.000 A 
ATOM     11  C   UNL     1       6.039   4.412  17.873  0.00  0.00    +0.000 A 
ATOM     12  C   UNL     1       7.526   4.534  17.666  0.00  0.00    +0.000 C 
ATOM     13  C   UNL     1       5.626   3.666  19.004  0.00  0.00    +0.000 A 
ATOM     14  C   UNL     1       4.277   3.458  19.337  0.00  0.00    +0.000 A 
ENDROOT
BRANCH  10  15
ATOM     15  C   UNL     1       5.396   5.728  15.781  0.00  0.00    +0.000 C 
ATOM     16  O   UNL     1       5.636   6.931  15.826  0.00  0.00    +0.000 OA
BRANCH  15  17
ATOM     17  N   UNL     1       5.460   4.970  14.633  0.00  0.00    +0.000 NA
ATOM     18  C   UNL     1       6.602   4.841  14.048  0.00  0.00    +0.000 C 
ATOM     19  N   UNL     1       7.789   5.401  14.380  0.00  0.00    +0.000 N 
ATOM     20  N   UNL     1       6.701   4.105  12.917  0.00  0.00    +0.000 N 
ATOM     21  H   UNL     1       7.796   5.761  15.335  0.00  0.00    +0.000 HD
ATOM     22  H   UNL     1       8.617   4.858  14.185  0.00  0.00    +0.000 HD
ATOM     23  H   UNL     1       5.885   3.525  12.754  0.00  0.00    +0.000 HD
ATOM     24  H   UNL     1       7.570   3.618  12.758  0.00  0.00    +0.000 HD
ENDBRANCH  15  17
ENDBRANCH  10  15
TORSDOF 2
ENDMDL
MODEL 7
REMARK VINA RESULT:      -7.0      0.926      1.156
REMARK  Name = 
REMARK  3 active torsions:
REMARK  status: ('A' for Active; 'I' for Inactive)
REMARK    1  A    between atoms: C_10  and  C_11
REMARK    2  A    between atoms: C_11  and  N_13
REMARK    3  A    between atoms: C_17  and  C_18
REMARK                            x       y       z     vdW  Elec       q    Type
REMARK                         _______ _______ _______ _____ _____    ______ ____
ROOT
ATOM      1  C   UNL     1       2.085   7.150  20.323  0.00  0.00    +0.000 C 
ATOM      2  C   UNL     1       2.167   5.847  19.997  0.00  0.00    +0.000 C 
ATOM      3  C   UNL     1       1.347   4.841  20.772  0.00  0.00    +0.000 C 
ATOM      4  C   UNL     1       2.231   3.762  21.350  0.00  0.00    +0.000 C 
ATOM      5  S   UNL     1       2.920   2.798  20.039  0.00  0.00    +0.000 S 
ATOM      6  O   UNL     1       4.101   2.132  20.556  0.00  0.00    +0.000 OA
ATOM      7  O   UNL     1       1.848   2.047  19.414  0.00  0.00    +0.000 OA
ATOM      8  C   UNL     1       3.470   3.987  18.851  0.00  0.00    +0.000 A 
ATOM      9  C   UNL     1       4.351   3.524  17.858  0.00  0.00    +0.000 A 
ATOM     10  C   UNL     1       4.871   4.403  16.898  0.00  0.00    +0.000 A 
ATOM     11  C   UNL     1       4.464   5.750  16.921  0.00  0.00    +0.000 A 
ATOM     12  C   UNL     1       4.898   6.798  15.930  0.00  0.00    +0.000 C 
ATOM     13  C   UNL     1       3.575   6.182  17.935  0.00  0.00    +0.000 A 
ATOM     14  C   UNL     1       3.076   5.329  18.935  0.00  0.00    +0.000 A 
ENDROOT
BRANCH  10  15
ATOM     15  C   UNL     1       5.862   3.867  15.909  0.00  0.00    +0.000 C 
ATOM     16  O   UNL     1       5.705   2.748  15.429  0.00  0.00    +0.000 OA
BRANCH  15  17
ATOM     17  N   UNL     1       6.886   4.719  15.564  0.00  0.00    +0.000 NA
ATOM     18  C   UNL     1       7.191   4.836  14.316  0.00  0.00    +0.000 C 
ATOM     19  N   UNL     1       6.665   4.181  13.254  0.00  0.00    +0.000 N 
ATOM     20  N   UNL     1       8.194   5.663  13.941  0.00  0.00    +0.000 N 
ATOM     21  H   UNL     1       5.773   3.737  13.473  0.00  0.00    +0.000 HD
ATOM     22  H   UNL     1       6.619   4.691  12.385  0.00  0.00    +0.000 HD
ATOM     23  H   UNL     1       8.472   6.300  14.679  0.00  0.00    +0.000 HD
ATOM     24  H   UNL     1       8.109   6.112  13.041  0.00  0.00    +0.000 HD
ENDBRANCH  15  17
ENDBRANCH  10  15
TORSDOF 2
ENDMDL
MODEL 8
REMARK VINA RESULT:      -7.0      1.773      2.100
REMARK  Name = 
REMARK  3 active torsions:
REMARK  status: ('A' for Active; 'I' for Inactive)
REMARK    1  A    between atoms: C_10  and  C_11
REMARK    2  A    between atoms: C_11  and  N_13
REMARK    3  A    between atoms: C_17  and  C_18
REMARK                            x       y       z     vdW  Elec       q    Type
REMARK                         _______ _______ _______ _____ _____    ______ ____
ROOT
ATOM      1  C   UNL     1       2.690   4.405  21.910  0.00  0.00    +0.000 C 
ATOM      2  C   UNL     1       2.423   4.324  20.594  0.00  0.00    +0.000 C 
ATOM      3  C   UNL     1       0.994   4.123  20.145  0.00  0.00    +0.000 C 
ATOM      4  C   UNL     1       0.876   2.902  19.264  0.00  0.00    +0.000 C 
ATOM      5  S   UNL     1       1.741   3.184  17.748  0.00  0.00    +0.000 S 
ATOM      6  O   UNL     1       2.035   1.889  17.163  0.00  0.00    +0.000 OA
ATOM      7  O   UNL     1       1.029   4.201  17.000  0.00  0.00    +0.000 OA
ATOM      8  C   UNL     1       3.283   3.897  18.239  0.00  0.00    +0.000 A 
ATOM      9  C   UNL     1       4.302   3.922  17.271  0.00  0.00    +0.000 A 
ATOM     10  C   UNL     1       5.570   4.432  17.581  0.00  0.00    +0.000 A 
ATOM     11  C   UNL     1       5.794   4.956  18.868  0.00  0.00    +0.000 A 
ATOM     12  C   UNL     1       7.085   5.579  19.331  0.00  0.00    +0.000 C 
ATOM     13  C   UNL     1       4.745   4.915  19.818  0.00  0.00    +0.000 A 
ATOM     14  C   UNL     1       3.479   4.368  19.544  0.00  0.00    +0.000 A 
ENDROOT
BRANCH  10  15
ATOM     15  C   UNL     1       6.637   4.365  16.530  0.00  0.00    +0.000 C 
ATOM     16  O   UNL     1       7.781   4.728  16.793  0.00  0.00    +0.000 OA
BRANCH  15  17
ATOM     17  N   UNL     1       6.254   3.837  15.319  0.00  0.00    +0.000 NA
ATOM     18  C   UNL     1       6.723   4.370  14.242  0.00  0.00    +0.000 C 
ATOM     19  N   UNL     1       7.533   5.448  14.118  0.00  0.00    +0.000 N 
ATOM     20  N   UNL     1       6.366   3.878  13.034  0.00  0.00    +0.000 N 
ATOM     21  H   UNL     1       7.996   5.690  14.995  0.00  0.00    +0.000 HD
ATOM     22  H   UNL     1       8.185   5.439  13.348  0.00  0.00    +0.000 HD
ATOM     23  H   UNL     1       5.923   2.968  13.097  0.00  0.00    +0.000 HD
ATOM     24  H   UNL     1       7.048   3.935  12.293  0.00  0.00    +0.000 HD
ENDBRANCH  15  17
ENDBRANCH  10  15
TORSDOF 2
ENDMDL
MODEL 9
REMARK VINA RESULT:      -6.9      4.380      5.695
REMARK  Name = 
REMARK  3 active torsions:
REMARK  status: ('A' for Active; 'I' for Inactive)
REMARK    1  A    between atoms: C_10  and  C_11
REMARK    2  A    between atoms: C_11  and  N_13
REMARK    3  A    between atoms: C_17  and  C_18
REMARK                            x       y       z     vdW  Elec       q    Type
REMARK                         _______ _______ _______ _____ _____    ______ ____
ROOT
ATOM      1  C   UNL     1       2.365   3.055  21.815  0.00  0.00    +0.000 C 
ATOM      2  C   UNL     1       2.308   3.271  20.488  0.00  0.00    +0.000 C 
ATOM      3  C   UNL     1       2.387   2.090  19.547  0.00  0.00    +0.000 C 
ATOM      4  C   UNL     1       3.512   2.270  18.556  0.00  0.00    +0.000 C 
ATOM      5  S   UNL     1       3.140   3.622  17.480  0.00  0.00    +0.000 S 
ATOM      6  O   UNL     1       4.389   4.079  16.900  0.00  0.00    +0.000 OA
ATOM      7  O   UNL     1       2.019   3.241  16.642  0.00  0.00    +0.000 OA
ATOM      8  C   UNL     1       2.562   4.902  18.554  0.00  0.00    +0.000 A 
ATOM      9  C   UNL     1       2.505   6.199  18.014  0.00  0.00    +0.000 A 
ATOM     10  C   UNL     1       2.097   7.284  18.802  0.00  0.00    +0.000 A 
ATOM     11  C   UNL     1       1.708   7.047  20.133  0.00  0.00    +0.000 A 
ATOM     12  C   UNL     1       1.205   8.101  21.083  0.00  0.00    +0.000 C 
ATOM     13  C   UNL     1       1.779   5.728  20.645  0.00  0.00    +0.000 A 
ATOM     14  C   UNL     1       2.227   4.632  19.887  0.00  0.00    +0.000 A 
ENDROOT
BRANCH  10  15
ATOM     15  C   UNL     1       2.126   8.653  18.192  0.00  0.00    +0.000 C 
ATOM     16  O   UNL     1       3.201   9.205  17.973  0.00  0.00    +0.000 OA
BRANCH  15  17
ATOM     17  N   UNL     1       0.902   9.191  17.865  0.00  0.00    +0.000 NA
ATOM     18  C   UNL     1       0.610  10.364  18.312  0.00  0.00    +0.000 C 
ATOM     19  N   UNL     1       1.337  11.162  19.130  0.00  0.00    +0.000 N 
ATOM     20  N   UNL     1      -0.586  10.922  18.013  0.00  0.00    +0.000 N 
ATOM     21  H   UNL     1       2.316  10.877  19.181  0.00  0.00    +0.000 HD
ATOM     22  H   UNL     1       1.250  12.156  18.988  0.00  0.00    +0.000 HD
ATOM     23  H   UNL     1      -1.064  10.442  17.259  0.00  0.00    +0.000 HD
ATOM     24  H   UNL     1      -0.617  11.927  17.925  0.00  0.00    +0.000 HD
ENDBRANCH  15  17
ENDBRANCH  10  15
TORSDOF 2
ENDMDL
