MODEL 1
REMARK VINA RESULT:      -8.0      0.000      0.000
REMARK  Name = 
REMARK  14 active torsions:
REMARK  status: ('A' for Active; 'I' for Inactive)
REMARK    1  A    between atoms: C_1  and  C_2
REMARK    2  A    between atoms: C_2  and  C_3
REMARK    3  A    between atoms: C_3  and  C_4
REMARK    4  A    between atoms: C_4  and  C_5
REMARK    5  A    between atoms: C_5  and  C_6
REMARK    6  A    between atoms: C_6  and  C_7
REMARK    7  A    between atoms: C_7  and  C_8
REMARK    8  A    between atoms: C_8  and  C_9
REMARK    9  A    between atoms: C_9  and  C_10
REMARK   10  A    between atoms: C_10  and  C_11
REMARK   11  A    between atoms: C_11  and  C_12
REMARK   12  A    between atoms: C_12  and  C_13
REMARK   13  A    between atoms: C_15  and  C_16
REMARK   14  A    between atoms: C_20  and  O_21
REMARK                            x       y       z     vdW  Elec       q    Type
REMARK                         _______ _______ _______ _____ _____    ______ ____
ROOT
ATOM      1  C   UNL     1       3.331   6.847  17.555  0.00  0.00    +0.000 C 
ATOM      2  C   UNL     1       4.951   7.166  17.838  0.00  0.00    +0.000 C 
ATOM      3  C   UNL     1       5.766   5.764  17.815  0.00  0.00    +0.000 C 
ATOM      4  C   UNL     1       5.516   5.333  19.290  0.00  0.00    +0.000 C 
ATOM      5  C   UNL     1       5.175   5.272  16.431  0.00  0.00    +0.000 C 
ATOM      6  C   UNL     1       6.269   4.883  15.459  0.00  0.00    +0.000 C 
ATOM      7  C   UNL     1       7.365   4.433  16.353  0.00  0.00    +0.000 C 
ATOM      8  C   UNL     1       7.294   5.361  17.583  0.00  0.00    +0.000 C 
ATOM      9  C   UNL     1       3.827   4.573  16.504  0.00  0.00    +0.000 C 
ATOM     10  C   UNL     1       3.861   3.051  16.547  0.00  0.00    +0.000 C 
ATOM     11  C   UNL     1       4.063   2.524  17.949  0.00  0.00    +0.000 C 
ATOM     12  C   UNL     1       3.128   3.170  18.952  0.00  0.00    +0.000 C 
ATOM     13  C   UNL     1       3.004   2.545  20.135  0.00  0.00    +0.000 C 
ATOM     14  C   UNL     1       2.241   3.159  21.239  0.00  0.00    +0.000 C 
ATOM     15  O   UNL     1       2.408   2.780  22.394  0.00  0.00    +0.000 OA
ATOM     16  C   UNL     1       1.225   4.185  20.851  0.00  0.00    +0.000 C 
ATOM     17  C   UNL     1       1.856   5.165  19.878  0.00  0.00    +0.000 C 
ATOM     18  C   UNL     1       2.623   4.549  18.715  0.00  0.00    +0.000 C 
ATOM     19  C   UNL     1       3.099   5.268  17.656  0.00  0.00    +0.000 C 
ENDROOT
BRANCH   8  20
ATOM     20  O   UNL     1       7.873   4.562  18.640  0.00  0.00    +0.000 OA
ATOM     21  H   UNL     1       7.703   4.954  19.511  0.00  0.00    +0.000 HD
ENDBRANCH   8  20
BRANCH   1  22
ATOM     22  C   UNL     1       2.262   7.702  18.262  0.00  0.00    +0.000 C 
BRANCH  22  23
ATOM     23  C   UNL     1       1.794   9.029  17.645  0.00  0.00    +0.000 C 
BRANCH  23  24
ATOM     24  C   UNL     1       1.452  10.007  18.797  0.00  0.00    +0.000 C 
BRANCH  24  25
ATOM     25  C   UNL     1       0.092   9.834  19.486  0.00  0.00    +0.000 C 
BRANCH  25  26
ATOM     26  C   UNL     1      -0.161  10.775  20.651  0.00  0.00    +0.000 C 
BRANCH  26  27
ATOM     27  C   UNL     1      -0.645  12.152  20.161  0.00  0.00    +0.000 C 
BRANCH  27  28
ATOM     28  C   UNL     1      -2.155  12.192  19.899  0.00  0.00    +0.000 C 
BRANCH  28  29
ATOM     29  C   UNL     1      -2.471  11.921  18.424  0.00  0.00    +0.000 C 
BRANCH  29  30
ATOM     30  C   UNL     1      -3.650  10.956  18.259  0.00  0.00    +0.000 C 
BRANCH  30  31
ATOM     31  C   UNL     1      -3.218   9.653  17.575  0.00  0.00    +0.000 C 
BRANCH  31  33
ATOM     32  C   UNL     1      -2.923  10.073  15.102  0.00  0.00    +0.000 C 
ATOM     33  C   UNL     1      -2.222   9.914  16.443  0.00  0.00    +0.000 C 
ENDBRANCH  31  33
ENDBRANCH  30  31
ENDBRANCH  29  30
ENDBRANCH  28  29
ENDBRANCH  27  28
ENDBRANCH  26  27
ENDBRANCH  25  26
ENDBRANCH  24  25
ENDBRANCH  23  24
ENDBRANCH  22  23
ENDBRANCH   1  22
TORSDOF 12
ENDMDL
MODEL 2
REMARK VINA RESULT:      -7.9      1.236      2.521
REMARK  Name = 
REMARK  14 active torsions:
REMARK  status: ('A' for Active; 'I' for Inactive)
REMARK    1  A    between atoms: C_1  and  C_2
REMARK    2  A    between atoms: C_2  and  C_3
REMARK    3  A    between atoms: C_3  and  C_4
REMARK    4  A    between atoms: C_4  and  C_5
REMARK    5  A    between atoms: C_5  and  C_6
REMARK    6  A    between atoms: C_6  and  C_7
REMARK    7  A    between atoms: C_7  and  C_8
REMARK    8  A    between atoms: C_8  and  C_9
REMARK    9  A    between atoms: C_9  and  C_10
REMARK   10  A    between atoms: C_10  and  C_11
REMARK   11  A    between atoms: C_11  and  C_12
REMARK   12  A    between atoms: C_12  and  C_13
REMARK   13  A    between atoms: C_15  and  C_16
REMARK   14  A    between atoms: C_20  and  O_21
REMARK                            x       y       z     vdW  Elec       q    Type
REMARK                         _______ _______ _______ _____ _____    ______ ____
ROOT
ATOM      1  C   UNL     1       3.530   6.962  17.629  0.00  0.00    +0.000 C 
ATOM      2  C   UNL     1       5.183   7.130  17.832  0.00  0.00    +0.000 C 
ATOM      3  C   UNL     1       5.871   5.667  17.704  0.00  0.00    +0.000 C 
ATOM      4  C   UNL     1       5.664   5.190  19.171  0.00  0.00    +0.000 C 
ATOM      5  C   UNL     1       5.167   5.291  16.336  0.00  0.00    +0.000 C 
ATOM      6  C   UNL     1       6.170   4.858  15.288  0.00  0.00    +0.000 C 
ATOM      7  C   UNL     1       7.269   4.275  16.098  0.00  0.00    +0.000 C 
ATOM      8  C   UNL     1       7.344   5.148  17.368  0.00  0.00    +0.000 C 
ATOM      9  C   UNL     1       3.770   4.706  16.457  0.00  0.00    +0.000 C 
ATOM     10  C   UNL     1       3.673   3.186  16.434  0.00  0.00    +0.000 C 
ATOM     11  C   UNL     1       3.903   2.579  17.798  0.00  0.00    +0.000 C 
ATOM     12  C   UNL     1       3.083   3.254  18.879  0.00  0.00    +0.000 C 
ATOM     13  C   UNL     1       2.968   2.587  20.041  0.00  0.00    +0.000 C 
ATOM     14  C   UNL     1       2.322   3.211  21.211  0.00  0.00    +0.000 C 
ATOM     15  O   UNL     1       2.517   2.766  22.338  0.00  0.00    +0.000 OA
ATOM     16  C   UNL     1       1.380   4.336  20.925  0.00  0.00    +0.000 C 
ATOM     17  C   UNL     1       2.040   5.303  19.960  0.00  0.00    +0.000 C 
ATOM     18  C   UNL     1       2.687   4.680  18.730  0.00  0.00    +0.000 C 
ATOM     19  C   UNL     1       3.167   5.405  17.677  0.00  0.00    +0.000 C 
ENDROOT
BRANCH   8  20
ATOM     20  O   UNL     1       7.908   4.254  18.355  0.00  0.00    +0.000 OA
ATOM     21  H   UNL     1       8.878   4.252  18.314  0.00  0.00    +0.000 HD
ENDBRANCH   8  20
BRANCH   1  22
ATOM     22  C   UNL     1       2.578   7.870  18.431  0.00  0.00    +0.000 C 
BRANCH  22  23
ATOM     23  C   UNL     1       2.022   9.159  17.807  0.00  0.00    +0.000 C 
BRANCH  23  24
ATOM     24  C   UNL     1       0.482   9.023  17.700  0.00  0.00    +0.000 C 
BRANCH  24  25
ATOM     25  C   UNL     1      -0.349  10.306  17.836  0.00  0.00    +0.000 C 
BRANCH  25  26
ATOM     26  C   UNL     1      -1.077  10.459  19.160  0.00  0.00    +0.000 C 
BRANCH  26  27
ATOM     27  C   UNL     1      -0.740  11.802  19.831  0.00  0.00    +0.000 C 
BRANCH  27  28
ATOM     28  C   UNL     1      -1.610  12.087  21.061  0.00  0.00    +0.000 C 
BRANCH  28  29
ATOM     29  C   UNL     1      -0.775  12.073  22.347  0.00  0.00    +0.000 C 
BRANCH  29  30
ATOM     30  C   UNL     1      -1.182  10.929  23.282  0.00  0.00    +0.000 C 
BRANCH  30  31
ATOM     31  C   UNL     1      -0.768   9.566  22.714  0.00  0.00    +0.000 C 
BRANCH  31  33
ATOM     32  C   UNL     1       1.222   8.578  21.513  0.00  0.00    +0.000 C 
ATOM     33  C   UNL     1       0.753   9.397  22.706  0.00  0.00    +0.000 C 
ENDBRANCH  31  33
ENDBRANCH  30  31
ENDBRANCH  29  30
ENDBRANCH  28  29
ENDBRANCH  27  28
ENDBRANCH  26  27
ENDBRANCH  25  26
ENDBRANCH  24  25
ENDBRANCH  23  24
ENDBRANCH  22  23
ENDBRANCH   1  22
TORSDOF 12
ENDMDL
MODEL 3
REMARK VINA RESULT:      -7.9      1.717      2.212
REMARK  Name = 
REMARK  14 active torsions:
REMARK  status: ('A' for Active; 'I' for Inactive)
REMARK    1  A    between atoms: C_1  and  C_2
REMARK    2  A    between atoms: C_2  and  C_3
REMARK    3  A    between atoms: C_3  and  C_4
REMARK    4  A    between atoms: C_4  and  C_5
REMARK    5  A    between atoms: C_5  and  C_6
REMARK    6  A    between atoms: C_6  and  C_7
REMARK    7  A    between atoms: C_7  and  C_8
REMARK    8  A    between atoms: C_8  and  C_9
REMARK    9  A    between atoms: C_9  and  C_10
REMARK   10  A    between atoms: C_10  and  C_11
REMARK   11  A    between atoms: C_11  and  C_12
REMARK   12  A    between atoms: C_12  and  C_13
REMARK   13  A    between atoms: C_15  and  C_16
REMARK   14  A    between atoms: C_20  and  O_21
REMARK                            x       y       z     vdW  Elec       q    Type
REMARK                         _______ _______ _______ _____ _____    ______ ____
ROOT
ATOM      1  C   UNL     1       3.399   6.870  17.636  0.00  0.00    +0.000 C 
ATOM      2  C   UNL     1       5.029   7.150  17.901  0.00  0.00    +0.000 C 
ATOM      3  C   UNL     1       5.816   5.734  17.814  0.00  0.00    +0.000 C 
ATOM      4  C   UNL     1       5.584   5.256  19.277  0.00  0.00    +0.000 C 
ATOM      5  C   UNL     1       5.193   5.302  16.424  0.00  0.00    +0.000 C 
ATOM      6  C   UNL     1       6.261   4.929  15.419  0.00  0.00    +0.000 C 
ATOM      7  C   UNL     1       7.364   4.427  16.277  0.00  0.00    +0.000 C 
ATOM      8  C   UNL     1       7.332   5.312  17.540  0.00  0.00    +0.000 C 
ATOM      9  C   UNL     1       3.833   4.626  16.497  0.00  0.00    +0.000 C 
ATOM     10  C   UNL     1       3.838   3.103  16.486  0.00  0.00    +0.000 C 
ATOM     11  C   UNL     1       4.055   2.523  17.864  0.00  0.00    +0.000 C 
ATOM     12  C   UNL     1       3.150   3.150  18.906  0.00  0.00    +0.000 C 
ATOM     13  C   UNL     1       3.035   2.486  20.069  0.00  0.00    +0.000 C 
ATOM     14  C   UNL     1       2.303   3.074  21.207  0.00  0.00    +0.000 C 
ATOM     15  O   UNL     1       2.484   2.652  22.345  0.00  0.00    +0.000 OA
ATOM     16  C   UNL     1       1.301   4.132  20.874  0.00  0.00    +0.000 C 
ATOM     17  C   UNL     1       1.933   5.134  19.925  0.00  0.00    +0.000 C 
ATOM     18  C   UNL     1       2.667   4.546  18.727  0.00  0.00    +0.000 C 
ATOM     19  C   UNL     1       3.138   5.293  17.686  0.00  0.00    +0.000 C 
ENDROOT
BRANCH   8  20
ATOM     20  O   UNL     1       7.915   4.465  18.557  0.00  0.00    +0.000 OA
ATOM     21  H   UNL     1       7.966   3.543  18.260  0.00  0.00    +0.000 HD
ENDBRANCH   8  20
BRANCH   1  22
ATOM     22  C   UNL     1       2.358   7.719  18.392  0.00  0.00    +0.000 C 
BRANCH  22  23
ATOM     23  C   UNL     1       1.814   9.016  17.773  0.00  0.00    +0.000 C 
BRANCH  23  24
ATOM     24  C   UNL     1       1.043   9.792  18.871  0.00  0.00    +0.000 C 
BRANCH  24  25
ATOM     25  C   UNL     1       0.932   9.133  20.252  0.00  0.00    +0.000 C 
BRANCH  25  26
ATOM     26  C   UNL     1       0.942  10.098  21.424  0.00  0.00    +0.000 C 
BRANCH  26  27
ATOM     27  C   UNL     1       0.151   9.534  22.619  0.00  0.00    +0.000 C 
BRANCH  27  28
ATOM     28  C   UNL     1      -0.987  10.458  23.068  0.00  0.00    +0.000 C 
BRANCH  28  29
ATOM     29  C   UNL     1      -0.807  11.874  22.507  0.00  0.00    +0.000 C 
BRANCH  29  30
ATOM     30  C   UNL     1      -1.664  12.108  21.257  0.00  0.00    +0.000 C 
BRANCH  30  31
ATOM     31  C   UNL     1      -1.304  13.430  20.570  0.00  0.00    +0.000 C 
BRANCH  31  33
ATOM     32  C   UNL     1       0.840  13.453  19.236  0.00  0.00    +0.000 C 
ATOM     33  C   UNL     1      -0.659  13.197  19.202  0.00  0.00    +0.000 C 
ENDBRANCH  31  33
ENDBRANCH  30  31
ENDBRANCH  29  30
ENDBRANCH  28  29
ENDBRANCH  27  28
ENDBRANCH  26  27
ENDBRANCH  25  26
ENDBRANCH  24  25
ENDBRANCH  23  24
ENDBRANCH  22  23
ENDBRANCH   1  22
TORSDOF 12
ENDMDL
MODEL 4
REMARK VINA RESULT:      -7.8      0.824      1.295
REMARK  Name = 
REMARK  14 active torsions:
REMARK  status: ('A' for Active; 'I' for Inactive)
REMARK    1  A    between atoms: C_1  and  C_2
REMARK    2  A    between atoms: C_2  and  C_3
REMARK    3  A    between atoms: C_3  and  C_4
REMARK    4  A    between atoms: C_4  and  C_5
REMARK    5  A    between atoms: C_5  and  C_6
REMARK    6  A    between atoms: C_6  and  C_7
REMARK    7  A    between atoms: C_7  and  C_8
REMARK    8  A    between atoms: C_8  and  C_9
REMARK    9  A    between atoms: C_9  and  C_10
REMARK   10  A    between atoms: C_10  and  C_11
REMARK   11  A    between atoms: C_11  and  C_12
REMARK   12  A    between atoms: C_12  and  C_13
REMARK   13  A    between atoms: C_15  and  C_16
REMARK   14  A    between atoms: C_20  and  O_21
REMARK                            x       y       z     vdW  Elec       q    Type
REMARK                         _______ _______ _______ _____ _____    ______ ____
ROOT
ATOM      1  C   UNL     1       3.468   6.982  17.669  0.00  0.00    +0.000 C 
ATOM      2  C   UNL     1       5.117   7.176  17.891  0.00  0.00    +0.000 C 
ATOM      3  C   UNL     1       5.830   5.724  17.763  0.00  0.00    +0.000 C 
ATOM      4  C   UNL     1       5.615   5.237  19.226  0.00  0.00    +0.000 C 
ATOM      5  C   UNL     1       5.146   5.344  16.387  0.00  0.00    +0.000 C 
ATOM      6  C   UNL     1       6.166   4.932  15.347  0.00  0.00    +0.000 C 
ATOM      7  C   UNL     1       7.266   4.363  16.166  0.00  0.00    +0.000 C 
ATOM      8  C   UNL     1       7.314   5.231  17.441  0.00  0.00    +0.000 C 
ATOM      9  C   UNL     1       3.757   4.736  16.489  0.00  0.00    +0.000 C 
ATOM     10  C   UNL     1       3.685   3.215  16.459  0.00  0.00    +0.000 C 
ATOM     11  C   UNL     1       3.911   2.605  17.823  0.00  0.00    +0.000 C 
ATOM     12  C   UNL     1       3.068   3.261  18.898  0.00  0.00    +0.000 C 
ATOM     13  C   UNL     1       2.953   2.587  20.055  0.00  0.00    +0.000 C 
ATOM     14  C   UNL     1       2.284   3.194  21.222  0.00  0.00    +0.000 C 
ATOM     15  O   UNL     1       2.474   2.747  22.348  0.00  0.00    +0.000 OA
ATOM     16  C   UNL     1       1.327   4.305  20.931  0.00  0.00    +0.000 C 
ATOM     17  C   UNL     1       1.982   5.288  19.977  0.00  0.00    +0.000 C 
ATOM     18  C   UNL     1       2.651   4.681  18.752  0.00  0.00    +0.000 C 
ATOM     19  C   UNL     1       3.130   5.419  17.707  0.00  0.00    +0.000 C 
ENDROOT
BRANCH   8  20
ATOM     20  O   UNL     1       7.882   4.342  18.430  0.00  0.00    +0.000 OA
ATOM     21  H   UNL     1       8.519   4.807  18.995  0.00  0.00    +0.000 HD
ENDBRANCH   8  20
BRANCH   1  22
ATOM     22  C   UNL     1       2.493   7.871  18.466  0.00  0.00    +0.000 C 
BRANCH  22  23
ATOM     23  C   UNL     1       1.633   8.921  17.747  0.00  0.00    +0.000 C 
BRANCH  23  24
ATOM     24  C   UNL     1       1.593  10.199  18.623  0.00  0.00    +0.000 C 
BRANCH  24  25
ATOM     25  C   UNL     1       0.952  10.080  20.012  0.00  0.00    +0.000 C 
BRANCH  25  26
ATOM     26  C   UNL     1      -0.515  10.469  20.076  0.00  0.00    +0.000 C 
BRANCH  26  27
ATOM     27  C   UNL     1      -0.790  11.745  19.260  0.00  0.00    +0.000 C 
BRANCH  27  28
ATOM     28  C   UNL     1      -2.083  11.660  18.441  0.00  0.00    +0.000 C 
BRANCH  28  29
ATOM     29  C   UNL     1      -1.995  10.563  17.375  0.00  0.00    +0.000 C 
BRANCH  29  30
ATOM     30  C   UNL     1      -3.376  10.176  16.835  0.00  0.00    +0.000 C 
BRANCH  30  31
ATOM     31  C   UNL     1      -4.489  10.554  17.818  0.00  0.00    +0.000 C 
BRANCH  31  33
ATOM     32  C   UNL     1      -6.726  11.710  18.017  0.00  0.00    +0.000 C 
ATOM     33  C   UNL     1      -5.429  11.607  17.228  0.00  0.00    +0.000 C 
ENDBRANCH  31  33
ENDBRANCH  30  31
ENDBRANCH  29  30
ENDBRANCH  28  29
ENDBRANCH  27  28
ENDBRANCH  26  27
ENDBRANCH  25  26
ENDBRANCH  24  25
ENDBRANCH  23  24
ENDBRANCH  22  23
ENDBRANCH   1  22
TORSDOF 12
ENDMDL
MODEL 5
REMARK VINA RESULT:      -7.8      1.955      2.956
REMARK  Name = 
REMARK  14 active torsions:
REMARK  status: ('A' for Active; 'I' for Inactive)
REMARK    1  A    between atoms: C_1  and  C_2
REMARK    2  A    between atoms: C_2  and  C_3
REMARK    3  A    between atoms: C_3  and  C_4
REMARK    4  A    between atoms: C_4  and  C_5
REMARK    5  A    between atoms: C_5  and  C_6
REMARK    6  A    between atoms: C_6  and  C_7
REMARK    7  A    between atoms: C_7  and  C_8
REMARK    8  A    between atoms: C_8  and  C_9
REMARK    9  A    between atoms: C_9  and  C_10
REMARK   10  A    between atoms: C_10  and  C_11
REMARK   11  A    between atoms: C_11  and  C_12
REMARK   12  A    between atoms: C_12  and  C_13
REMARK   13  A    between atoms: C_15  and  C_16
REMARK   14  A    between atoms: C_20  and  O_21
REMARK                            x       y       z     vdW  Elec       q    Type
REMARK                         _______ _______ _______ _____ _____    ______ ____
ROOT
ATOM      1  C   UNL     1       3.401   6.878  17.754  0.00  0.00    +0.000 C 
ATOM      2  C   UNL     1       5.050   7.098  17.941  0.00  0.00    +0.000 C 
ATOM      3  C   UNL     1       5.787   5.665  17.756  0.00  0.00    +0.000 C 
ATOM      4  C   UNL     1       5.618   5.134  19.209  0.00  0.00    +0.000 C 
ATOM      5  C   UNL     1       5.077   5.308  16.386  0.00  0.00    +0.000 C 
ATOM      6  C   UNL     1       6.078   4.944  15.311  0.00  0.00    +0.000 C 
ATOM      7  C   UNL     1       7.209   4.376  16.087  0.00  0.00    +0.000 C 
ATOM      8  C   UNL     1       7.272   5.209  17.384  0.00  0.00    +0.000 C 
ATOM      9  C   UNL     1       3.702   4.670  16.506  0.00  0.00    +0.000 C 
ATOM     10  C   UNL     1       3.659   3.150  16.436  0.00  0.00    +0.000 C 
ATOM     11  C   UNL     1       3.930   2.508  17.776  0.00  0.00    +0.000 C 
ATOM     12  C   UNL     1       3.102   3.118  18.890  0.00  0.00    +0.000 C 
ATOM     13  C   UNL     1       3.028   2.411  20.031  0.00  0.00    +0.000 C 
ATOM     14  C   UNL     1       2.377   2.974  21.229  0.00  0.00    +0.000 C 
ATOM     15  O   UNL     1       2.604   2.500  22.338  0.00  0.00    +0.000 OA
ATOM     16  C   UNL     1       1.392   4.073  20.992  0.00  0.00    +0.000 C 
ATOM     17  C   UNL     1       2.005   5.094  20.050  0.00  0.00    +0.000 C 
ATOM     18  C   UNL     1       2.655   4.533  18.792  0.00  0.00    +0.000 C 
ATOM     19  C   UNL     1       3.093   5.308  17.757  0.00  0.00    +0.000 C 
ENDROOT
BRANCH   8  20
ATOM     20  O   UNL     1       7.881   4.305  18.334  0.00  0.00    +0.000 OA
ATOM     21  H   UNL     1       7.996   4.730  19.199  0.00  0.00    +0.000 HD
ENDBRANCH   8  20
BRANCH   1  22
ATOM     22  C   UNL     1       2.429   7.726  18.598  0.00  0.00    +0.000 C 
BRANCH  22  23
ATOM     23  C   UNL     1       1.697   8.923  17.974  0.00  0.00    +0.000 C 
BRANCH  23  24
ATOM     24  C   UNL     1       0.767   9.539  19.049  0.00  0.00    +0.000 C 
BRANCH  24  25
ATOM     25  C   UNL     1       1.122   9.280  20.519  0.00  0.00    +0.000 C 
BRANCH  25  26
ATOM     26  C   UNL     1      -0.046   8.873  21.399  0.00  0.00    +0.000 C 
BRANCH  26  27
ATOM     27  C   UNL     1       0.086   9.467  22.813  0.00  0.00    +0.000 C 
BRANCH  27  28
ATOM     28  C   UNL     1      -1.073  10.403  23.176  0.00  0.00    +0.000 C 
BRANCH  28  29
ATOM     29  C   UNL     1      -0.849  11.810  22.608  0.00  0.00    +0.000 C 
BRANCH  29  30
ATOM     30  C   UNL     1      -1.855  12.821  23.170  0.00  0.00    +0.000 C 
BRANCH  30  31
ATOM     31  C   UNL     1      -3.236  12.655  22.526  0.00  0.00    +0.000 C 
BRANCH  31  33
ATOM     32  C   UNL     1      -3.614  14.800  23.803  0.00  0.00    +0.000 C 
ATOM     33  C   UNL     1      -4.068  13.934  22.638  0.00  0.00    +0.000 C 
ENDBRANCH  31  33
ENDBRANCH  30  31
ENDBRANCH  29  30
ENDBRANCH  28  29
ENDBRANCH  27  28
ENDBRANCH  26  27
ENDBRANCH  25  26
ENDBRANCH  24  25
ENDBRANCH  23  24
ENDBRANCH  22  23
ENDBRANCH   1  22
TORSDOF 12
ENDMDL
MODEL 6
REMARK VINA RESULT:      -7.7      1.084      1.869
REMARK  Name = 
REMARK  14 active torsions:
REMARK  status: ('A' for Active; 'I' for Inactive)
REMARK    1  A    between atoms: C_1  and  C_2
REMARK    2  A    between atoms: C_2  and  C_3
REMARK    3  A    between atoms: C_3  and  C_4
REMARK    4  A    between atoms: C_4  and  C_5
REMARK    5  A    between atoms: C_5  and  C_6
REMARK    6  A    between atoms: C_6  and  C_7
REMARK    7  A    between atoms: C_7  and  C_8
REMARK    8  A    between atoms: C_8  and  C_9
REMARK    9  A    between atoms: C_9  and  C_10
REMARK   10  A    between atoms: C_10  and  C_11
REMARK   11  A    between atoms: C_11  and  C_12
REMARK   12  A    between atoms: C_12  and  C_13
REMARK   13  A    between atoms: C_15  and  C_16
REMARK   14  A    between atoms: C_20  and  O_21
REMARK                            x       y       z     vdW  Elec       q    Type
REMARK                         _______ _______ _______ _____ _____    ______ ____
ROOT
ATOM      1  C   UNL     1       3.487   6.991  17.630  0.00  0.00    +0.000 C 
ATOM      2  C   UNL     1       5.123   7.223  17.901  0.00  0.00    +0.000 C 
ATOM      3  C   UNL     1       5.868   5.784  17.825  0.00  0.00    +0.000 C 
ATOM      4  C   UNL     1       5.616   5.321  19.290  0.00  0.00    +0.000 C 
ATOM      5  C   UNL     1       5.238   5.363  16.435  0.00  0.00    +0.000 C 
ATOM      6  C   UNL     1       6.299   4.952  15.437  0.00  0.00    +0.000 C 
ATOM      7  C   UNL     1       7.383   4.422  16.302  0.00  0.00    +0.000 C 
ATOM      8  C   UNL     1       7.372   5.315  17.560  0.00  0.00    +0.000 C 
ATOM      9  C   UNL     1       3.858   4.729  16.505  0.00  0.00    +0.000 C 
ATOM     10  C   UNL     1       3.818   3.207  16.502  0.00  0.00    +0.000 C 
ATOM     11  C   UNL     1       4.011   2.628  17.885  0.00  0.00    +0.000 C 
ATOM     12  C   UNL     1       3.121   3.288  18.919  0.00  0.00    +0.000 C 
ATOM     13  C   UNL     1       2.980   2.633  20.085  0.00  0.00    +0.000 C 
ATOM     14  C   UNL     1       2.262   3.250  21.217  0.00  0.00    +0.000 C 
ATOM     15  O   UNL     1       2.424   2.828  22.358  0.00  0.00    +0.000 OA
ATOM     16  C   UNL     1       1.293   4.335  20.874  0.00  0.00    +0.000 C 
ATOM     17  C   UNL     1       1.960   5.313  19.922  0.00  0.00    +0.000 C 
ATOM     18  C   UNL     1       2.681   4.696  18.731  0.00  0.00    +0.000 C 
ATOM     19  C   UNL     1       3.179   5.423  17.688  0.00  0.00    +0.000 C 
ENDROOT
BRANCH   8  20
ATOM     20  O   UNL     1       7.925   4.456  18.585  0.00  0.00    +0.000 OA
ATOM     21  H   UNL     1       7.228   4.104  19.162  0.00  0.00    +0.000 HD
ENDBRANCH   8  20
BRANCH   1  22
ATOM     22  C   UNL     1       2.469   7.876  18.377  0.00  0.00    +0.000 C 
BRANCH  22  23
ATOM     23  C   UNL     1       1.604   8.885  17.608  0.00  0.00    +0.000 C 
BRANCH  23  24
ATOM     24  C   UNL     1       1.340  10.102  18.531  0.00  0.00    +0.000 C 
BRANCH  24  25
ATOM     25  C   UNL     1      -0.045  10.202  19.184  0.00  0.00    +0.000 C 
BRANCH  25  26
ATOM     26  C   UNL     1      -1.214   9.940  18.250  0.00  0.00    +0.000 C 
BRANCH  26  27
ATOM     27  C   UNL     1      -2.168  11.147  18.199  0.00  0.00    +0.000 C 
BRANCH  27  28
ATOM     28  C   UNL     1      -2.732  11.399  16.795  0.00  0.00    +0.000 C 
BRANCH  28  29
ATOM     29  C   UNL     1      -4.170  10.880  16.673  0.00  0.00    +0.000 C 
BRANCH  29  30
ATOM     30  C   UNL     1      -5.184  11.855  17.280  0.00  0.00    +0.000 C 
BRANCH  30  31
ATOM     31  C   UNL     1      -6.235  11.121  18.121  0.00  0.00    +0.000 C 
BRANCH  31  33
ATOM     32  C   UNL     1      -5.155  12.645  19.821  0.00  0.00    +0.000 C 
ATOM     33  C   UNL     1      -6.261  11.634  19.562  0.00  0.00    +0.000 C 
ENDBRANCH  31  33
ENDBRANCH  30  31
ENDBRANCH  29  30
ENDBRANCH  28  29
ENDBRANCH  27  28
ENDBRANCH  26  27
ENDBRANCH  25  26
ENDBRANCH  24  25
ENDBRANCH  23  24
ENDBRANCH  22  23
ENDBRANCH   1  22
TORSDOF 12
ENDMDL
MODEL 7
REMARK VINA RESULT:      -7.7      1.474      2.119
REMARK  Name = 
REMARK  14 active torsions:
REMARK  status: ('A' for Active; 'I' for Inactive)
REMARK    1  A    between atoms: C_1  and  C_2
REMARK    2  A    between atoms: C_2  and  C_3
REMARK    3  A    between atoms: C_3  and  C_4
REMARK    4  A    between atoms: C_4  and  C_5
REMARK    5  A    between atoms: C_5  and  C_6
REMARK    6  A    between atoms: C_6  and  C_7
REMARK    7  A    between atoms: C_7  and  C_8
REMARK    8  A    between atoms: C_8  and  C_9
REMARK    9  A    between atoms: C_9  and  C_10
REMARK   10  A    between atoms: C_10  and  C_11
REMARK   11  A    between atoms: C_11  and  C_12
REMARK   12  A    between atoms: C_12  and  C_13
REMARK   13  A    between atoms: C_15  and  C_16
REMARK   14  A    between atoms: C_20  and  O_21
REMARK                            x       y       z     vdW  Elec       q    Type
REMARK                         _______ _______ _______ _____ _____    ______ ____
ROOT
ATOM      1  C   UNL     1       3.494   7.003  17.674  0.00  0.00    +0.000 C 
ATOM      2  C   UNL     1       5.150   7.169  17.865  0.00  0.00    +0.000 C 
ATOM      3  C   UNL     1       5.836   5.706  17.721  0.00  0.00    +0.000 C 
ATOM      4  C   UNL     1       5.640   5.219  19.186  0.00  0.00    +0.000 C 
ATOM      5  C   UNL     1       5.121   5.341  16.357  0.00  0.00    +0.000 C 
ATOM      6  C   UNL     1       6.115   4.915  15.297  0.00  0.00    +0.000 C 
ATOM      7  C   UNL     1       7.220   4.326  16.094  0.00  0.00    +0.000 C 
ATOM      8  C   UNL     1       7.306   5.189  17.370  0.00  0.00    +0.000 C 
ATOM      9  C   UNL     1       3.724   4.755  16.484  0.00  0.00    +0.000 C 
ATOM     10  C   UNL     1       3.627   3.235  16.451  0.00  0.00    +0.000 C 
ATOM     11  C   UNL     1       3.868   2.618  17.809  0.00  0.00    +0.000 C 
ATOM     12  C   UNL     1       3.056   3.286  18.901  0.00  0.00    +0.000 C 
ATOM     13  C   UNL     1       2.951   2.611  20.059  0.00  0.00    +0.000 C 
ATOM     14  C   UNL     1       2.314   3.227  21.239  0.00  0.00    +0.000 C 
ATOM     15  O   UNL     1       2.518   2.773  22.361  0.00  0.00    +0.000 OA
ATOM     16  C   UNL     1       1.370   4.353  20.968  0.00  0.00    +0.000 C 
ATOM     17  C   UNL     1       2.023   5.328  20.005  0.00  0.00    +0.000 C 
ATOM     18  C   UNL     1       2.660   4.713  18.766  0.00  0.00    +0.000 C 
ATOM     19  C   UNL     1       3.132   5.445  17.714  0.00  0.00    +0.000 C 
ENDROOT
BRANCH   8  20
ATOM     20  O   UNL     1       7.877   4.289  18.346  0.00  0.00    +0.000 OA
ATOM     21  H   UNL     1       8.551   3.717  17.945  0.00  0.00    +0.000 HD
ENDBRANCH   8  20
BRANCH   1  22
ATOM     22  C   UNL     1       2.549   7.906  18.490  0.00  0.00    +0.000 C 
BRANCH  22  23
ATOM     23  C   UNL     1       1.503   8.779  17.782  0.00  0.00    +0.000 C 
BRANCH  23  24
ATOM     24  C   UNL     1       1.490  10.171  18.463  0.00  0.00    +0.000 C 
BRANCH  24  25
ATOM     25  C   UNL     1       0.189  10.604  19.153  0.00  0.00    +0.000 C 
BRANCH  25  26
ATOM     26  C   UNL     1      -0.277   9.690  20.272  0.00  0.00    +0.000 C 
BRANCH  26  27
ATOM     27  C   UNL     1       0.422  10.033  21.600  0.00  0.00    +0.000 C 
BRANCH  27  28
ATOM     28  C   UNL     1      -0.565  10.401  22.714  0.00  0.00    +0.000 C 
BRANCH  28  29
ATOM     29  C   UNL     1      -0.882  11.900  22.703  0.00  0.00    +0.000 C 
BRANCH  29  30
ATOM     30  C   UNL     1      -2.372  12.169  22.465  0.00  0.00    +0.000 C 
BRANCH  30  31
ATOM     31  C   UNL     1      -2.640  12.607  21.020  0.00  0.00    +0.000 C 
BRANCH  31  33
ATOM     32  C   UNL     1      -4.526  12.279  19.373  0.00  0.00    +0.000 C 
ATOM     33  C   UNL     1      -4.136  12.786  20.753  0.00  0.00    +0.000 C 
ENDBRANCH  31  33
ENDBRANCH  30  31
ENDBRANCH  29  30
ENDBRANCH  28  29
ENDBRANCH  27  28
ENDBRANCH  26  27
ENDBRANCH  25  26
ENDBRANCH  24  25
ENDBRANCH  23  24
ENDBRANCH  22  23
ENDBRANCH   1  22
TORSDOF 12
ENDMDL
MODEL 8
REMARK VINA RESULT:      -7.7      1.630      2.971
REMARK  Name = 
REMARK  14 active torsions:
REMARK  status: ('A' for Active; 'I' for Inactive)
REMARK    1  A    between atoms: C_1  and  C_2
REMARK    2  A    between atoms: C_2  and  C_3
REMARK    3  A    between atoms: C_3  and  C_4
REMARK    4  A    between atoms: C_4  and  C_5
REMARK    5  A    between atoms: C_5  and  C_6
REMARK    6  A    between atoms: C_6  and  C_7
REMARK    7  A    between atoms: C_7  and  C_8
REMARK    8  A    between atoms: C_8  and  C_9
REMARK    9  A    between atoms: C_9  and  C_10
REMARK   10  A    between atoms: C_10  and  C_11
REMARK   11  A    between atoms: C_11  and  C_12
REMARK   12  A    between atoms: C_12  and  C_13
REMARK   13  A    between atoms: C_15  and  C_16
REMARK   14  A    between atoms: C_20  and  O_21
REMARK                            x       y       z     vdW  Elec       q    Type
REMARK                         _______ _______ _______ _____ _____    ______ ____
ROOT
ATOM      1  C   UNL     1       3.431   6.912  17.708  0.00  0.00    +0.000 C 
ATOM      2  C   UNL     1       5.083   7.108  17.900  0.00  0.00    +0.000 C 
ATOM      3  C   UNL     1       5.798   5.662  17.734  0.00  0.00    +0.000 C 
ATOM      4  C   UNL     1       5.614   5.150  19.192  0.00  0.00    +0.000 C 
ATOM      5  C   UNL     1       5.088   5.301  16.365  0.00  0.00    +0.000 C 
ATOM      6  C   UNL     1       6.089   4.910  15.299  0.00  0.00    +0.000 C 
ATOM      7  C   UNL     1       7.207   4.332  16.086  0.00  0.00    +0.000 C 
ATOM      8  C   UNL     1       7.277   5.179  17.373  0.00  0.00    +0.000 C 
ATOM      9  C   UNL     1       3.704   4.686  16.486  0.00  0.00    +0.000 C 
ATOM     10  C   UNL     1       3.637   3.166  16.432  0.00  0.00    +0.000 C 
ATOM     11  C   UNL     1       3.892   2.534  17.781  0.00  0.00    +0.000 C 
ATOM     12  C   UNL     1       3.069   3.170  18.883  0.00  0.00    +0.000 C 
ATOM     13  C   UNL     1       2.979   2.477  20.032  0.00  0.00    +0.000 C 
ATOM     14  C   UNL     1       2.331   3.063  21.221  0.00  0.00    +0.000 C 
ATOM     15  O   UNL     1       2.546   2.598  22.336  0.00  0.00    +0.000 OA
ATOM     16  C   UNL     1       1.365   4.175  20.967  0.00  0.00    +0.000 C 
ATOM     17  C   UNL     1       1.997   5.176  20.017  0.00  0.00    +0.000 C 
ATOM     18  C   UNL     1       2.644   4.591  18.768  0.00  0.00    +0.000 C 
ATOM     19  C   UNL     1       3.099   5.347  17.726  0.00  0.00    +0.000 C 
ENDROOT
BRANCH   8  20
ATOM     20  O   UNL     1       7.868   4.276  18.336  0.00  0.00    +0.000 OA
ATOM     21  H   UNL     1       8.153   3.450  17.914  0.00  0.00    +0.000 HD
ENDBRANCH   8  20
BRANCH   1  22
ATOM     22  C   UNL     1       2.469   7.784  18.538  0.00  0.00    +0.000 C 
BRANCH  22  23
ATOM     23  C   UNL     1       1.789   9.009  17.908  0.00  0.00    +0.000 C 
BRANCH  23  24
ATOM     24  C   UNL     1       0.752   9.563  18.917  0.00  0.00    +0.000 C 
BRANCH  24  25
ATOM     25  C   UNL     1      -0.115  10.743  18.459  0.00  0.00    +0.000 C 
BRANCH  25  26
ATOM     26  C   UNL     1      -1.358  10.987  19.296  0.00  0.00    +0.000 C 
BRANCH  26  27
ATOM     27  C   UNL     1      -1.062  11.936  20.472  0.00  0.00    +0.000 C 
BRANCH  27  28
ATOM     28  C   UNL     1      -0.536  11.203  21.711  0.00  0.00    +0.000 C 
BRANCH  28  29
ATOM     29  C   UNL     1      -1.251  11.676  22.982  0.00  0.00    +0.000 C 
BRANCH  29  30
ATOM     30  C   UNL     1      -1.250  13.204  23.104  0.00  0.00    +0.000 C 
BRANCH  30  31
ATOM     31  C   UNL     1      -2.608  13.729  23.583  0.00  0.00    +0.000 C 
BRANCH  31  33
ATOM     32  C   UNL     1      -4.424  12.393  24.722  0.00  0.00    +0.000 C 
ATOM     33  C   UNL     1      -3.711  12.682  23.410  0.00  0.00    +0.000 C 
ENDBRANCH  31  33
ENDBRANCH  30  31
ENDBRANCH  29  30
ENDBRANCH  28  29
ENDBRANCH  27  28
ENDBRANCH  26  27
ENDBRANCH  25  26
ENDBRANCH  24  25
ENDBRANCH  23  24
ENDBRANCH  22  23
ENDBRANCH   1  22
TORSDOF 12
ENDMDL
MODEL 9
REMARK VINA RESULT:      -7.6      2.174      4.880
REMARK  Name = 
REMARK  14 active torsions:
REMARK  status: ('A' for Active; 'I' for Inactive)
REMARK    1  A    between atoms: C_1  and  C_2
REMARK    2  A    between atoms: C_2  and  C_3
REMARK    3  A    between atoms: C_3  and  C_4
REMARK    4  A    between atoms: C_4  and  C_5
REMARK    5  A    between atoms: C_5  and  C_6
REMARK    6  A    between atoms: C_6  and  C_7
REMARK    7  A    between atoms: C_7  and  C_8
REMARK    8  A    between atoms: C_8  and  C_9
REMARK    9  A    between atoms: C_9  and  C_10
REMARK   10  A    between atoms: C_10  and  C_11
REMARK   11  A    between atoms: C_11  and  C_12
REMARK   12  A    between atoms: C_12  and  C_13
REMARK   13  A    between atoms: C_15  and  C_16
REMARK   14  A    between atoms: C_20  and  O_21
REMARK                            x       y       z     vdW  Elec       q    Type
REMARK                         _______ _______ _______ _____ _____    ______ ____
ROOT
ATOM      1  C   UNL     1       2.767   6.849  18.966  0.00  0.00    +0.000 C 
ATOM      2  C   UNL     1       1.318   6.009  18.947  0.00  0.00    +0.000 C 
ATOM      3  C   UNL     1       1.642   4.420  18.989  0.00  0.00    +0.000 C 
ATOM      4  C   UNL     1       1.876   4.197  17.467  0.00  0.00    +0.000 C 
ATOM      5  C   UNL     1       2.619   4.500  20.232  0.00  0.00    +0.000 C 
ATOM      6  C   UNL     1       2.221   3.530  21.324  0.00  0.00    +0.000 C 
ATOM      7  C   UNL     1       1.567   2.430  20.571  0.00  0.00    +0.000 C 
ATOM      8  C   UNL     1       0.816   3.120  19.414  0.00  0.00    +0.000 C 
ATOM      9  C   UNL     1       4.060   4.861  19.912  0.00  0.00    +0.000 C 
ATOM     10  C   UNL     1       5.028   3.694  19.765  0.00  0.00    +0.000 C 
ATOM     11  C   UNL     1       5.004   3.104  18.374  0.00  0.00    +0.000 C 
ATOM     12  C   UNL     1       5.111   4.162  17.293  0.00  0.00    +0.000 C 
ATOM     13  C   UNL     1       5.426   3.723  16.062  0.00  0.00    +0.000 C 
ATOM     14  C   UNL     1       5.411   4.638  14.905  0.00  0.00    +0.000 C 
ATOM     15  O   UNL     1       5.354   4.193  13.763  0.00  0.00    +0.000 OA
ATOM     16  C   UNL     1       5.547   6.095  15.212  0.00  0.00    +0.000 C 
ATOM     17  C   UNL     1       4.592   6.457  16.336  0.00  0.00    +0.000 C 
ATOM     18  C   UNL     1       4.615   5.540  17.551  0.00  0.00    +0.000 C 
ATOM     19  C   UNL     1       3.959   5.812  18.718  0.00  0.00    +0.000 C 
ENDROOT
BRANCH   8  20
ATOM     20  O   UNL     1       0.747   2.092  18.400  0.00  0.00    +0.000 OA
ATOM     21  H   UNL     1      -0.141   2.041  18.011  0.00  0.00    +0.000 HD
ENDBRANCH   8  20
BRANCH   1  22
ATOM     22  C   UNL     1       2.882   8.165  18.172  0.00  0.00    +0.000 C 
BRANCH  22  23
ATOM     23  C   UNL     1       1.632   8.818  17.563  0.00  0.00    +0.000 C 
BRANCH  23  24
ATOM     24  C   UNL     1       1.353  10.139  18.325  0.00  0.00    +0.000 C 
BRANCH  24  25
ATOM     25  C   UNL     1      -0.113  10.494  18.603  0.00  0.00    +0.000 C 
BRANCH  25  26
ATOM     26  C   UNL     1      -0.328  11.824  19.305  0.00  0.00    +0.000 C 
BRANCH  26  27
ATOM     27  C   UNL     1      -1.612  11.807  20.153  0.00  0.00    +0.000 C 
BRANCH  27  28
ATOM     28  C   UNL     1      -1.473  12.598  21.459  0.00  0.00    +0.000 C 
BRANCH  28  29
ATOM     29  C   UNL     1      -1.517  11.669  22.678  0.00  0.00    +0.000 C 
BRANCH  29  30
ATOM     30  C   UNL     1      -0.322  10.710  22.711  0.00  0.00    +0.000 C 
BRANCH  30  31
ATOM     31  C   UNL     1      -0.777   9.246  22.697  0.00  0.00    +0.000 C 
BRANCH  31  33
ATOM     32  C   UNL     1       1.480   8.732  21.687  0.00  0.00    +0.000 C 
ATOM     33  C   UNL     1      -0.010   8.427  21.657  0.00  0.00    +0.000 C 
ENDBRANCH  31  33
ENDBRANCH  30  31
ENDBRANCH  29  30
ENDBRANCH  28  29
ENDBRANCH  27  28
ENDBRANCH  26  27
ENDBRANCH  25  26
ENDBRANCH  24  25
ENDBRANCH  23  24
ENDBRANCH  22  23
ENDBRANCH   1  22
TORSDOF 12
ENDMDL
