MODEL 1
REMARK VINA RESULT:      -7.0      0.000      0.000
REMARK  Name = 
REMARK  8 active torsions:
REMARK  status: ('A' for Active; 'I' for Inactive)
REMARK    1  A    between atoms: C_1  and  O_2
REMARK    2  A    between atoms: O_2  and  C_3
REMARK    3  A    between atoms: C_4  and  N_5
REMARK    4  A    between atoms: C_8  and  C_9
REMARK    5  A    between atoms: C_9  and  C_10
REMARK    6  A    between atoms: C_9  and  N_11
REMARK    7  A    between atoms: N_19  and  N_20
REMARK    8  A    between atoms: N_23  and  C_24
REMARK                            x       y       z     vdW  Elec       q    Type
REMARK                         _______ _______ _______ _____ _____    ______ ____
ROOT
ATOM      1  C   UNL     1       1.762   7.547  19.719  0.00  0.00    +0.000 A 
ATOM      2  C   UNL     1       1.515   8.862  19.153  0.00  0.00    +0.000 A 
ATOM      3  C   UNL     1       2.275   9.189  18.017  0.00  0.00    +0.000 A 
ATOM      4  F   UNL     1       2.126  10.357  17.373  0.00  0.00    +0.000 F 
ATOM      5  C   UNL     1       3.177   8.305  17.451  0.00  0.00    +0.000 A 
ATOM      6  C   UNL     1       3.398   7.052  18.018  0.00  0.00    +0.000 A 
ATOM      7  C   UNL     1       4.381   6.193  17.331  0.00  0.00    +0.000 A 
ATOM      8  O   UNL     1       5.069   6.653  16.423  0.00  0.00    +0.000 OA
ATOM      9  N   UNL     1       4.480   4.902  17.798  0.00  0.00    +0.000 N 
ATOM     10  C   UNL     1       3.991   4.462  19.025  0.00  0.00    +0.000 A 
ATOM     11  O   UNL     1       4.450   3.418  19.507  0.00  0.00    +0.000 OA
ATOM     12  N   UNL     1       3.006   5.264  19.654  0.00  0.00    +0.000 N 
ATOM     13  C   UNL     1       2.708   6.607  19.160  0.00  0.00    +0.000 A 
ENDROOT
BRANCH   2  14
ATOM     14  N   UNL     1       0.593   9.778  19.684  0.00  0.00    +0.000 N 
ATOM     15  C   UNL     1      -0.714   9.993  19.067  0.00  0.00    +0.000 C 
ATOM     16  C   UNL     1      -1.019  11.469  19.302  0.00  0.00    +0.000 C 
ATOM     17  C   UNL     1      -0.290  11.826  20.595  0.00  0.00    +0.000 C 
ATOM     18  C   UNL     1       0.971  10.945  20.501  0.00  0.00    +0.000 C 
BRANCH  17  19
ATOM     19  C   UNL     1      -1.087  11.683  21.913  0.00  0.00    +0.000 C 
ATOM     20  C   UNL     1      -1.636  12.973  22.514  0.00  0.00    +0.000 C 
BRANCH  19  21
ATOM     21  N   UNL     1      -0.293  10.998  22.942  0.00  0.00    +0.000 NA
ATOM     22  H   UNL     1      -0.853  10.855  23.786  0.00  0.00    +0.000 HD
ATOM     23  H   UNL     1       0.500  11.570  23.219  0.00  0.00    +0.000 HD
ENDBRANCH  19  21
ENDBRANCH  17  19
ENDBRANCH   2  14
BRANCH   9  24
ATOM     24  N   UNL     1       5.418   4.038  17.123  0.00  0.00    +0.000 N 
ATOM     25  H   UNL     1       6.100   4.643  16.659  0.00  0.00    +0.000 HD
ATOM     26  H   UNL     1       5.919   3.531  17.859  0.00  0.00    +0.000 HD
ENDBRANCH   9  24
BRANCH  12  27
ATOM     27  C   UNL     1       2.343   4.721  20.847  0.00  0.00    +0.000 C 
ATOM     28  C   UNL     1       1.144   3.803  20.938  0.00  0.00    +0.000 C 
ATOM     29  C   UNL     1       2.499   3.240  21.181  0.00  0.00    +0.000 C 
ENDBRANCH  12  27
BRANCH   1  31
ATOM     30  C   UNL     1       1.077   7.958  21.935  0.00  0.00    +0.000 C 
ATOM     31  O   UNL     1       0.936   7.166  20.758  0.00  0.00    +0.000 OA
ENDBRANCH   1  31
TORSDOF 6
ENDMDL
MODEL 2
REMARK VINA RESULT:      -6.9      8.959     11.141
REMARK  Name = 
REMARK  8 active torsions:
REMARK  status: ('A' for Active; 'I' for Inactive)
REMARK    1  A    between atoms: C_1  and  O_2
REMARK    2  A    between atoms: O_2  and  C_3
REMARK    3  A    between atoms: C_4  and  N_5
REMARK    4  A    between atoms: C_8  and  C_9
REMARK    5  A    between atoms: C_9  and  C_10
REMARK    6  A    between atoms: C_9  and  N_11
REMARK    7  A    between atoms: N_19  and  N_20
REMARK    8  A    between atoms: N_23  and  C_24
REMARK                            x       y       z     vdW  Elec       q    Type
REMARK                         _______ _______ _______ _____ _____    ______ ____
ROOT
ATOM      1  C   UNL     1       8.412  14.158  20.530  0.00  0.00    +0.000 A 
ATOM      2  C   UNL     1       9.657  13.574  20.063  0.00  0.00    +0.000 A 
ATOM      3  C   UNL     1      10.123  12.467  20.793  0.00  0.00    +0.000 A 
ATOM      4  F   UNL     1      11.242  11.810  20.454  0.00  0.00    +0.000 F 
ATOM      5  C   UNL     1       9.426  11.945  21.869  0.00  0.00    +0.000 A 
ATOM      6  C   UNL     1       8.236  12.529  22.299  0.00  0.00    +0.000 A 
ATOM      7  C   UNL     1       7.579  11.887  23.453  0.00  0.00    +0.000 A 
ATOM      8  O   UNL     1       8.162  11.005  24.079  0.00  0.00    +0.000 OA
ATOM      9  N   UNL     1       6.329  12.367  23.775  0.00  0.00    +0.000 N 
ATOM     10  C   UNL     1       5.804  13.576  23.328  0.00  0.00    +0.000 A 
ATOM     11  O   UNL     1       4.864  14.083  23.955  0.00  0.00    +0.000 OA
ATOM     12  N   UNL     1       6.405  14.159  22.184  0.00  0.00    +0.000 N 
ATOM     13  C   UNL     1       7.668  13.644  21.659  0.00  0.00    +0.000 A 
ENDROOT
BRANCH   2  14
ATOM     14  N   UNL     1      10.382  14.061  18.964  0.00  0.00    +0.000 N 
ATOM     15  C   UNL     1      10.378  13.369  17.677  0.00  0.00    +0.000 C 
ATOM     16  C   UNL     1      11.771  13.606  17.101  0.00  0.00    +0.000 C 
ATOM     17  C   UNL     1      12.218  14.945  17.679  0.00  0.00    +0.000 C 
ATOM     18  C   UNL     1      11.576  14.916  19.081  0.00  0.00    +0.000 C 
BRANCH  17  19
ATOM     19  C   UNL     1      11.904  16.210  16.846  0.00  0.00    +0.000 C 
ATOM     20  C   UNL     1      11.721  17.507  17.627  0.00  0.00    +0.000 C 
BRANCH  19  21
ATOM     21  N   UNL     1      10.715  16.010  16.005  0.00  0.00    +0.000 NA
ATOM     22  H   UNL     1      10.946  15.431  15.195  0.00  0.00    +0.000 HD
ATOM     23  H   UNL     1      10.386  16.899  15.637  0.00  0.00    +0.000 HD
ENDBRANCH  19  21
ENDBRANCH  17  19
ENDBRANCH   2  14
BRANCH   9  24
ATOM     24  N   UNL     1       5.658  11.736  24.886  0.00  0.00    +0.000 N 
ATOM     25  H   UNL     1       5.453  12.471  25.567  0.00  0.00    +0.000 HD
ATOM     26  H   UNL     1       4.760  11.403  24.523  0.00  0.00    +0.000 HD
ENDBRANCH   9  24
BRANCH  12  27
ATOM     27  C   UNL     1       5.745  15.327  21.586  0.00  0.00    +0.000 C 
ATOM     28  C   UNL     1       4.715  16.256  22.191  0.00  0.00    +0.000 C 
ATOM     29  C   UNL     1       6.120  16.726  22.068  0.00  0.00    +0.000 C 
ENDBRANCH  12  27
BRANCH   1  31
ATOM     30  C   UNL     1       7.131  14.698  18.629  0.00  0.00    +0.000 C 
ATOM     31  O   UNL     1       7.880  15.165  19.748  0.00  0.00    +0.000 OA
ENDBRANCH   1  31
TORSDOF 6
ENDMDL
MODEL 3
REMARK VINA RESULT:      -6.9      9.096     10.538
REMARK  Name = 
REMARK  8 active torsions:
REMARK  status: ('A' for Active; 'I' for Inactive)
REMARK    1  A    between atoms: C_1  and  O_2
REMARK    2  A    between atoms: O_2  and  C_3
REMARK    3  A    between atoms: C_4  and  N_5
REMARK    4  A    between atoms: C_8  and  C_9
REMARK    5  A    between atoms: C_9  and  C_10
REMARK    6  A    between atoms: C_9  and  N_11
REMARK    7  A    between atoms: N_19  and  N_20
REMARK    8  A    between atoms: N_23  and  C_24
REMARK                            x       y       z     vdW  Elec       q    Type
REMARK                         _______ _______ _______ _____ _____    ______ ____
ROOT
ATOM      1  C   UNL     1       9.152  13.952  20.678  0.00  0.00    +0.000 A 
ATOM      2  C   UNL     1       8.817  12.768  21.451  0.00  0.00    +0.000 A 
ATOM      3  C   UNL     1       9.265  11.547  20.918  0.00  0.00    +0.000 A 
ATOM      4  F   UNL     1       9.054  10.378  21.543  0.00  0.00    +0.000 F 
ATOM      5  C   UNL     1      10.005  11.475  19.751  0.00  0.00    +0.000 A 
ATOM      6  C   UNL     1      10.307  12.627  19.028  0.00  0.00    +0.000 A 
ATOM      7  C   UNL     1      11.102  12.432  17.800  0.00  0.00    +0.000 A 
ATOM      8  O   UNL     1      11.315  11.296  17.381  0.00  0.00    +0.000 OA
ATOM      9  N   UNL     1      11.532  13.581  17.175  0.00  0.00    +0.000 N 
ATOM     10  C   UNL     1      11.020  14.853  17.412  0.00  0.00    +0.000 A 
ATOM     11  O   UNL     1      11.195  15.732  16.557  0.00  0.00    +0.000 OA
ATOM     12  N   UNL     1      10.304  15.047  18.620  0.00  0.00    +0.000 N 
ATOM     13  C   UNL     1       9.912  13.909  19.448  0.00  0.00    +0.000 A 
ENDROOT
BRANCH   2  14
ATOM     14  N   UNL     1       8.088  12.800  22.649  0.00  0.00    +0.000 N 
ATOM     15  C   UNL     1       8.593  12.175  23.869  0.00  0.00    +0.000 C 
ATOM     16  C   UNL     1       7.348  11.668  24.593  0.00  0.00    +0.000 C 
ATOM     17  C   UNL     1       6.229  12.615  24.170  0.00  0.00    +0.000 C 
ATOM     18  C   UNL     1       6.623  12.943  22.716  0.00  0.00    +0.000 C 
BRANCH  17  19
ATOM     19  C   UNL     1       5.975  13.847  25.070  0.00  0.00    +0.000 C 
ATOM     20  C   UNL     1       5.821  13.575  26.562  0.00  0.00    +0.000 C 
BRANCH  19  21
ATOM     21  N   UNL     1       4.796  14.601  24.618  0.00  0.00    +0.000 NA
ATOM     22  H   UNL     1       4.889  14.846  23.629  0.00  0.00    +0.000 HD
ATOM     23  H   UNL     1       4.720  15.478  25.124  0.00  0.00    +0.000 HD
ENDBRANCH  19  21
ENDBRANCH  17  19
ENDBRANCH   2  14
BRANCH   9  24
ATOM     24  N   UNL     1      12.333  13.411  15.987  0.00  0.00    +0.000 N 
ATOM     25  H   UNL     1      13.274  13.150  16.295  0.00  0.00    +0.000 HD
ATOM     26  H   UNL     1      11.944  12.601  15.495  0.00  0.00    +0.000 HD
ENDBRANCH   9  24
BRANCH  12  27
ATOM     27  C   UNL     1       9.925  16.421  18.976  0.00  0.00    +0.000 C 
ATOM     28  C   UNL     1       9.861  17.652  18.098  0.00  0.00    +0.000 C 
ATOM     29  C   UNL     1       8.592  16.980  18.485  0.00  0.00    +0.000 C 
ENDBRANCH  12  27
BRANCH   1  31
ATOM     30  C   UNL     1       9.735  15.589  22.267  0.00  0.00    +0.000 C 
ATOM     31  O   UNL     1       8.828  15.165  21.252  0.00  0.00    +0.000 OA
ENDBRANCH   1  31
TORSDOF 6
ENDMDL
MODEL 4
REMARK VINA RESULT:      -6.6      9.114     10.552
REMARK  Name = 
REMARK  8 active torsions:
REMARK  status: ('A' for Active; 'I' for Inactive)
REMARK    1  A    between atoms: C_1  and  O_2
REMARK    2  A    between atoms: O_2  and  C_3
REMARK    3  A    between atoms: C_4  and  N_5
REMARK    4  A    between atoms: C_8  and  C_9
REMARK    5  A    between atoms: C_9  and  C_10
REMARK    6  A    between atoms: C_9  and  N_11
REMARK    7  A    between atoms: N_19  and  N_20
REMARK    8  A    between atoms: N_23  and  C_24
REMARK                            x       y       z     vdW  Elec       q    Type
REMARK                         _______ _______ _______ _____ _____    ______ ____
ROOT
ATOM      1  C   UNL     1       8.972  13.933  20.773  0.00  0.00    +0.000 A 
ATOM      2  C   UNL     1       8.701  12.748  21.569  0.00  0.00    +0.000 A 
ATOM      3  C   UNL     1       9.199  11.540  21.051  0.00  0.00    +0.000 A 
ATOM      4  F   UNL     1       9.049  10.374  21.698  0.00  0.00    +0.000 F 
ATOM      5  C   UNL     1       9.929  11.483  19.877  0.00  0.00    +0.000 A 
ATOM      6  C   UNL     1      10.169  12.635  19.132  0.00  0.00    +0.000 A 
ATOM      7  C   UNL     1      10.959  12.457  17.899  0.00  0.00    +0.000 A 
ATOM      8  O   UNL     1      11.220  11.325  17.495  0.00  0.00    +0.000 OA
ATOM      9  N   UNL     1      11.328  13.614  17.250  0.00  0.00    +0.000 N 
ATOM     10  C   UNL     1      10.760  14.864  17.471  0.00  0.00    +0.000 A 
ATOM     11  O   UNL     1      10.884  15.736  16.601  0.00  0.00    +0.000 OA
ATOM     12  N   UNL     1      10.048  15.046  18.684  0.00  0.00    +0.000 N 
ATOM     13  C   UNL     1       9.719  13.905  19.536  0.00  0.00    +0.000 A 
ENDROOT
BRANCH   2  14
ATOM     14  N   UNL     1       7.984  12.767  22.775  0.00  0.00    +0.000 N 
ATOM     15  C   UNL     1       6.571  13.137  22.821  0.00  0.00    +0.000 C 
ATOM     16  C   UNL     1       6.395  13.841  24.163  0.00  0.00    +0.000 C 
ATOM     17  C   UNL     1       7.446  13.222  25.079  0.00  0.00    +0.000 C 
ATOM     18  C   UNL     1       8.605  12.957  24.098  0.00  0.00    +0.000 C 
BRANCH  17  19
ATOM     19  C   UNL     1       7.011  11.999  25.920  0.00  0.00    +0.000 C 
ATOM     20  C   UNL     1       5.510  11.769  26.055  0.00  0.00    +0.000 C 
BRANCH  19  21
ATOM     21  N   UNL     1       7.592  12.048  27.269  0.00  0.00    +0.000 NA
ATOM     22  H   UNL     1       6.894  11.780  27.967  0.00  0.00    +0.000 HD
ATOM     23  H   UNL     1       7.875  12.997  27.500  0.00  0.00    +0.000 HD
ENDBRANCH  19  21
ENDBRANCH  17  19
ENDBRANCH   2  14
BRANCH   9  24
ATOM     24  N   UNL     1      12.123  13.462  16.055  0.00  0.00    +0.000 N 
ATOM     25  H   UNL     1      12.380  14.403  15.745  0.00  0.00    +0.000 HD
ATOM     26  H   UNL     1      12.988  12.996  16.346  0.00  0.00    +0.000 HD
ENDBRANCH   9  24
BRANCH  12  27
ATOM     27  C   UNL     1       9.610  16.406  19.022  0.00  0.00    +0.000 C 
ATOM     28  C   UNL     1       9.476  17.617  18.125  0.00  0.00    +0.000 C 
ATOM     29  C   UNL     1       8.245  16.893  18.541  0.00  0.00    +0.000 C 
ENDBRANCH  12  27
BRANCH   1  31
ATOM     30  C   UNL     1       9.573  15.704  22.204  0.00  0.00    +0.000 C 
ATOM     31  O   UNL     1       8.597  15.139  21.331  0.00  0.00    +0.000 OA
ENDBRANCH   1  31
TORSDOF 6
ENDMDL
MODEL 5
REMARK VINA RESULT:      -6.5      2.012      3.752
REMARK  Name = 
REMARK  8 active torsions:
REMARK  status: ('A' for Active; 'I' for Inactive)
REMARK    1  A    between atoms: C_1  and  O_2
REMARK    2  A    between atoms: O_2  and  C_3
REMARK    3  A    between atoms: C_4  and  N_5
REMARK    4  A    between atoms: C_8  and  C_9
REMARK    5  A    between atoms: C_9  and  C_10
REMARK    6  A    between atoms: C_9  and  N_11
REMARK    7  A    between atoms: N_19  and  N_20
REMARK    8  A    between atoms: N_23  and  C_24
REMARK                            x       y       z     vdW  Elec       q    Type
REMARK                         _______ _______ _______ _____ _____    ______ ____
ROOT
ATOM      1  C   UNL     1       2.494   7.780  19.124  0.00  0.00    +0.000 A 
ATOM      2  C   UNL     1       1.368   8.186  19.946  0.00  0.00    +0.000 A 
ATOM      3  C   UNL     1       0.855   7.201  20.807  0.00  0.00    +0.000 A 
ATOM      4  F   UNL     1      -0.164   7.447  21.644  0.00  0.00    +0.000 F 
ATOM      5  C   UNL     1       1.406   5.934  20.893  0.00  0.00    +0.000 A 
ATOM      6  C   UNL     1       2.485   5.570  20.089  0.00  0.00    +0.000 A 
ATOM      7  C   UNL     1       2.991   4.197  20.266  0.00  0.00    +0.000 A 
ATOM      8  O   UNL     1       2.367   3.396  20.960  0.00  0.00    +0.000 OA
ATOM      9  N   UNL     1       4.150   3.893  19.589  0.00  0.00    +0.000 N 
ATOM     10  C   UNL     1       4.674   4.638  18.536  0.00  0.00    +0.000 A 
ATOM     11  O   UNL     1       5.479   4.096  17.767  0.00  0.00    +0.000 OA
ATOM     12  N   UNL     1       4.224   5.976  18.405  0.00  0.00    +0.000 N 
ATOM     13  C   UNL     1       3.084   6.461  19.181  0.00  0.00    +0.000 A 
ENDROOT
BRANCH   2  14
ATOM     14  N   UNL     1       0.794   9.466  19.904  0.00  0.00    +0.000 N 
ATOM     15  C   UNL     1       1.025  10.444  20.964  0.00  0.00    +0.000 C 
ATOM     16  C   UNL     1      -0.274  11.238  21.055  0.00  0.00    +0.000 C 
ATOM     17  C   UNL     1      -0.869  11.192  19.651  0.00  0.00    +0.000 C 
ATOM     18  C   UNL     1      -0.445   9.788  19.173  0.00  0.00    +0.000 C 
BRANCH  17  19
ATOM     19  C   UNL     1      -0.495  12.346  18.691  0.00  0.00    +0.000 C 
ATOM     20  C   UNL     1      -0.436  13.741  19.302  0.00  0.00    +0.000 C 
BRANCH  19  21
ATOM     21  N   UNL     1      -1.401  12.389  17.534  0.00  0.00    +0.000 NA
ATOM     22  H   UNL     1      -2.355  12.157  17.821  0.00  0.00    +0.000 HD
ATOM     23  H   UNL     1      -1.132  11.693  16.845  0.00  0.00    +0.000 HD
ENDBRANCH  19  21
ENDBRANCH  17  19
ENDBRANCH   2  14
BRANCH   9  24
ATOM     24  N   UNL     1       4.677   2.561  19.769  0.00  0.00    +0.000 N 
ATOM     25  H   UNL     1       4.651   2.363  20.773  0.00  0.00    +0.000 HD
ATOM     26  H   UNL     1       4.007   1.927  19.322  0.00  0.00    +0.000 HD
ENDBRANCH   9  24
BRANCH  12  27
ATOM     27  C   UNL     1       4.904   6.832  17.425  0.00  0.00    +0.000 C 
ATOM     28  C   UNL     1       6.128   6.538  16.586  0.00  0.00    +0.000 C 
ATOM     29  C   UNL     1       4.790   6.505  15.938  0.00  0.00    +0.000 C 
ENDBRANCH  12  27
BRANCH   1  31
ATOM     30  C   UNL     1       2.273   9.249  17.297  0.00  0.00    +0.000 C 
ATOM     31  O   UNL     1       3.085   8.773  18.367  0.00  0.00    +0.000 OA
ENDBRANCH   1  31
TORSDOF 6
ENDMDL
MODEL 6
REMARK VINA RESULT:      -6.5      8.771     11.119
REMARK  Name = 
REMARK  8 active torsions:
REMARK  status: ('A' for Active; 'I' for Inactive)
REMARK    1  A    between atoms: C_1  and  O_2
REMARK    2  A    between atoms: O_2  and  C_3
REMARK    3  A    between atoms: C_4  and  N_5
REMARK    4  A    between atoms: C_8  and  C_9
REMARK    5  A    between atoms: C_9  and  C_10
REMARK    6  A    between atoms: C_9  and  N_11
REMARK    7  A    between atoms: N_19  and  N_20
REMARK    8  A    between atoms: N_23  and  C_24
REMARK                            x       y       z     vdW  Elec       q    Type
REMARK                         _______ _______ _______ _____ _____    ______ ____
ROOT
ATOM      1  C   UNL     1       7.976  14.386  21.250  0.00  0.00    +0.000 A 
ATOM      2  C   UNL     1       9.006  13.606  20.587  0.00  0.00    +0.000 A 
ATOM      3  C   UNL     1       9.322  12.376  21.191  0.00  0.00    +0.000 A 
ATOM      4  F   UNL     1      10.231  11.539  20.669  0.00  0.00    +0.000 F 
ATOM      5  C   UNL     1       8.671  11.920  22.324  0.00  0.00    +0.000 A 
ATOM      6  C   UNL     1       7.690  12.692  22.942  0.00  0.00    +0.000 A 
ATOM      7  C   UNL     1       7.063  12.107  24.142  0.00  0.00    +0.000 A 
ATOM      8  O   UNL     1       7.526  11.081  24.637  0.00  0.00    +0.000 OA
ATOM      9  N   UNL     1       5.989  12.797  24.655  0.00  0.00    +0.000 N 
ATOM     10  C   UNL     1       5.671  14.116  24.346  0.00  0.00    +0.000 A 
ATOM     11  O   UNL     1       4.942  14.750  25.121  0.00  0.00    +0.000 OA
ATOM     12  N   UNL     1       6.233  14.656  23.161  0.00  0.00    +0.000 N 
ATOM     13  C   UNL     1       7.288  13.944  22.442  0.00  0.00    +0.000 A 
ENDROOT
BRANCH   2  14
ATOM     14  N   UNL     1       9.674  14.023  19.425  0.00  0.00    +0.000 N 
ATOM     15  C   UNL     1       9.349  13.466  18.114  0.00  0.00    +0.000 C 
ATOM     16  C   UNL     1      10.673  13.451  17.357  0.00  0.00    +0.000 C 
ATOM     17  C   UNL     1      11.479  14.607  17.941  0.00  0.00    +0.000 C 
ATOM     18  C   UNL     1      11.034  14.589  19.417  0.00  0.00    +0.000 C 
BRANCH  17  19
ATOM     19  C   UNL     1      11.352  15.979  17.239  0.00  0.00    +0.000 C 
ATOM     20  C   UNL     1      10.549  17.044  17.976  0.00  0.00    +0.000 C 
BRANCH  19  21
ATOM     21  N   UNL     1      10.789  15.833  15.888  0.00  0.00    +0.000 NA
ATOM     22  H   UNL     1      11.133  14.976  15.450  0.00  0.00    +0.000 HD
ATOM     23  H   UNL     1      11.091  16.600  15.293  0.00  0.00    +0.000 HD
ENDBRANCH  19  21
ENDBRANCH  17  19
ENDBRANCH   2  14
BRANCH   9  24
ATOM     24  N   UNL     1       5.346  12.227  25.815  0.00  0.00    +0.000 N 
ATOM     25  H   UNL     1       5.953  11.476  26.154  0.00  0.00    +0.000 HD
ATOM     26  H   UNL     1       5.348  12.960  26.531  0.00  0.00    +0.000 HD
ENDBRANCH   9  24
BRANCH  12  27
ATOM     27  C   UNL     1       5.759  15.974  22.719  0.00  0.00    +0.000 C 
ATOM     28  C   UNL     1       5.021  17.036  23.503  0.00  0.00    +0.000 C 
ATOM     29  C   UNL     1       6.467  17.230  23.217  0.00  0.00    +0.000 C 
ENDBRANCH  12  27
BRANCH   1  31
ATOM     30  C   UNL     1       6.596  15.314  19.581  0.00  0.00    +0.000 C 
ATOM     31  O   UNL     1       7.570  15.535  20.599  0.00  0.00    +0.000 OA
ENDBRANCH   1  31
TORSDOF 6
ENDMDL
MODEL 7
REMARK VINA RESULT:      -6.5      2.566      7.662
REMARK  Name = 
REMARK  8 active torsions:
REMARK  status: ('A' for Active; 'I' for Inactive)
REMARK    1  A    between atoms: C_1  and  O_2
REMARK    2  A    between atoms: O_2  and  C_3
REMARK    3  A    between atoms: C_4  and  N_5
REMARK    4  A    between atoms: C_8  and  C_9
REMARK    5  A    between atoms: C_9  and  C_10
REMARK    6  A    between atoms: C_9  and  N_11
REMARK    7  A    between atoms: N_19  and  N_20
REMARK    8  A    between atoms: N_23  and  C_24
REMARK                            x       y       z     vdW  Elec       q    Type
REMARK                         _______ _______ _______ _____ _____    ______ ____
ROOT
ATOM      1  C   UNL     1       1.672   8.548  19.179  0.00  0.00    +0.000 A 
ATOM      2  C   UNL     1       1.984   7.167  19.505  0.00  0.00    +0.000 A 
ATOM      3  C   UNL     1       1.633   6.754  20.802  0.00  0.00    +0.000 A 
ATOM      4  F   UNL     1       1.834   5.497  21.227  0.00  0.00    +0.000 F 
ATOM      5  C   UNL     1       1.002   7.595  21.701  0.00  0.00    +0.000 A 
ATOM      6  C   UNL     1       0.719   8.916  21.363  0.00  0.00    +0.000 A 
ATOM      7  C   UNL     1       0.043   9.721  22.398  0.00  0.00    +0.000 A 
ATOM      8  O   UNL     1      -0.087   9.273  23.536  0.00  0.00    +0.000 OA
ATOM      9  N   UNL     1      -0.375  10.973  22.007  0.00  0.00    +0.000 N 
ATOM     10  C   UNL     1       0.064  11.636  20.866  0.00  0.00    +0.000 A 
ATOM     11  O   UNL     1      -0.070  12.866  20.805  0.00  0.00    +0.000 OA
ATOM     12  N   UNL     1       0.663  10.849  19.850  0.00  0.00    +0.000 N 
ATOM     13  C   UNL     1       1.025   9.455  20.101  0.00  0.00    +0.000 A 
ENDROOT
BRANCH   2  14
ATOM     14  N   UNL     1       2.603   6.277  18.615  0.00  0.00    +0.000 N 
ATOM     15  C   UNL     1       1.832   5.308  17.840  0.00  0.00    +0.000 C 
ATOM     16  C   UNL     1       2.743   4.091  17.717  0.00  0.00    +0.000 C 
ATOM     17  C   UNL     1       4.162   4.649  17.763  0.00  0.00    +0.000 C 
ATOM     18  C   UNL     1       4.004   5.835  18.735  0.00  0.00    +0.000 C 
BRANCH  17  19
ATOM     19  C   UNL     1       4.824   4.999  16.410  0.00  0.00    +0.000 C 
ATOM     20  C   UNL     1       5.757   3.947  15.821  0.00  0.00    +0.000 C 
BRANCH  19  21
ATOM     21  N   UNL     1       5.558   6.270  16.491  0.00  0.00    +0.000 NA
ATOM     22  H   UNL     1       5.072   6.922  17.110  0.00  0.00    +0.000 HD
ATOM     23  H   UNL     1       5.598   6.716  15.579  0.00  0.00    +0.000 HD
ENDBRANCH  19  21
ENDBRANCH  17  19
ENDBRANCH   2  14
BRANCH   9  24
ATOM     24  N   UNL     1      -1.061  11.766  22.999  0.00  0.00    +0.000 N 
ATOM     25  H   UNL     1      -1.339  11.129  23.751  0.00  0.00    +0.000 HD
ATOM     26  H   UNL     1      -0.359  12.402  23.389  0.00  0.00    +0.000 HD
ENDBRANCH   9  24
BRANCH  12  27
ATOM     27  C   UNL     1       0.955  11.498  18.566  0.00  0.00    +0.000 C 
ATOM     28  C   UNL     1       0.959  12.970  18.218  0.00  0.00    +0.000 C 
ATOM     29  C   UNL     1       2.260  12.273  18.398  0.00  0.00    +0.000 C 
ENDBRANCH  12  27
BRANCH   1  31
ATOM     30  C   UNL     1       3.271   8.927  17.492  0.00  0.00    +0.000 C 
ATOM     31  O   UNL     1       1.897   8.930  17.871  0.00  0.00    +0.000 OA
ENDBRANCH   1  31
TORSDOF 6
ENDMDL
MODEL 8
REMARK VINA RESULT:      -6.4      5.199      7.492
REMARK  Name = 
REMARK  8 active torsions:
REMARK  status: ('A' for Active; 'I' for Inactive)
REMARK    1  A    between atoms: C_1  and  O_2
REMARK    2  A    between atoms: O_2  and  C_3
REMARK    3  A    between atoms: C_4  and  N_5
REMARK    4  A    between atoms: C_8  and  C_9
REMARK    5  A    between atoms: C_9  and  C_10
REMARK    6  A    between atoms: C_9  and  N_11
REMARK    7  A    between atoms: N_19  and  N_20
REMARK    8  A    between atoms: N_23  and  C_24
REMARK                            x       y       z     vdW  Elec       q    Type
REMARK                         _______ _______ _______ _____ _____    ______ ____
ROOT
ATOM      1  C   UNL     1      -1.312  13.250  20.404  0.00  0.00    +0.000 A 
ATOM      2  C   UNL     1      -1.980  14.322  21.122  0.00  0.00    +0.000 A 
ATOM      3  C   UNL     1      -1.320  15.562  21.116  0.00  0.00    +0.000 A 
ATOM      4  F   UNL     1      -1.838  16.647  21.713  0.00  0.00    +0.000 F 
ATOM      5  C   UNL     1      -0.127  15.762  20.444  0.00  0.00    +0.000 A 
ATOM      6  C   UNL     1       0.494  14.715  19.767  0.00  0.00    +0.000 A 
ATOM      7  C   UNL     1       1.760  15.043  19.086  0.00  0.00    +0.000 A 
ATOM      8  O   UNL     1       2.293  16.135  19.271  0.00  0.00    +0.000 OA
ATOM      9  N   UNL     1       2.287  14.051  18.290  0.00  0.00    +0.000 N 
ATOM     10  C   UNL     1       1.915  12.711  18.339  0.00  0.00    +0.000 A 
ATOM     11  O   UNL     1       2.687  11.862  17.874  0.00  0.00    +0.000 OA
ATOM     12  N   UNL     1       0.670  12.408  18.946  0.00  0.00    +0.000 N 
ATOM     13  C   UNL     1      -0.059  13.424  19.703  0.00  0.00    +0.000 A 
ENDROOT
BRANCH   2  14
ATOM     14  N   UNL     1      -3.200  14.165  21.797  0.00  0.00    +0.000 N 
ATOM     15  C   UNL     1      -4.453  14.673  21.243  0.00  0.00    +0.000 C 
ATOM     16  C   UNL     1      -5.276  15.094  22.457  0.00  0.00    +0.000 C 
ATOM     17  C   UNL     1      -4.811  14.183  23.589  0.00  0.00    +0.000 C 
ATOM     18  C   UNL     1      -3.316  14.002  23.258  0.00  0.00    +0.000 C 
BRANCH  17  19
ATOM     19  C   UNL     1      -5.595  12.866  23.797  0.00  0.00    +0.000 C 
ATOM     20  C   UNL     1      -7.098  13.001  24.018  0.00  0.00    +0.000 C 
BRANCH  19  21
ATOM     21  N   UNL     1      -5.036  12.085  24.909  0.00  0.00    +0.000 NA
ATOM     22  H   UNL     1      -4.925  12.674  25.737  0.00  0.00    +0.000 HD
ATOM     23  H   UNL     1      -4.108  11.745  24.674  0.00  0.00    +0.000 HD
ENDBRANCH  19  21
ENDBRANCH  17  19
ENDBRANCH   2  14
BRANCH   9  24
ATOM     24  N   UNL     1       3.513  14.361  17.593  0.00  0.00    +0.000 N 
ATOM     25  H   UNL     1       4.276  14.245  18.266  0.00  0.00    +0.000 HD
ATOM     26  H   UNL     1       3.628  13.633  16.882  0.00  0.00    +0.000 HD
ENDBRANCH   9  24
BRANCH  12  27
ATOM     27  C   UNL     1       0.173  11.030  18.836  0.00  0.00    +0.000 C 
ATOM     28  C   UNL     1       0.924   9.771  18.461  0.00  0.00    +0.000 C 
ATOM     29  C   UNL     1       0.577  10.002  19.889  0.00  0.00    +0.000 C 
ENDBRANCH  12  27
BRANCH   1  31
ATOM     30  C   UNL     1      -2.946  12.034  19.221  0.00  0.00    +0.000 C 
ATOM     31  O   UNL     1      -2.010  12.063  20.296  0.00  0.00    +0.000 OA
ENDBRANCH   1  31
TORSDOF 6
ENDMDL
MODEL 9
REMARK VINA RESULT:      -6.4      6.487      8.970
REMARK  Name = 
REMARK  8 active torsions:
REMARK  status: ('A' for Active; 'I' for Inactive)
REMARK    1  A    between atoms: C_1  and  O_2
REMARK    2  A    between atoms: O_2  and  C_3
REMARK    3  A    between atoms: C_4  and  N_5
REMARK    4  A    between atoms: C_8  and  C_9
REMARK    5  A    between atoms: C_9  and  C_10
REMARK    6  A    between atoms: C_9  and  N_11
REMARK    7  A    between atoms: N_19  and  N_20
REMARK    8  A    between atoms: N_23  and  C_24
REMARK                            x       y       z     vdW  Elec       q    Type
REMARK                         _______ _______ _______ _____ _____    ______ ____
ROOT
ATOM      1  C   UNL     1      -2.284  12.805  20.488  0.00  0.00    +0.000 A 
ATOM      2  C   UNL     1      -1.364  12.593  19.385  0.00  0.00    +0.000 A 
ATOM      3  C   UNL     1      -1.918  12.006  18.234  0.00  0.00    +0.000 A 
ATOM      4  F   UNL     1      -1.190  11.781  17.129  0.00  0.00    +0.000 F 
ATOM      5  C   UNL     1      -3.260  11.680  18.143  0.00  0.00    +0.000 A 
ATOM      6  C   UNL     1      -4.118  11.890  19.219  0.00  0.00    +0.000 A 
ATOM      7  C   UNL     1      -5.527  11.507  19.009  0.00  0.00    +0.000 A 
ATOM      8  O   UNL     1      -5.850  10.883  18.000  0.00  0.00    +0.000 OA
ATOM      9  N   UNL     1      -6.401  11.861  20.013  0.00  0.00    +0.000 N 
ATOM     10  C   UNL     1      -6.024  12.236  21.299  0.00  0.00    +0.000 A 
ATOM     11  O   UNL     1      -6.861  12.165  22.208  0.00  0.00    +0.000 OA
ATOM     12  N   UNL     1      -4.682  12.656  21.482  0.00  0.00    +0.000 N 
ATOM     13  C   UNL     1      -3.688  12.463  20.429  0.00  0.00    +0.000 A 
ENDROOT
BRANCH   2  14
ATOM     14  N   UNL     1      -0.002  12.929  19.430  0.00  0.00    +0.000 N 
ATOM     15  C   UNL     1       0.898  12.349  20.424  0.00  0.00    +0.000 C 
ATOM     16  C   UNL     1       1.906  13.452  20.730  0.00  0.00    +0.000 C 
ATOM     17  C   UNL     1       1.995  14.277  19.449  0.00  0.00    +0.000 C 
ATOM     18  C   UNL     1       0.549  14.197  18.920  0.00  0.00    +0.000 C 
BRANCH  17  19
ATOM     19  C   UNL     1       3.085  13.874  18.429  0.00  0.00    +0.000 C 
ATOM     20  C   UNL     1       3.837  15.017  17.755  0.00  0.00    +0.000 C 
BRANCH  19  21
ATOM     21  N   UNL     1       2.534  13.005  17.379  0.00  0.00    +0.000 NA
ATOM     22  H   UNL     1       3.285  12.648  16.783  0.00  0.00    +0.000 HD
ATOM     23  H   UNL     1       1.912  13.532  16.772  0.00  0.00    +0.000 HD
ENDBRANCH  19  21
ENDBRANCH  17  19
ENDBRANCH   2  14
BRANCH   9  24
ATOM     24  N   UNL     1      -7.789  11.517  19.815  0.00  0.00    +0.000 N 
ATOM     25  H   UNL     1      -7.813  10.755  19.132  0.00  0.00    +0.000 HD
ATOM     26  H   UNL     1      -8.116  11.132  20.706  0.00  0.00    +0.000 HD
ENDBRANCH   9  24
BRANCH  12  27
ATOM     27  C   UNL     1      -4.320  13.236  22.782  0.00  0.00    +0.000 C 
ATOM     28  C   UNL     1      -4.989  13.059  24.127  0.00  0.00    +0.000 C 
ATOM     29  C   UNL     1      -3.716  12.339  23.859  0.00  0.00    +0.000 C 
ENDBRANCH  12  27
BRANCH   1  31
ATOM     30  C   UNL     1      -1.834  14.912  21.440  0.00  0.00    +0.000 C 
ATOM     31  O   UNL     1      -1.782  13.493  21.575  0.00  0.00    +0.000 OA
ENDBRANCH   1  31
TORSDOF 6
ENDMDL
