MODEL 1
REMARK VINA RESULT:      -8.8      0.000      0.000
REMARK  Name = 
REMARK  4 active torsions:
REMARK  status: ('A' for Active; 'I' for Inactive)
REMARK    1  A    between atoms: C_1  and  C_2
REMARK    2  A    between atoms: C_7  and  C_8
REMARK    3  A    between atoms: C_9  and  C_10
REMARK    4  A    between atoms: N_12  and  C_13
REMARK                            x       y       z     vdW  Elec       q    Type
REMARK                         _______ _______ _______ _____ _____    ______ ____
ROOT
ATOM      1  C   UNL     1       3.778   4.153  17.878  0.00  0.00    +0.000 C 
ATOM      2  O   UNL     1       2.996   4.533  17.010  0.00  0.00    +0.000 OA
ATOM      3  N   UNL     1       5.140   4.014  17.674  0.00  0.00    +0.000 N 
ATOM      4  H   UNL     1       5.702   3.616  18.413  0.00  0.00    +0.000 HD
ENDROOT
BRANCH   3   5
ATOM      5  C   UNL     1       5.826   4.386  16.478  0.00  0.00    +0.000 A 
ATOM      6  C   UNL     1       6.800   5.378  16.404  0.00  0.00    +0.000 A 
ATOM      7  N   UNL     1       7.498   5.708  15.290  0.00  0.00    +0.000 NA
ATOM      8  C   UNL     1       7.226   5.050  14.163  0.00  0.00    +0.000 A 
ATOM      9  C   UNL     1       7.960   5.361  13.026  0.00  0.00    +0.000 A 
ATOM     10  C   UNL     1       7.731   4.715  11.811  0.00  0.00    +0.000 A 
ATOM     11  C   UNL     1       6.728   3.758  11.723  0.00  0.00    +0.000 A 
ATOM     12  C   UNL     1       5.976   3.426  12.853  0.00  0.00    +0.000 A 
ATOM     13  C   UNL     1       6.224   4.050  14.090  0.00  0.00    +0.000 A 
ATOM     14  C   UNL     1       5.539   3.720  15.282  0.00  0.00    +0.000 A 
ENDBRANCH   3   5
BRANCH   1  23
ATOM     15  C   UNL     1       2.707   6.233  19.969  0.00  0.00    +0.000 C 
ATOM     16  C   UNL     1       2.639   4.750  20.186  0.00  0.00    +0.000 A 
ATOM     17  C   UNL     1       1.977   4.291  21.264  0.00  0.00    +0.000 A 
ATOM     18  C   UNL     1       1.834   2.860  21.561  0.00  0.00    +0.000 A 
ATOM     19  O   UNL     1       1.216   2.483  22.548  0.00  0.00    +0.000 OA
ATOM     20  O   UNL     1       2.440   2.010  20.693  0.00  0.00    +0.000 OA
ATOM     21  C   UNL     1       3.100   2.470  19.520  0.00  0.00    +0.000 A 
ATOM     22  C   UNL     1       3.577   1.315  18.682  0.00  0.00    +0.000 C 
ATOM     23  C   UNL     1       3.227   3.793  19.244  0.00  0.00    +0.000 A 
ENDBRANCH   1  23
TORSDOF 2
ENDMDL
MODEL 2
REMARK VINA RESULT:      -8.3      1.100      1.157
REMARK  Name = 
REMARK  4 active torsions:
REMARK  status: ('A' for Active; 'I' for Inactive)
REMARK    1  A    between atoms: C_1  and  C_2
REMARK    2  A    between atoms: C_7  and  C_8
REMARK    3  A    between atoms: C_9  and  C_10
REMARK    4  A    between atoms: N_12  and  C_13
REMARK                            x       y       z     vdW  Elec       q    Type
REMARK                         _______ _______ _______ _____ _____    ______ ____
ROOT
ATOM      1  C   UNL     1       4.056   3.254  18.058  0.00  0.00    +0.000 C 
ATOM      2  O   UNL     1       4.061   2.252  17.347  0.00  0.00    +0.000 OA
ATOM      3  N   UNL     1       4.785   4.396  17.776  0.00  0.00    +0.000 N 
ATOM      4  H   UNL     1       4.793   5.145  18.455  0.00  0.00    +0.000 HD
ENDROOT
BRANCH   3   5
ATOM      5  C   UNL     1       5.547   4.603  16.587  0.00  0.00    +0.000 A 
ATOM      6  C   UNL     1       6.686   5.400  16.509  0.00  0.00    +0.000 A 
ATOM      7  N   UNL     1       7.452   5.566  15.403  0.00  0.00    +0.000 NA
ATOM      8  C   UNL     1       7.084   4.936  14.287  0.00  0.00    +0.000 A 
ATOM      9  C   UNL     1       7.882   5.075  13.159  0.00  0.00    +0.000 A 
ATOM     10  C   UNL     1       7.560   4.446  11.956  0.00  0.00    +0.000 A 
ATOM     11  C   UNL     1       6.401   3.684  11.870  0.00  0.00    +0.000 A 
ATOM     12  C   UNL     1       5.582   3.527  12.992  0.00  0.00    +0.000 A 
ATOM     13  C   UNL     1       5.918   4.132  14.218  0.00  0.00    +0.000 A 
ATOM     14  C   UNL     1       5.165   3.966  15.402  0.00  0.00    +0.000 A 
ENDBRANCH   3   5
BRANCH   1  23
ATOM     15  C   UNL     1       1.188   4.500  18.327  0.00  0.00    +0.000 C 
ATOM     16  C   UNL     1       1.853   3.735  19.435  0.00  0.00    +0.000 A 
ATOM     17  C   UNL     1       1.137   3.463  20.542  0.00  0.00    +0.000 A 
ATOM     18  C   UNL     1       1.684   2.706  21.676  0.00  0.00    +0.000 A 
ATOM     19  O   UNL     1       0.997   2.473  22.662  0.00  0.00    +0.000 OA
ATOM     20  O   UNL     1       2.978   2.313  21.560  0.00  0.00    +0.000 OA
ATOM     21  C   UNL     1       3.735   2.543  20.378  0.00  0.00    +0.000 A 
ATOM     22  C   UNL     1       5.094   1.904  20.475  0.00  0.00    +0.000 C 
ATOM     23  C   UNL     1       3.228   3.239  19.329  0.00  0.00    +0.000 A 
ENDBRANCH   1  23
TORSDOF 2
ENDMDL
MODEL 3
REMARK VINA RESULT:      -8.3      1.082      1.082
REMARK  Name = 
REMARK  4 active torsions:
REMARK  status: ('A' for Active; 'I' for Inactive)
REMARK    1  A    between atoms: C_1  and  C_2
REMARK    2  A    between atoms: C_7  and  C_8
REMARK    3  A    between atoms: C_9  and  C_10
REMARK    4  A    between atoms: N_12  and  C_13
REMARK                            x       y       z     vdW  Elec       q    Type
REMARK                         _______ _______ _______ _____ _____    ______ ____
ROOT
ATOM      1  C   UNL     1       4.935   4.288  18.807  0.00  0.00    +0.000 C 
ATOM      2  O   UNL     1       6.115   4.410  19.128  0.00  0.00    +0.000 OA
ATOM      3  N   UNL     1       4.474   4.444  17.511  0.00  0.00    +0.000 N 
ATOM      4  H   UNL     1       3.478   4.411  17.344  0.00  0.00    +0.000 HD
ENDROOT
BRANCH   3   5
ATOM      5  C   UNL     1       5.306   4.662  16.372  0.00  0.00    +0.000 A 
ATOM      6  C   UNL     1       6.373   5.556  16.334  0.00  0.00    +0.000 A 
ATOM      7  N   UNL     1       7.206   5.738  15.280  0.00  0.00    +0.000 NA
ATOM      8  C   UNL     1       6.984   5.023  14.177  0.00  0.00    +0.000 A 
ATOM      9  C   UNL     1       7.852   5.181  13.105  0.00  0.00    +0.000 A 
ATOM     10  C   UNL     1       7.683   4.467  11.918  0.00  0.00    +0.000 A 
ATOM     11  C   UNL     1       6.606   3.599  11.789  0.00  0.00    +0.000 A 
ATOM     12  C   UNL     1       5.718   3.421  12.854  0.00  0.00    +0.000 A 
ATOM     13  C   UNL     1       5.902   4.113  14.066  0.00  0.00    +0.000 A 
ATOM     14  C   UNL     1       5.076   3.936  15.199  0.00  0.00    +0.000 A 
ENDBRANCH   3   5
BRANCH   1  23
ATOM     15  C   UNL     1       2.682   6.255  19.759  0.00  0.00    +0.000 C 
ATOM     16  C   UNL     1       2.807   4.849  20.269  0.00  0.00    +0.000 A 
ATOM     17  C   UNL     1       1.837   4.373  21.072  0.00  0.00    +0.000 A 
ATOM     18  C   UNL     1       1.851   3.007  21.612  0.00  0.00    +0.000 A 
ATOM     19  O   UNL     1       0.945   2.609  22.332  0.00  0.00    +0.000 OA
ATOM     20  O   UNL     1       2.924   2.247  21.277  0.00  0.00    +0.000 OA
ATOM     21  C   UNL     1       3.933   2.712  20.389  0.00  0.00    +0.000 A 
ATOM     22  C   UNL     1       4.939   1.630  20.101  0.00  0.00    +0.000 C 
ATOM     23  C   UNL     1       3.917   3.972  19.886  0.00  0.00    +0.000 A 
ENDBRANCH   1  23
TORSDOF 2
ENDMDL
MODEL 4
REMARK VINA RESULT:      -7.9      4.190      8.313
REMARK  Name = 
REMARK  4 active torsions:
REMARK  status: ('A' for Active; 'I' for Inactive)
REMARK    1  A    between atoms: C_1  and  C_2
REMARK    2  A    between atoms: C_7  and  C_8
REMARK    3  A    between atoms: C_9  and  C_10
REMARK    4  A    between atoms: N_12  and  C_13
REMARK                            x       y       z     vdW  Elec       q    Type
REMARK                         _______ _______ _______ _____ _____    ______ ____
ROOT
ATOM      1  C   UNL     1       2.365   6.316  19.236  0.00  0.00    +0.000 C 
ATOM      2  O   UNL     1       1.920   6.683  18.151  0.00  0.00    +0.000 OA
ATOM      3  N   UNL     1       2.242   7.051  20.402  0.00  0.00    +0.000 N 
ATOM      4  H   UNL     1       2.709   6.720  21.235  0.00  0.00    +0.000 HD
ENDROOT
BRANCH   3   5
ATOM      5  C   UNL     1       1.504   8.267  20.524  0.00  0.00    +0.000 A 
ATOM      6  C   UNL     1       1.382   9.220  19.515  0.00  0.00    +0.000 A 
ATOM      7  N   UNL     1       0.643  10.354  19.594  0.00  0.00    +0.000 NA
ATOM      8  C   UNL     1      -0.009  10.598  20.731  0.00  0.00    +0.000 A 
ATOM      9  C   UNL     1      -0.794  11.741  20.807  0.00  0.00    +0.000 A 
ATOM     10  C   UNL     1      -1.504  12.062  21.964  0.00  0.00    +0.000 A 
ATOM     11  C   UNL     1      -1.406  11.238  23.078  0.00  0.00    +0.000 A 
ATOM     12  C   UNL     1      -0.624  10.081  23.027  0.00  0.00    +0.000 A 
ATOM     13  C   UNL     1       0.069   9.733  21.852  0.00  0.00    +0.000 A 
ATOM     14  C   UNL     1       0.829   8.550  21.716  0.00  0.00    +0.000 A 
ENDBRANCH   3   5
BRANCH   1  23
ATOM     15  C   UNL     1       5.301   5.878  18.217  0.00  0.00    +0.000 C 
ATOM     16  C   UNL     1       4.513   4.811  18.919  0.00  0.00    +0.000 A 
ATOM     17  C   UNL     1       5.137   3.661  19.236  0.00  0.00    +0.000 A 
ATOM     18  C   UNL     1       4.466   2.559  19.939  0.00  0.00    +0.000 A 
ATOM     19  O   UNL     1       5.071   1.533  20.218  0.00  0.00    +0.000 OA
ATOM     20  O   UNL     1       3.154   2.753  20.231  0.00  0.00    +0.000 OA
ATOM     21  C   UNL     1       2.490   3.979  19.951  0.00  0.00    +0.000 A 
ATOM     22  C   UNL     1       1.081   3.962  20.481  0.00  0.00    +0.000 C 
ATOM     23  C   UNL     1       3.112   4.998  19.306  0.00  0.00    +0.000 A 
ENDBRANCH   1  23
TORSDOF 2
ENDMDL
MODEL 5
REMARK VINA RESULT:      -7.8      4.109      7.605
REMARK  Name = 
REMARK  4 active torsions:
REMARK  status: ('A' for Active; 'I' for Inactive)
REMARK    1  A    between atoms: C_1  and  C_2
REMARK    2  A    between atoms: C_7  and  C_8
REMARK    3  A    between atoms: C_9  and  C_10
REMARK    4  A    between atoms: N_12  and  C_13
REMARK                            x       y       z     vdW  Elec       q    Type
REMARK                         _______ _______ _______ _____ _____    ______ ____
ROOT
ATOM      1  C   UNL     1       2.555   5.901  19.164  0.00  0.00    +0.000 C 
ATOM      2  O   UNL     1       2.094   5.874  18.025  0.00  0.00    +0.000 OA
ATOM      3  N   UNL     1       2.490   7.010  19.989  0.00  0.00    +0.000 N 
ATOM      4  H   UNL     1       2.967   6.979  20.880  0.00  0.00    +0.000 HD
ENDROOT
BRANCH   3   5
ATOM      5  C   UNL     1       1.799   8.219  19.675  0.00  0.00    +0.000 A 
ATOM      6  C   UNL     1       1.845   8.855  18.437  0.00  0.00    +0.000 A 
ATOM      7  N   UNL     1       1.156   9.973  18.105  0.00  0.00    +0.000 NA
ATOM      8  C   UNL     1       0.382  10.531  19.036  0.00  0.00    +0.000 A 
ATOM      9  C   UNL     1      -0.353  11.659  18.693  0.00  0.00    +0.000 A 
ATOM     10  C   UNL     1      -1.183  12.297  19.615  0.00  0.00    +0.000 A 
ATOM     11  C   UNL     1      -1.259  11.814  20.916  0.00  0.00    +0.000 A 
ATOM     12  C   UNL     1      -0.532  10.680  21.286  0.00  0.00    +0.000 A 
ATOM     13  C   UNL     1       0.283  10.012  20.352  0.00  0.00    +0.000 A 
ATOM     14  C   UNL     1       0.999   8.829  20.646  0.00  0.00    +0.000 A 
ENDBRANCH   3   5
BRANCH   1  23
ATOM     15  C   UNL     1       1.143   3.612  20.782  0.00  0.00    +0.000 C 
ATOM     16  C   UNL     1       2.584   3.549  20.367  0.00  0.00    +0.000 A 
ATOM     17  C   UNL     1       3.262   2.408  20.588  0.00  0.00    +0.000 A 
ATOM     18  C   UNL     1       4.670   2.232  20.205  0.00  0.00    +0.000 A 
ATOM     19  O   UNL     1       5.249   1.175  20.416  0.00  0.00    +0.000 OA
ATOM     20  O   UNL     1       5.269   3.308  19.634  0.00  0.00    +0.000 OA
ATOM     21  C   UNL     1       4.557   4.505  19.344  0.00  0.00    +0.000 A 
ATOM     22  C   UNL     1       5.429   5.486  18.609  0.00  0.00    +0.000 C 
ATOM     23  C   UNL     1       3.255   4.664  19.693  0.00  0.00    +0.000 A 
ENDBRANCH   1  23
TORSDOF 2
ENDMDL
MODEL 6
REMARK VINA RESULT:      -7.7      3.513      8.171
REMARK  Name = 
REMARK  4 active torsions:
REMARK  status: ('A' for Active; 'I' for Inactive)
REMARK    1  A    between atoms: C_1  and  C_2
REMARK    2  A    between atoms: C_7  and  C_8
REMARK    3  A    between atoms: C_9  and  C_10
REMARK    4  A    between atoms: N_12  and  C_13
REMARK                            x       y       z     vdW  Elec       q    Type
REMARK                         _______ _______ _______ _____ _____    ______ ____
ROOT
ATOM      1  C   UNL     1       4.475   6.001  18.232  0.00  0.00    +0.000 C 
ATOM      2  O   UNL     1       4.762   5.730  19.396  0.00  0.00    +0.000 OA
ATOM      3  N   UNL     1       3.387   6.776  17.872  0.00  0.00    +0.000 N 
ATOM      4  H   UNL     1       3.171   6.883  16.891  0.00  0.00    +0.000 HD
ENDROOT
BRANCH   3   5
ATOM      5  C   UNL     1       2.521   7.441  18.792  0.00  0.00    +0.000 A 
ATOM      6  C   UNL     1       2.171   6.943  20.045  0.00  0.00    +0.000 A 
ATOM      7  N   UNL     1       1.394   7.583  20.953  0.00  0.00    +0.000 NA
ATOM      8  C   UNL     1       0.902   8.778  20.623  0.00  0.00    +0.000 A 
ATOM      9  C   UNL     1       0.131   9.454  21.560  0.00  0.00    +0.000 A 
ATOM     10  C   UNL     1      -0.417  10.707  21.286  0.00  0.00    +0.000 A 
ATOM     11  C   UNL     1      -0.215  11.285  20.039  0.00  0.00    +0.000 A 
ATOM     12  C   UNL     1       0.558  10.626  19.079  0.00  0.00    +0.000 A 
ATOM     13  C   UNL     1       1.142   9.377  19.361  0.00  0.00    +0.000 A 
ATOM     14  C   UNL     1       1.980   8.685  18.456  0.00  0.00    +0.000 A 
ENDBRANCH   3   5
BRANCH   1  23
ATOM     15  C   UNL     1       3.833   3.389  16.616  0.00  0.00    +0.000 C 
ATOM     16  C   UNL     1       5.002   4.276  16.301  0.00  0.00    +0.000 A 
ATOM     17  C   UNL     1       5.729   4.008  15.201  0.00  0.00    +0.000 A 
ATOM     18  C   UNL     1       6.881   4.822  14.791  0.00  0.00    +0.000 A 
ATOM     19  O   UNL     1       7.512   4.551  13.778  0.00  0.00    +0.000 OA
ATOM     20  O   UNL     1       7.196   5.860  15.608  0.00  0.00    +0.000 OA
ATOM     21  C   UNL     1       6.411   6.192  16.746  0.00  0.00    +0.000 A 
ATOM     22  C   UNL     1       6.917   7.448  17.402  0.00  0.00    +0.000 C 
ATOM     23  C   UNL     1       5.344   5.442  17.122  0.00  0.00    +0.000 A 
ENDBRANCH   1  23
TORSDOF 2
ENDMDL
MODEL 7
REMARK VINA RESULT:      -7.4      0.807      1.916
REMARK  Name = 
REMARK  4 active torsions:
REMARK  status: ('A' for Active; 'I' for Inactive)
REMARK    1  A    between atoms: C_1  and  C_2
REMARK    2  A    between atoms: C_7  and  C_8
REMARK    3  A    between atoms: C_9  and  C_10
REMARK    4  A    between atoms: N_12  and  C_13
REMARK                            x       y       z     vdW  Elec       q    Type
REMARK                         _______ _______ _______ _____ _____    ______ ____
ROOT
ATOM      1  C   UNL     1       3.382   4.603  17.836  0.00  0.00    +0.000 C 
ATOM      2  O   UNL     1       2.975   5.639  17.315  0.00  0.00    +0.000 OA
ATOM      3  N   UNL     1       4.490   3.905  17.388  0.00  0.00    +0.000 N 
ATOM      4  H   UNL     1       4.709   3.018  17.818  0.00  0.00    +0.000 HD
ENDROOT
BRANCH   3   5
ATOM      5  C   UNL     1       5.358   4.341  16.342  0.00  0.00    +0.000 A 
ATOM      6  C   UNL     1       6.348   5.310  16.491  0.00  0.00    +0.000 A 
ATOM      7  N   UNL     1       7.215   5.698  15.524  0.00  0.00    +0.000 NA
ATOM      8  C   UNL     1       7.110   5.129  14.324  0.00  0.00    +0.000 A 
ATOM      9  C   UNL     1       8.016   5.498  13.338  0.00  0.00    +0.000 A 
ATOM     10  C   UNL     1       7.967   4.946  12.058  0.00  0.00    +0.000 A 
ATOM     11  C   UNL     1       6.974   4.025  11.747  0.00  0.00    +0.000 A 
ATOM     12  C   UNL     1       6.051   3.635  12.722  0.00  0.00    +0.000 A 
ATOM     13  C   UNL     1       6.115   4.164  14.025  0.00  0.00    +0.000 A 
ATOM     14  C   UNL     1       5.249   3.770  15.070  0.00  0.00    +0.000 A 
ENDBRANCH   3   5
BRANCH   1  23
ATOM     15  C   UNL     1       2.445   1.619  18.089  0.00  0.00    +0.000 C 
ATOM     16  C   UNL     1       2.264   2.627  19.186  0.00  0.00    +0.000 A 
ATOM     17  C   UNL     1       1.796   2.201  20.374  0.00  0.00    +0.000 A 
ATOM     18  C   UNL     1       1.598   3.099  21.520  0.00  0.00    +0.000 A 
ATOM     19  O   UNL     1       1.179   2.671  22.587  0.00  0.00    +0.000 OA
ATOM     20  O   UNL     1       1.890   4.408  21.306  0.00  0.00    +0.000 OA
ATOM     21  C   UNL     1       2.435   4.870  20.076  0.00  0.00    +0.000 A 
ATOM     22  C   UNL     1       2.770   6.335  20.153  0.00  0.00    +0.000 C 
ATOM     23  C   UNL     1       2.621   4.039  19.020  0.00  0.00    +0.000 A 
ENDBRANCH   1  23
TORSDOF 2
ENDMDL
MODEL 8
REMARK VINA RESULT:      -7.3      4.119      8.264
REMARK  Name = 
REMARK  4 active torsions:
REMARK  status: ('A' for Active; 'I' for Inactive)
REMARK    1  A    between atoms: C_1  and  C_2
REMARK    2  A    between atoms: C_7  and  C_8
REMARK    3  A    between atoms: C_9  and  C_10
REMARK    4  A    between atoms: N_12  and  C_13
REMARK                            x       y       z     vdW  Elec       q    Type
REMARK                         _______ _______ _______ _____ _____    ______ ____
ROOT
ATOM      1  C   UNL     1       2.272   6.127  19.220  0.00  0.00    +0.000 C 
ATOM      2  O   UNL     1       2.106   6.660  18.126  0.00  0.00    +0.000 OA
ATOM      3  N   UNL     1       2.033   6.763  20.426  0.00  0.00    +0.000 N 
ATOM      4  H   UNL     1       2.274   6.285  21.283  0.00  0.00    +0.000 HD
ENDROOT
BRANCH   3   5
ATOM      5  C   UNL     1       1.471   8.069  20.560  0.00  0.00    +0.000 A 
ATOM      6  C   UNL     1       1.569   9.071  19.598  0.00  0.00    +0.000 A 
ATOM      7  N   UNL     1       0.999  10.298  19.684  0.00  0.00    +0.000 NA
ATOM      8  C   UNL     1       0.302  10.588  20.783  0.00  0.00    +0.000 A 
ATOM      9  C   UNL     1      -0.312  11.831  20.865  0.00  0.00    +0.000 A 
ATOM     10  C   UNL     1      -1.057  12.205  21.984  0.00  0.00    +0.000 A 
ATOM     11  C   UNL     1      -1.167  11.329  23.057  0.00  0.00    +0.000 A 
ATOM     12  C   UNL     1      -0.560  10.071  22.999  0.00  0.00    +0.000 A 
ATOM     13  C   UNL     1       0.165   9.675  21.859  0.00  0.00    +0.000 A 
ATOM     14  C   UNL     1       0.754   8.398  21.714  0.00  0.00    +0.000 A 
ENDBRANCH   3   5
BRANCH   1  23
ATOM     15  C   UNL     1       0.603   3.658  20.204  0.00  0.00    +0.000 C 
ATOM     16  C   UNL     1       1.985   3.533  19.632  0.00  0.00    +0.000 A 
ATOM     17  C   UNL     1       2.476   2.299  19.415  0.00  0.00    +0.000 A 
ATOM     18  C   UNL     1       3.808   2.063  18.842  0.00  0.00    +0.000 A 
ATOM     19  O   UNL     1       4.216   0.925  18.651  0.00  0.00    +0.000 OA
ATOM     20  O   UNL     1       4.541   3.172  18.565  0.00  0.00    +0.000 OA
ATOM     21  C   UNL     1       4.021   4.485  18.738  0.00  0.00    +0.000 A 
ATOM     22  C   UNL     1       4.997   5.520  18.248  0.00  0.00    +0.000 C 
ATOM     23  C   UNL     1       2.789   4.702  19.263  0.00  0.00    +0.000 A 
ENDBRANCH   1  23
TORSDOF 2
ENDMDL
MODEL 9
REMARK VINA RESULT:      -7.2      3.656      8.277
REMARK  Name = 
REMARK  4 active torsions:
REMARK  status: ('A' for Active; 'I' for Inactive)
REMARK    1  A    between atoms: C_1  and  C_2
REMARK    2  A    between atoms: C_7  and  C_8
REMARK    3  A    between atoms: C_9  and  C_10
REMARK    4  A    between atoms: N_12  and  C_13
REMARK                            x       y       z     vdW  Elec       q    Type
REMARK                         _______ _______ _______ _____ _____    ______ ____
ROOT
ATOM      1  C   UNL     1       3.851   6.360  18.267  0.00  0.00    +0.000 C 
ATOM      2  O   UNL     1       3.907   6.091  19.465  0.00  0.00    +0.000 OA
ATOM      3  N   UNL     1       3.015   7.328  17.738  0.00  0.00    +0.000 N 
ATOM      4  H   UNL     1       2.967   7.430  16.734  0.00  0.00    +0.000 HD
ENDROOT
BRANCH   3   5
ATOM      5  C   UNL     1       2.193   8.203  18.510  0.00  0.00    +0.000 A 
ATOM      6  C   UNL     1       1.542   9.324  18.002  0.00  0.00    +0.000 A 
ATOM      7  N   UNL     1       0.717  10.137  18.707  0.00  0.00    +0.000 NA
ATOM      8  C   UNL     1       0.520   9.862  19.996  0.00  0.00    +0.000 A 
ATOM      9  C   UNL     1      -0.350  10.671  20.717  0.00  0.00    +0.000 A 
ATOM     10  C   UNL     1      -0.604  10.446  22.070  0.00  0.00    +0.000 A 
ATOM     11  C   UNL     1       0.046   9.407  22.724  0.00  0.00    +0.000 A 
ATOM     12  C   UNL     1       0.925   8.577  22.022  0.00  0.00    +0.000 A 
ATOM     13  C   UNL     1       1.161   8.779  20.649  0.00  0.00    +0.000 A 
ATOM     14  C   UNL     1       1.992   7.943  19.869  0.00  0.00    +0.000 A 
ENDBRANCH   3   5
BRANCH   1  23
ATOM     15  C   UNL     1       3.122   3.543  17.091  0.00  0.00    +0.000 C 
ATOM     16  C   UNL     1       4.347   4.306  16.681  0.00  0.00    +0.000 A 
ATOM     17  C   UNL     1       5.096   3.818  15.674  0.00  0.00    +0.000 A 
ATOM     18  C   UNL     1       6.304   4.494  15.182  0.00  0.00    +0.000 A 
ATOM     19  O   UNL     1       6.953   4.022  14.258  0.00  0.00    +0.000 OA
ATOM     20  O   UNL     1       6.648   5.639  15.824  0.00  0.00    +0.000 OA
ATOM     21  C   UNL     1       5.843   6.199  16.855  0.00  0.00    +0.000 A 
ATOM     22  C   UNL     1       6.395   7.524  17.310  0.00  0.00    +0.000 C 
ATOM     23  C   UNL     1       4.725   5.577  17.306  0.00  0.00    +0.000 A 
ENDBRANCH   1  23
TORSDOF 2
ENDMDL
