MODEL 1
REMARK VINA RESULT:      -8.4      0.000      0.000
REMARK  Name = 
REMARK  9 active torsions:
REMARK  status: ('A' for Active; 'I' for Inactive)
REMARK    1  A    between atoms: C_1  and  C_2
REMARK    2  A    between atoms: N_4  and  C_5
REMARK    3  A    between atoms: C_5  and  C_6
REMARK    4  A    between atoms: C_9  and  C_10
REMARK    5  A    between atoms: C_14  and  C_15
REMARK    6  A    between atoms: C_19  and  O_20
REMARK    7  A    between atoms: C_19  and  C_21
REMARK    8  A    between atoms: C_26  and  C_27
REMARK    9  A    between atoms: C_28  and  N_29
REMARK                            x       y       z     vdW  Elec       q    Type
REMARK                         _______ _______ _______ _____ _____    ______ ____
ROOT
ATOM      1  C   UNL     1       0.837   9.547  19.707  0.00  0.00    +0.000 A 
ATOM      2  C   UNL     1       1.212   9.516  18.352  0.00  0.00    +0.000 A 
ATOM      3  C   UNL     1       2.042   8.491  17.847  0.00  0.00    +0.000 A 
ATOM      4  C   UNL     1       2.504   7.473  18.690  0.00  0.00    +0.000 A 
ATOM      5  C   UNL     1       2.106   7.504  20.034  0.00  0.00    +0.000 A 
ATOM      6  C   UNL     1       1.262   8.501  20.530  0.00  0.00    +0.000 A 
ENDROOT
BRANCH   4   7
ATOM      7  C   UNL     1       3.521   6.459  18.187  0.00  0.00    +0.000 C 
ATOM      8  O   UNL     1       4.430   6.820  17.450  0.00  0.00    +0.000 OA
ATOM      9  N   UNL     1       3.452   5.166  18.702  0.00  0.00    +0.000 N 
ATOM     10  N   UNL     1       2.247   4.640  19.112  0.00  0.00    +0.000 NA
ATOM     11  C   UNL     1       2.500   3.451  19.568  0.00  0.00    +0.000 C 
ATOM     12  C   UNL     1       3.944   3.069  19.599  0.00  0.00    +0.000 C 
ATOM     13  C   UNL     1       4.508   4.136  18.657  0.00  0.00    +0.000 C 
BRANCH  11  14
ATOM     14  C   UNL     1       1.450   2.538  20.118  0.00  0.00    +0.000 C 
ATOM     15  F   UNL     1       1.477   2.511  21.476  0.00  0.00    +0.000 F 
ATOM     16  F   UNL     1       0.205   2.962  19.770  0.00  0.00    +0.000 F 
ENDBRANCH  11  14
BRANCH  13  17
ATOM     17  C   UNL     1       4.777   3.527  17.267  0.00  0.00    +0.000 C 
ATOM     18  F   UNL     1       3.719   3.793  16.444  0.00  0.00    +0.000 F 
ATOM     19  F   UNL     1       5.844   4.142  16.683  0.00  0.00    +0.000 F 
ENDBRANCH  13  17
BRANCH  13  20
ATOM     20  O   UNL     1       5.692   4.666  19.254  0.00  0.00    +0.000 OA
ATOM     21  H   UNL     1       6.338   4.767  18.534  0.00  0.00    +0.000 HD
ENDBRANCH  13  20
ENDBRANCH   4   7
BRANCH   1  22
ATOM     22  C   UNL     1       0.135  10.738  20.323  0.00  0.00    +0.000 C 
BRANCH  22  26
ATOM     23  C   UNL     1       3.048  14.399  21.479  0.00  0.00    +0.000 C 
ATOM     24  C   UNL     1       2.057  13.651  20.663  0.00  0.00    +0.000 A 
ATOM     25  N   UNL     1       1.720  12.406  21.015  0.00  0.00    +0.000 NA
ATOM     26  N   UNL     1       0.792  12.025  20.111  0.00  0.00    +0.000 N 
ATOM     27  C   UNL     1       0.456  13.037  19.232  0.00  0.00    +0.000 A 
ATOM     28  C   UNL     1      -0.642  12.961  18.230  0.00  0.00    +0.000 C 
ATOM     29  C   UNL     1       1.343  14.073  19.517  0.00  0.00    +0.000 A 
BRANCH  29  30
ATOM     30  N   UNL     1       1.472  15.332  18.821  0.00  0.00    +0.000 N 
ATOM     31  O   UNL     1       0.584  16.174  19.003  0.00  0.00    +0.000 OA
ATOM     32  O   UNL     1       2.470  15.491  18.106  0.00  0.00    +0.000 OA
ENDBRANCH  29  30
ENDBRANCH  22  26
ENDBRANCH   1  22
TORSDOF 7
ENDMDL
MODEL 2
REMARK VINA RESULT:      -8.4      3.262      4.885
REMARK  Name = 
REMARK  9 active torsions:
REMARK  status: ('A' for Active; 'I' for Inactive)
REMARK    1  A    between atoms: C_1  and  C_2
REMARK    2  A    between atoms: N_4  and  C_5
REMARK    3  A    between atoms: C_5  and  C_6
REMARK    4  A    between atoms: C_9  and  C_10
REMARK    5  A    between atoms: C_14  and  C_15
REMARK    6  A    between atoms: C_19  and  O_20
REMARK    7  A    between atoms: C_19  and  C_21
REMARK    8  A    between atoms: C_26  and  C_27
REMARK    9  A    between atoms: C_28  and  N_29
REMARK                            x       y       z     vdW  Elec       q    Type
REMARK                         _______ _______ _______ _____ _____    ______ ____
ROOT
ATOM      1  C   UNL     1       0.906   9.917  19.161  0.00  0.00    +0.000 A 
ATOM      2  C   UNL     1       0.889   9.278  20.414  0.00  0.00    +0.000 A 
ATOM      3  C   UNL     1       1.473   8.005  20.592  0.00  0.00    +0.000 A 
ATOM      4  C   UNL     1       2.094   7.353  19.519  0.00  0.00    +0.000 A 
ATOM      5  C   UNL     1       2.122   8.009  18.281  0.00  0.00    +0.000 A 
ATOM      6  C   UNL     1       1.571   9.281  18.109  0.00  0.00    +0.000 A 
ENDROOT
BRANCH   4   7
ATOM      7  C   UNL     1       2.583   5.920  19.669  0.00  0.00    +0.000 C 
ATOM      8  O   UNL     1       2.260   5.263  20.651  0.00  0.00    +0.000 OA
ATOM      9  N   UNL     1       3.281   5.362  18.599  0.00  0.00    +0.000 N 
ATOM     10  N   UNL     1       4.030   6.157  17.761  0.00  0.00    +0.000 NA
ATOM     11  C   UNL     1       4.528   5.372  16.855  0.00  0.00    +0.000 C 
ATOM     12  C   UNL     1       4.089   3.946  16.930  0.00  0.00    +0.000 C 
ATOM     13  C   UNL     1       3.532   3.927  18.356  0.00  0.00    +0.000 C 
BRANCH  11  14
ATOM     14  C   UNL     1       5.409   5.850  15.744  0.00  0.00    +0.000 C 
ATOM     15  F   UNL     1       4.916   6.978  15.169  0.00  0.00    +0.000 F 
ATOM     16  F   UNL     1       6.648   6.167  16.207  0.00  0.00    +0.000 F 
ENDBRANCH  11  14
BRANCH  13  17
ATOM     17  C   UNL     1       4.541   3.263  19.312  0.00  0.00    +0.000 C 
ATOM     18  F   UNL     1       5.383   4.215  19.815  0.00  0.00    +0.000 F 
ATOM     19  F   UNL     1       3.894   2.753  20.398  0.00  0.00    +0.000 F 
ENDBRANCH  13  17
BRANCH  13  20
ATOM     20  O   UNL     1       2.280   3.241  18.328  0.00  0.00    +0.000 OA
ATOM     21  H   UNL     1       2.473   2.314  18.545  0.00  0.00    +0.000 HD
ENDBRANCH  13  20
ENDBRANCH   4   7
BRANCH   1  22
ATOM     22  C   UNL     1       0.107  11.172  18.884  0.00  0.00    +0.000 C 
BRANCH  22  26
ATOM     23  C   UNL     1      -3.029   9.711  15.529  0.00  0.00    +0.000 C 
ATOM     24  C   UNL     1      -2.589  10.333  16.805  0.00  0.00    +0.000 A 
ATOM     25  N   UNL     1      -1.299  10.278  17.153  0.00  0.00    +0.000 NA
ATOM     26  N   UNL     1      -1.222  10.952  18.321  0.00  0.00    +0.000 N 
ATOM     27  C   UNL     1      -2.426  11.521  18.689  0.00  0.00    +0.000 A 
ATOM     28  C   UNL     1      -2.611  12.445  19.841  0.00  0.00    +0.000 C 
ATOM     29  C   UNL     1      -3.350  11.045  17.761  0.00  0.00    +0.000 A 
BRANCH  29  30
ATOM     30  N   UNL     1      -4.776  11.272  17.750  0.00  0.00    +0.000 N 
ATOM     31  O   UNL     1      -5.470  10.556  18.483  0.00  0.00    +0.000 OA
ATOM     32  O   UNL     1      -5.207  12.177  17.023  0.00  0.00    +0.000 OA
ENDBRANCH  29  30
ENDBRANCH  22  26
ENDBRANCH   1  22
TORSDOF 7
ENDMDL
MODEL 3
REMARK VINA RESULT:      -8.4      4.058      8.911
REMARK  Name = 
REMARK  9 active torsions:
REMARK  status: ('A' for Active; 'I' for Inactive)
REMARK    1  A    between atoms: C_1  and  C_2
REMARK    2  A    between atoms: N_4  and  C_5
REMARK    3  A    between atoms: C_5  and  C_6
REMARK    4  A    between atoms: C_9  and  C_10
REMARK    5  A    between atoms: C_14  and  C_15
REMARK    6  A    between atoms: C_19  and  O_20
REMARK    7  A    between atoms: C_19  and  C_21
REMARK    8  A    between atoms: C_26  and  C_27
REMARK    9  A    between atoms: C_28  and  N_29
REMARK                            x       y       z     vdW  Elec       q    Type
REMARK                         _______ _______ _______ _____ _____    ______ ____
ROOT
ATOM      1  C   UNL     1       2.248   5.463  19.242  0.00  0.00    +0.000 A 
ATOM      2  C   UNL     1       1.555   5.428  20.465  0.00  0.00    +0.000 A 
ATOM      3  C   UNL     1       1.158   6.619  21.113  0.00  0.00    +0.000 A 
ATOM      4  C   UNL     1       1.441   7.866  20.541  0.00  0.00    +0.000 A 
ATOM      5  C   UNL     1       2.115   7.885  19.312  0.00  0.00    +0.000 A 
ATOM      6  C   UNL     1       2.483   6.709  18.655  0.00  0.00    +0.000 A 
ENDROOT
BRANCH   4   7
ATOM      7  C   UNL     1       1.155   9.147  21.310  0.00  0.00    +0.000 C 
ATOM      8  O   UNL     1       1.681   9.337  22.400  0.00  0.00    +0.000 OA
ATOM      9  N   UNL     1       0.398  10.128  20.670  0.00  0.00    +0.000 N 
ATOM     10  N   UNL     1      -0.546   9.780  19.730  0.00  0.00    +0.000 NA
ATOM     11  C   UNL     1      -1.057  10.890  19.292  0.00  0.00    +0.000 C 
ATOM     12  C   UNL     1      -0.439  12.139  19.835  0.00  0.00    +0.000 C 
ATOM     13  C   UNL     1       0.297  11.553  21.042  0.00  0.00    +0.000 C 
BRANCH  11  14
ATOM     14  C   UNL     1      -2.126  10.951  18.248  0.00  0.00    +0.000 C 
ATOM     15  F   UNL     1      -2.334   9.735  17.679  0.00  0.00    +0.000 F 
ATOM     16  F   UNL     1      -3.315  11.327  18.790  0.00  0.00    +0.000 F 
ENDBRANCH  11  14
BRANCH  13  17
ATOM     17  C   UNL     1      -0.491  11.842  22.335  0.00  0.00    +0.000 C 
ATOM     18  F   UNL     1      -0.422  13.177  22.619  0.00  0.00    +0.000 F 
ATOM     19  F   UNL     1      -1.816  11.588  22.144  0.00  0.00    +0.000 F 
ENDBRANCH  13  17
BRANCH  13  20
ATOM     20  O   UNL     1       1.609  12.114  21.070  0.00  0.00    +0.000 OA
ATOM     21  H   UNL     1       2.206  11.399  21.349  0.00  0.00    +0.000 HD
ENDBRANCH  13  20
ENDBRANCH   4   7
BRANCH   1  22
ATOM     22  C   UNL     1       2.874   4.226  18.635  0.00  0.00    +0.000 C 
BRANCH  22  26
ATOM     23  C   UNL     1       5.378   4.059  14.520  0.00  0.00    +0.000 C 
ATOM     24  C   UNL     1       5.135   4.350  15.957  0.00  0.00    +0.000 A 
ATOM     25  N   UNL     1       3.915   4.155  16.470  0.00  0.00    +0.000 NA
ATOM     26  N   UNL     1       4.032   4.470  17.778  0.00  0.00    +0.000 N 
ATOM     27  C   UNL     1       5.329   4.780  18.140  0.00  0.00    +0.000 A 
ATOM     28  C   UNL     1       5.788   5.016  19.536  0.00  0.00    +0.000 C 
ATOM     29  C   UNL     1       6.043   4.801  16.944  0.00  0.00    +0.000 A 
BRANCH  29  30
ATOM     30  N   UNL     1       7.429   5.159  16.757  0.00  0.00    +0.000 N 
ATOM     31  O   UNL     1       8.280   4.317  17.072  0.00  0.00    +0.000 OA
ATOM     32  O   UNL     1       7.673   6.274  16.277  0.00  0.00    +0.000 OA
ENDBRANCH  29  30
ENDBRANCH  22  26
ENDBRANCH   1  22
TORSDOF 7
ENDMDL
MODEL 4
REMARK VINA RESULT:      -8.4      2.844      3.864
REMARK  Name = 
REMARK  9 active torsions:
REMARK  status: ('A' for Active; 'I' for Inactive)
REMARK    1  A    between atoms: C_1  and  C_2
REMARK    2  A    between atoms: N_4  and  C_5
REMARK    3  A    between atoms: C_5  and  C_6
REMARK    4  A    between atoms: C_9  and  C_10
REMARK    5  A    between atoms: C_14  and  C_15
REMARK    6  A    between atoms: C_19  and  O_20
REMARK    7  A    between atoms: C_19  and  C_21
REMARK    8  A    between atoms: C_26  and  C_27
REMARK    9  A    between atoms: C_28  and  N_29
REMARK                            x       y       z     vdW  Elec       q    Type
REMARK                         _______ _______ _______ _____ _____    ______ ____
ROOT
ATOM      1  C   UNL     1       0.888   9.903  19.267  0.00  0.00    +0.000 A 
ATOM      2  C   UNL     1       1.141   8.828  20.138  0.00  0.00    +0.000 A 
ATOM      3  C   UNL     1       1.994   7.767  19.760  0.00  0.00    +0.000 A 
ATOM      4  C   UNL     1       2.616   7.770  18.505  0.00  0.00    +0.000 A 
ATOM      5  C   UNL     1       2.370   8.857  17.654  0.00  0.00    +0.000 A 
ATOM      6  C   UNL     1       1.551   9.921  18.037  0.00  0.00    +0.000 A 
ENDROOT
BRANCH   4   7
ATOM      7  C   UNL     1       3.406   6.558  18.035  0.00  0.00    +0.000 C 
ATOM      8  O   UNL     1       4.266   6.686  17.172  0.00  0.00    +0.000 OA
ATOM      9  N   UNL     1       3.209   5.356  18.714  0.00  0.00    +0.000 N 
ATOM     10  N   UNL     1       1.997   5.077  19.304  0.00  0.00    +0.000 NA
ATOM     11  C   UNL     1       2.124   3.921  19.879  0.00  0.00    +0.000 C 
ATOM     12  C   UNL     1       3.491   3.319  19.815  0.00  0.00    +0.000 C 
ATOM     13  C   UNL     1       4.091   4.172  18.695  0.00  0.00    +0.000 C 
BRANCH  11  14
ATOM     14  C   UNL     1       1.024   3.253  20.641  0.00  0.00    +0.000 C 
ATOM     15  F   UNL     1       0.158   2.617  19.810  0.00  0.00    +0.000 F 
ATOM     16  F   UNL     1       1.519   2.300  21.477  0.00  0.00    +0.000 F 
ENDBRANCH  11  14
BRANCH  13  17
ATOM     17  C   UNL     1       4.102   3.380  17.373  0.00  0.00    +0.000 C 
ATOM     18  F   UNL     1       2.911   3.560  16.726  0.00  0.00    +0.000 F 
ATOM     19  F   UNL     1       5.044   3.888  16.529  0.00  0.00    +0.000 F 
ENDBRANCH  13  17
BRANCH  13  20
ATOM     20  O   UNL     1       5.401   4.569  19.099  0.00  0.00    +0.000 OA
ATOM     21  H   UNL     1       5.355   4.724  20.058  0.00  0.00    +0.000 HD
ENDBRANCH  13  20
ENDBRANCH   4   7
BRANCH   1  22
ATOM     22  C   UNL     1      -0.181  10.936  19.551  0.00  0.00    +0.000 C 
BRANCH  22  26
ATOM     23  C   UNL     1      -2.818   9.572  15.755  0.00  0.00    +0.000 C 
ATOM     24  C   UNL     1      -2.549  10.210  17.070  0.00  0.00    +0.000 A 
ATOM     25  N   UNL     1      -1.343  10.077  17.632  0.00  0.00    +0.000 NA
ATOM     26  N   UNL     1      -1.411  10.788  18.778  0.00  0.00    +0.000 N 
ATOM     27  C   UNL     1      -2.613  11.453  18.924  0.00  0.00    +0.000 A 
ATOM     28  C   UNL     1      -2.916  12.431  20.004  0.00  0.00    +0.000 C 
ATOM     29  C   UNL     1      -3.403  11.009  17.866  0.00  0.00    +0.000 A 
BRANCH  29  30
ATOM     30  N   UNL     1      -4.787  11.333  17.609  0.00  0.00    +0.000 N 
ATOM     31  O   UNL     1      -5.018  12.177  16.734  0.00  0.00    +0.000 OA
ATOM     32  O   UNL     1      -5.647  10.734  18.267  0.00  0.00    +0.000 OA
ENDBRANCH  29  30
ENDBRANCH  22  26
ENDBRANCH   1  22
TORSDOF 7
ENDMDL
MODEL 5
REMARK VINA RESULT:      -8.3      3.976      8.648
REMARK  Name = 
REMARK  9 active torsions:
REMARK  status: ('A' for Active; 'I' for Inactive)
REMARK    1  A    between atoms: C_1  and  C_2
REMARK    2  A    between atoms: N_4  and  C_5
REMARK    3  A    between atoms: C_5  and  C_6
REMARK    4  A    between atoms: C_9  and  C_10
REMARK    5  A    between atoms: C_14  and  C_15
REMARK    6  A    between atoms: C_19  and  O_20
REMARK    7  A    between atoms: C_19  and  C_21
REMARK    8  A    between atoms: C_26  and  C_27
REMARK    9  A    between atoms: C_28  and  N_29
REMARK                            x       y       z     vdW  Elec       q    Type
REMARK                         _______ _______ _______ _____ _____    ______ ____
ROOT
ATOM      1  C   UNL     1       2.423   6.245  19.719  0.00  0.00    +0.000 A 
ATOM      2  C   UNL     1       1.669   6.666  20.829  0.00  0.00    +0.000 A 
ATOM      3  C   UNL     1       1.110   7.962  20.884  0.00  0.00    +0.000 A 
ATOM      4  C   UNL     1       1.289   8.857  19.822  0.00  0.00    +0.000 A 
ATOM      5  C   UNL     1       2.026   8.418  18.713  0.00  0.00    +0.000 A 
ATOM      6  C   UNL     1       2.555   7.127  18.643  0.00  0.00    +0.000 A 
ENDROOT
BRANCH   4   7
ATOM      7  C   UNL     1       0.824  10.300  19.945  0.00  0.00    +0.000 C 
ATOM      8  O   UNL     1       1.433  11.079  20.668  0.00  0.00    +0.000 OA
ATOM      9  N   UNL     1      -0.214  10.716  19.113  0.00  0.00    +0.000 N 
ATOM     10  N   UNL     1      -1.171   9.822  18.687  0.00  0.00    +0.000 NA
ATOM     11  C   UNL     1      -1.974  10.483  17.912  0.00  0.00    +0.000 C 
ATOM     12  C   UNL     1      -1.591  11.904  17.651  0.00  0.00    +0.000 C 
ATOM     13  C   UNL     1      -0.587  12.107  18.788  0.00  0.00    +0.000 C 
BRANCH  11  14
ATOM     14  C   UNL     1      -3.158   9.868  17.234  0.00  0.00    +0.000 C 
ATOM     15  F   UNL     1      -2.806   9.260  16.072  0.00  0.00    +0.000 F 
ATOM     16  F   UNL     1      -3.719   8.905  18.014  0.00  0.00    +0.000 F 
ENDBRANCH  11  14
BRANCH  13  17
ATOM     17  C   UNL     1      -1.240  12.900  19.937  0.00  0.00    +0.000 C 
ATOM     18  F   UNL     1      -1.788  12.028  20.836  0.00  0.00    +0.000 F 
ATOM     19  F   UNL     1      -0.290  13.581  20.638  0.00  0.00    +0.000 F 
ENDBRANCH  13  17
BRANCH  13  20
ATOM     20  O   UNL     1       0.555  12.775  18.251  0.00  0.00    +0.000 OA
ATOM     21  H   UNL     1       0.301  13.077  17.363  0.00  0.00    +0.000 HD
ENDBRANCH  13  20
ENDBRANCH   4   7
BRANCH   1  22
ATOM     22  C   UNL     1       3.211   4.953  19.722  0.00  0.00    +0.000 C 
BRANCH  22  26
ATOM     23  C   UNL     1       7.789   6.188  18.858  0.00  0.00    +0.000 C 
ATOM     24  C   UNL     1       6.467   5.572  18.575  0.00  0.00    +0.000 A 
ATOM     25  N   UNL     1       5.526   5.569  19.526  0.00  0.00    +0.000 NA
ATOM     26  N   UNL     1       4.453   4.980  18.954  0.00  0.00    +0.000 N 
ATOM     27  C   UNL     1       4.655   4.683  17.620  0.00  0.00    +0.000 A 
ATOM     28  C   UNL     1       3.605   4.174  16.695  0.00  0.00    +0.000 C 
ATOM     29  C   UNL     1       5.996   4.974  17.383  0.00  0.00    +0.000 A 
BRANCH  29  30
ATOM     30  N   UNL     1       6.738   4.756  16.163  0.00  0.00    +0.000 N 
ATOM     31  O   UNL     1       7.406   5.703  15.729  0.00  0.00    +0.000 OA
ATOM     32  O   UNL     1       6.671   3.634  15.645  0.00  0.00    +0.000 OA
ENDBRANCH  29  30
ENDBRANCH  22  26
ENDBRANCH   1  22
TORSDOF 7
ENDMDL
MODEL 6
REMARK VINA RESULT:      -8.2      4.050      8.896
REMARK  Name = 
REMARK  9 active torsions:
REMARK  status: ('A' for Active; 'I' for Inactive)
REMARK    1  A    between atoms: C_1  and  C_2
REMARK    2  A    between atoms: N_4  and  C_5
REMARK    3  A    between atoms: C_5  and  C_6
REMARK    4  A    between atoms: C_9  and  C_10
REMARK    5  A    between atoms: C_14  and  C_15
REMARK    6  A    between atoms: C_19  and  O_20
REMARK    7  A    between atoms: C_19  and  C_21
REMARK    8  A    between atoms: C_26  and  C_27
REMARK    9  A    between atoms: C_28  and  N_29
REMARK                            x       y       z     vdW  Elec       q    Type
REMARK                         _______ _______ _______ _____ _____    ______ ____
ROOT
ATOM      1  C   UNL     1       2.387   5.894  19.209  0.00  0.00    +0.000 A 
ATOM      2  C   UNL     1       2.483   7.198  18.690  0.00  0.00    +0.000 A 
ATOM      3  C   UNL     1       2.000   8.309  19.416  0.00  0.00    +0.000 A 
ATOM      4  C   UNL     1       1.420   8.135  20.679  0.00  0.00    +0.000 A 
ATOM      5  C   UNL     1       1.349   6.832  21.193  0.00  0.00    +0.000 A 
ATOM      6  C   UNL     1       1.852   5.734  20.490  0.00  0.00    +0.000 A 
ENDROOT
BRANCH   4   7
ATOM      7  C   UNL     1       0.761   9.306  21.391  0.00  0.00    +0.000 C 
ATOM      8  O   UNL     1       1.040   9.546  22.560  0.00  0.00    +0.000 OA
ATOM      9  N   UNL     1      -0.046  10.151  20.632  0.00  0.00    +0.000 N 
ATOM     10  N   UNL     1      -0.724   9.671  19.534  0.00  0.00    +0.000 NA
ATOM     11  C   UNL     1      -1.355  10.681  19.019  0.00  0.00    +0.000 C 
ATOM     12  C   UNL     1      -1.096  12.001  19.672  0.00  0.00    +0.000 C 
ATOM     13  C   UNL     1      -0.485  11.515  20.989  0.00  0.00    +0.000 C 
BRANCH  11  14
ATOM     14  C   UNL     1      -2.214  10.582  17.798  0.00  0.00    +0.000 C 
ATOM     15  F   UNL     1      -1.509  10.130  16.729  0.00  0.00    +0.000 F 
ATOM     16  F   UNL     1      -3.228   9.696  17.988  0.00  0.00    +0.000 F 
ENDBRANCH  11  14
BRANCH  13  17
ATOM     17  C   UNL     1      -1.529  11.596  22.120  0.00  0.00    +0.000 C 
ATOM     18  F   UNL     1      -0.892  11.791  23.313  0.00  0.00    +0.000 F 
ATOM     19  F   UNL     1      -2.317  12.696  21.955  0.00  0.00    +0.000 F 
ENDBRANCH  13  17
BRANCH  13  20
ATOM     20  O   UNL     1       0.668  12.313  21.259  0.00  0.00    +0.000 OA
ATOM     21  H   UNL     1       0.893  12.159  22.191  0.00  0.00    +0.000 HD
ENDBRANCH  13  20
ENDBRANCH   4   7
BRANCH   1  22
ATOM     22  C   UNL     1       2.692   4.669  18.373  0.00  0.00    +0.000 C 
BRANCH  22  26
ATOM     23  C   UNL     1       5.405   3.964  14.453  0.00  0.00    +0.000 C 
ATOM     24  C   UNL     1       5.105   4.390  15.845  0.00  0.00    +0.000 A 
ATOM     25  N   UNL     1       3.845   4.338  16.292  0.00  0.00    +0.000 NA
ATOM     26  N   UNL     1       3.914   4.748  17.577  0.00  0.00    +0.000 N 
ATOM     27  C   UNL     1       5.210   4.979  17.996  0.00  0.00    +0.000 A 
ATOM     28  C   UNL     1       5.606   5.290  19.397  0.00  0.00    +0.000 C 
ATOM     29  C   UNL     1       5.990   4.844  16.850  0.00  0.00    +0.000 A 
BRANCH  29  30
ATOM     30  N   UNL     1       7.411   5.071  16.726  0.00  0.00    +0.000 N 
ATOM     31  O   UNL     1       7.771   6.121  16.179  0.00  0.00    +0.000 OA
ATOM     32  O   UNL     1       8.171   4.212  17.191  0.00  0.00    +0.000 OA
ENDBRANCH  29  30
ENDBRANCH  22  26
ENDBRANCH   1  22
TORSDOF 7
ENDMDL
MODEL 7
REMARK VINA RESULT:      -8.2      4.135      9.485
REMARK  Name = 
REMARK  9 active torsions:
REMARK  status: ('A' for Active; 'I' for Inactive)
REMARK    1  A    between atoms: C_1  and  C_2
REMARK    2  A    between atoms: N_4  and  C_5
REMARK    3  A    between atoms: C_5  and  C_6
REMARK    4  A    between atoms: C_9  and  C_10
REMARK    5  A    between atoms: C_14  and  C_15
REMARK    6  A    between atoms: C_19  and  O_20
REMARK    7  A    between atoms: C_19  and  C_21
REMARK    8  A    between atoms: C_26  and  C_27
REMARK    9  A    between atoms: C_28  and  N_29
REMARK                            x       y       z     vdW  Elec       q    Type
REMARK                         _______ _______ _______ _____ _____    ______ ____
ROOT
ATOM      1  C   UNL     1       2.528   7.528  18.381  0.00  0.00    +0.000 A 
ATOM      2  C   UNL     1       2.198   7.322  19.733  0.00  0.00    +0.000 A 
ATOM      3  C   UNL     1       1.526   8.315  20.480  0.00  0.00    +0.000 A 
ATOM      4  C   UNL     1       1.166   9.530  19.883  0.00  0.00    +0.000 A 
ATOM      5  C   UNL     1       1.484   9.714  18.530  0.00  0.00    +0.000 A 
ATOM      6  C   UNL     1       2.122   8.723  17.781  0.00  0.00    +0.000 A 
ENDROOT
BRANCH   4   7
ATOM      7  C   UNL     1       0.586  10.658  20.722  0.00  0.00    +0.000 C 
ATOM      8  O   UNL     1       1.169  11.030  21.734  0.00  0.00    +0.000 OA
ATOM      9  N   UNL     1      -0.534  11.322  20.225  0.00  0.00    +0.000 N 
ATOM     10  N   UNL     1      -1.434  10.666  19.415  0.00  0.00    +0.000 NA
ATOM     11  C   UNL     1      -2.339  11.537  19.087  0.00  0.00    +0.000 C 
ATOM     12  C   UNL     1      -2.097  12.929  19.576  0.00  0.00    +0.000 C 
ATOM     13  C   UNL     1      -1.046  12.640  20.651  0.00  0.00    +0.000 C 
BRANCH  11  14
ATOM     14  C   UNL     1      -3.505  11.223  18.204  0.00  0.00    +0.000 C 
ATOM     15  F   UNL     1      -3.390  11.831  16.994  0.00  0.00    +0.000 F 
ATOM     16  F   UNL     1      -3.580   9.888  17.954  0.00  0.00    +0.000 F 
ENDBRANCH  11  14
BRANCH  13  17
ATOM     17  C   UNL     1      -1.693  12.675  22.049  0.00  0.00    +0.000 C 
ATOM     18  F   UNL     1      -1.978  11.400  22.449  0.00  0.00    +0.000 F 
ATOM     19  F   UNL     1      -0.802  13.143  22.968  0.00  0.00    +0.000 F 
ENDBRANCH  13  17
BRANCH  13  20
ATOM     20  O   UNL     1      -0.002  13.604  20.513  0.00  0.00    +0.000 OA
ATOM     21  H   UNL     1       0.082  14.041  21.378  0.00  0.00    +0.000 HD
ENDBRANCH  13  20
ENDBRANCH   4   7
BRANCH   1  22
ATOM     22  C   UNL     1       3.431   6.583  17.619  0.00  0.00    +0.000 C 
BRANCH  22  26
ATOM     23  C   UNL     1       1.052   2.521  18.654  0.00  0.00    +0.000 C 
ATOM     24  C   UNL     1       2.238   3.401  18.481  0.00  0.00    +0.000 A 
ATOM     25  N   UNL     1       2.077   4.633  17.986  0.00  0.00    +0.000 NA
ATOM     26  N   UNL     1       3.314   5.175  17.989  0.00  0.00    +0.000 N 
ATOM     27  C   UNL     1       4.259   4.346  18.561  0.00  0.00    +0.000 A 
ATOM     28  C   UNL     1       5.669   4.733  18.841  0.00  0.00    +0.000 C 
ATOM     29  C   UNL     1       3.593   3.146  18.799  0.00  0.00    +0.000 A 
BRANCH  29  30
ATOM     30  N   UNL     1       4.155   1.918  19.308  0.00  0.00    +0.000 N 
ATOM     31  O   UNL     1       4.754   1.973  20.390  0.00  0.00    +0.000 OA
ATOM     32  O   UNL     1       3.985   0.890  18.640  0.00  0.00    +0.000 OA
ENDBRANCH  29  30
ENDBRANCH  22  26
ENDBRANCH   1  22
TORSDOF 7
ENDMDL
MODEL 8
REMARK VINA RESULT:      -8.2      4.148      8.745
REMARK  Name = 
REMARK  9 active torsions:
REMARK  status: ('A' for Active; 'I' for Inactive)
REMARK    1  A    between atoms: C_1  and  C_2
REMARK    2  A    between atoms: N_4  and  C_5
REMARK    3  A    between atoms: C_5  and  C_6
REMARK    4  A    between atoms: C_9  and  C_10
REMARK    5  A    between atoms: C_14  and  C_15
REMARK    6  A    between atoms: C_19  and  O_20
REMARK    7  A    between atoms: C_19  and  C_21
REMARK    8  A    between atoms: C_26  and  C_27
REMARK    9  A    between atoms: C_28  and  N_29
REMARK                            x       y       z     vdW  Elec       q    Type
REMARK                         _______ _______ _______ _____ _____    ______ ____
ROOT
ATOM      1  C   UNL     1       2.400   5.946  19.604  0.00  0.00    +0.000 A 
ATOM      2  C   UNL     1       1.647   6.170  20.770  0.00  0.00    +0.000 A 
ATOM      3  C   UNL     1       1.122   7.448  21.065  0.00  0.00    +0.000 A 
ATOM      4  C   UNL     1       1.336   8.522  20.192  0.00  0.00    +0.000 A 
ATOM      5  C   UNL     1       2.072   8.279  19.024  0.00  0.00    +0.000 A 
ATOM      6  C   UNL     1       2.567   7.010  18.714  0.00  0.00    +0.000 A 
ENDROOT
BRANCH   4   7
ATOM      7  C   UNL     1       0.908   9.928  20.583  0.00  0.00    +0.000 C 
ATOM      8  O   UNL     1       1.415  10.473  21.556  0.00  0.00    +0.000 OA
ATOM      9  N   UNL     1       0.039  10.600  19.725  0.00  0.00    +0.000 N 
ATOM     10  N   UNL     1      -0.864   9.900  18.956  0.00  0.00    +0.000 NA
ATOM     11  C   UNL     1      -1.503  10.780  18.246  0.00  0.00    +0.000 C 
ATOM     12  C   UNL     1      -1.031  12.190  18.395  0.00  0.00    +0.000 C 
ATOM     13  C   UNL     1      -0.225  12.052  19.688  0.00  0.00    +0.000 C 
BRANCH  11  14
ATOM     14  C   UNL     1      -2.578  10.426  17.268  0.00  0.00    +0.000 C 
ATOM     15  F   UNL     1      -3.359  11.500  16.979  0.00  0.00    +0.000 F 
ATOM     16  F   UNL     1      -2.045  10.014  16.087  0.00  0.00    +0.000 F 
ENDBRANCH  11  14
BRANCH  13  17
ATOM     17  C   UNL     1      -1.032  12.605  20.879  0.00  0.00    +0.000 C 
ATOM     18  F   UNL     1      -2.078  13.350  20.410  0.00  0.00    +0.000 F 
ATOM     19  F   UNL     1      -1.608  11.583  21.571  0.00  0.00    +0.000 F 
ENDBRANCH  13  17
BRANCH  13  20
ATOM     20  O   UNL     1       1.014  12.739  19.508  0.00  0.00    +0.000 OA
ATOM     21  H   UNL     1       0.900  13.616  19.912  0.00  0.00    +0.000 HD
ENDBRANCH  13  20
ENDBRANCH   4   7
BRANCH   1  22
ATOM     22  C   UNL     1       3.155   4.655  19.367  0.00  0.00    +0.000 C 
BRANCH  22  26
ATOM     23  C   UNL     1       7.785   5.965  19.634  0.00  0.00    +0.000 C 
ATOM     24  C   UNL     1       6.552   5.436  18.994  0.00  0.00    +0.000 A 
ATOM     25  N   UNL     1       5.450   5.261  19.732  0.00  0.00    +0.000 NA
ATOM     26  N   UNL     1       4.517   4.813  18.865  0.00  0.00    +0.000 N 
ATOM     27  C   UNL     1       4.971   4.779  17.561  0.00  0.00    +0.000 A 
ATOM     28  C   UNL     1       4.124   4.477  16.374  0.00  0.00    +0.000 C 
ATOM     29  C   UNL     1       6.326   5.090  17.641  0.00  0.00    +0.000 A 
BRANCH  29  30
ATOM     30  N   UNL     1       7.287   5.105  16.563  0.00  0.00    +0.000 N 
ATOM     31  O   UNL     1       7.459   6.178  15.971  0.00  0.00    +0.000 OA
ATOM     32  O   UNL     1       7.887   4.050  16.317  0.00  0.00    +0.000 OA
ENDBRANCH  29  30
ENDBRANCH  22  26
ENDBRANCH   1  22
TORSDOF 7
ENDMDL
MODEL 9
REMARK VINA RESULT:      -8.2      3.274      4.909
REMARK  Name = 
REMARK  9 active torsions:
REMARK  status: ('A' for Active; 'I' for Inactive)
REMARK    1  A    between atoms: C_1  and  C_2
REMARK    2  A    between atoms: N_4  and  C_5
REMARK    3  A    between atoms: C_5  and  C_6
REMARK    4  A    between atoms: C_9  and  C_10
REMARK    5  A    between atoms: C_14  and  C_15
REMARK    6  A    between atoms: C_19  and  O_20
REMARK    7  A    between atoms: C_19  and  C_21
REMARK    8  A    between atoms: C_26  and  C_27
REMARK    9  A    between atoms: C_28  and  N_29
REMARK                            x       y       z     vdW  Elec       q    Type
REMARK                         _______ _______ _______ _____ _____    ______ ____
ROOT
ATOM      1  C   UNL     1       1.089   9.782  19.061  0.00  0.00    +0.000 A 
ATOM      2  C   UNL     1       1.170   8.946  20.189  0.00  0.00    +0.000 A 
ATOM      3  C   UNL     1       1.768   7.669  20.110  0.00  0.00    +0.000 A 
ATOM      4  C   UNL     1       2.303   7.210  18.900  0.00  0.00    +0.000 A 
ATOM      5  C   UNL     1       2.233   8.061  17.788  0.00  0.00    +0.000 A 
ATOM      6  C   UNL     1       1.669   9.336  17.871  0.00  0.00    +0.000 A 
ENDROOT
BRANCH   4   7
ATOM      7  C   UNL     1       2.804   5.779  18.774  0.00  0.00    +0.000 C 
ATOM      8  O   UNL     1       2.074   4.846  19.084  0.00  0.00    +0.000 OA
ATOM      9  N   UNL     1       4.047   5.582  18.175  0.00  0.00    +0.000 N 
ATOM     10  N   UNL     1       5.027   6.545  18.264  0.00  0.00    +0.000 NA
ATOM     11  C   UNL     1       6.045   6.099  17.592  0.00  0.00    +0.000 C 
ATOM     12  C   UNL     1       5.828   4.799  16.887  0.00  0.00    +0.000 C 
ATOM     13  C   UNL     1       4.574   4.318  17.621  0.00  0.00    +0.000 C 
BRANCH  11  14
ATOM     14  C   UNL     1       7.326   6.854  17.438  0.00  0.00    +0.000 C 
ATOM     15  F   UNL     1       7.108   8.194  17.366  0.00  0.00    +0.000 F 
ATOM     16  F   UNL     1       8.140   6.657  18.510  0.00  0.00    +0.000 F 
ENDBRANCH  11  14
BRANCH  13  17
ATOM     17  C   UNL     1       4.948   3.247  18.664  0.00  0.00    +0.000 C 
ATOM     18  F   UNL     1       5.030   3.825  19.899  0.00  0.00    +0.000 F 
ATOM     19  F   UNL     1       3.950   2.325  18.770  0.00  0.00    +0.000 F 
ENDBRANCH  13  17
BRANCH  13  20
ATOM     20  O   UNL     1       3.655   3.827  16.645  0.00  0.00    +0.000 OA
ATOM     21  H   UNL     1       3.277   3.011  17.014  0.00  0.00    +0.000 HD
ENDBRANCH  13  20
ENDBRANCH   4   7
BRANCH   1  22
ATOM     22  C   UNL     1       0.269  11.054  19.057  0.00  0.00    +0.000 C 
BRANCH  22  26
ATOM     23  C   UNL     1      -2.973   9.709  15.755  0.00  0.00    +0.000 C 
ATOM     24  C   UNL     1      -2.483  10.357  16.999  0.00  0.00    +0.000 A 
ATOM     25  N   UNL     1      -1.206  10.200  17.364  0.00  0.00    +0.000 NA
ATOM     26  N   UNL     1      -1.072  10.929  18.493  0.00  0.00    +0.000 N 
ATOM     27  C   UNL     1      -2.219  11.628  18.816  0.00  0.00    +0.000 A 
ATOM     28  C   UNL     1      -2.322  12.629  19.913  0.00  0.00    +0.000 C 
ATOM     29  C   UNL     1      -3.179  11.190  17.906  0.00  0.00    +0.000 A 
BRANCH  29  30
ATOM     30  N   UNL     1      -4.577  11.549  17.867  0.00  0.00    +0.000 N 
ATOM     31  O   UNL     1      -4.982  12.142  16.860  0.00  0.00    +0.000 OA
ATOM     32  O   UNL     1      -5.279  11.222  18.833  0.00  0.00    +0.000 OA
ENDBRANCH  29  30
ENDBRANCH  22  26
ENDBRANCH   1  22
TORSDOF 7
ENDMDL
