MODEL 1
REMARK VINA RESULT:      -7.7      0.000      0.000
REMARK  Name = 
REMARK  7 active torsions:
REMARK  status: ('A' for Active; 'I' for Inactive)
REMARK    1  A    between atoms: C_1  and  O_2
REMARK    2  A    between atoms: O_2  and  C_3
REMARK    3  A    between atoms: C_5  and  N_6
REMARK    4  A    between atoms: C_23  and  O_24
REMARK    5  A    between atoms: O_24  and  C_25
REMARK    6  A    between atoms: C_26  and  O_27
REMARK    7  A    between atoms: O_27  and  C_28
REMARK                            x       y       z     vdW  Elec       q    Type
REMARK                         _______ _______ _______ _____ _____    ______ ____
ROOT
ATOM      1  N   UNL     1       1.742   8.840  17.647  0.00  0.00    +0.000 N 
ATOM      2  C   UNL     1       2.346   7.719  18.234  0.00  0.00    +0.000 A 
ATOM      3  N   UNL     1       3.511   7.317  17.682  0.00  0.00    +0.000 NA
ATOM      4  C   UNL     1       4.160   6.215  18.156  0.00  0.00    +0.000 A 
ATOM      5  N   UNL     1       5.286   5.723  17.514  0.00  0.00    +0.000 N 
ATOM      6  C   UNL     1       5.544   6.202  16.153  0.00  0.00    +0.000 C 
ATOM      7  C   UNL     1       6.471   5.181  15.467  0.00  0.00    +0.000 C 
ATOM      8  O   UNL     1       7.700   5.010  16.199  0.00  0.00    +0.000 OA
ATOM      9  C   UNL     1       7.432   4.573  17.545  0.00  0.00    +0.000 C 
ATOM     10  C   UNL     1       6.524   5.570  18.293  0.00  0.00    +0.000 C 
ATOM     11  C   UNL     1       3.539   5.507  19.205  0.00  0.00    +0.000 A 
ATOM     12  C   UNL     1       3.756   4.289  19.915  0.00  0.00    +0.000 A 
ATOM     13  C   UNL     1       2.703   4.112  20.789  0.00  0.00    +0.000 A 
ATOM     14  N   UNL     1       1.861   5.182  20.642  0.00  0.00    +0.000 N 
ATOM     15  C   UNL     1       2.346   6.020  19.675  0.00  0.00    +0.000 A 
ATOM     16  N   UNL     1       1.721   7.119  19.256  0.00  0.00    +0.000 NA
ATOM     17  H   UNL     1       2.415   9.231  16.997  0.00  0.00    +0.000 HD
ATOM     18  H   UNL     1       0.981   5.330  21.123  0.00  0.00    +0.000 HD
ENDROOT
BRANCH   1  21
ATOM     19  C   UNL     1      -1.170  10.890  18.801  0.00  0.00    +0.000 A 
ATOM     20  C   UNL     1      -0.375  10.021  18.032  0.00  0.00    +0.000 A 
ATOM     21  C   UNL     1       0.977   9.822  18.305  0.00  0.00    +0.000 A 
ATOM     22  C   UNL     1       1.543  10.556  19.343  0.00  0.00    +0.000 A 
ATOM     23  C   UNL     1       0.793  11.495  20.075  0.00  0.00    +0.000 A 
ATOM     24  C   UNL     1      -0.580  11.683  19.802  0.00  0.00    +0.000 A 
BRANCH  19  26
ATOM     25  C   UNL     1      -3.028  10.025  17.621  0.00  0.00    +0.000 C 
ATOM     26  O   UNL     1      -2.522  10.965  18.568  0.00  0.00    +0.000 OA
ENDBRANCH  19  26
BRANCH  23  27
ATOM     27  O   UNL     1       1.562  12.170  20.994  0.00  0.00    +0.000 OA
ATOM     28  C   UNL     1       2.255  13.328  20.548  0.00  0.00    +0.000 C 
ENDBRANCH  23  27
BRANCH  24  29
ATOM     29  O   UNL     1      -1.207  12.629  20.567  0.00  0.00    +0.000 OA
ATOM     30  C   UNL     1      -1.850  12.287  21.782  0.00  0.00    +0.000 C 
ENDBRANCH  24  29
ENDBRANCH   1  21
TORSDOF 4
ENDMDL
MODEL 2
REMARK VINA RESULT:      -7.7      1.218      2.273
REMARK  Name = 
REMARK  7 active torsions:
REMARK  status: ('A' for Active; 'I' for Inactive)
REMARK    1  A    between atoms: C_1  and  O_2
REMARK    2  A    between atoms: O_2  and  C_3
REMARK    3  A    between atoms: C_5  and  N_6
REMARK    4  A    between atoms: C_23  and  O_24
REMARK    5  A    between atoms: O_24  and  C_25
REMARK    6  A    between atoms: C_26  and  O_27
REMARK    7  A    between atoms: O_27  and  C_28
REMARK                            x       y       z     vdW  Elec       q    Type
REMARK                         _______ _______ _______ _____ _____    ______ ____
ROOT
ATOM      1  N   UNL     1       1.760   8.515  18.102  0.00  0.00    +0.000 N 
ATOM      2  C   UNL     1       2.422   7.342  18.493  0.00  0.00    +0.000 A 
ATOM      3  N   UNL     1       3.543   7.036  17.803  0.00  0.00    +0.000 NA
ATOM      4  C   UNL     1       4.239   5.897  18.080  0.00  0.00    +0.000 A 
ATOM      5  N   UNL     1       5.315   5.513  17.294  0.00  0.00    +0.000 N 
ATOM      6  C   UNL     1       5.456   6.164  15.988  0.00  0.00    +0.000 C 
ATOM      7  C   UNL     1       6.335   5.257  15.107  0.00  0.00    +0.000 C 
ATOM      8  O   UNL     1       7.621   5.021  15.712  0.00  0.00    +0.000 OA
ATOM      9  C   UNL     1       7.468   4.414  17.009  0.00  0.00    +0.000 C 
ATOM     10  C   UNL     1       6.613   5.289  17.947  0.00  0.00    +0.000 C 
ATOM     11  C   UNL     1       3.714   5.050  19.078  0.00  0.00    +0.000 A 
ATOM     12  C   UNL     1       4.001   3.758  19.608  0.00  0.00    +0.000 A 
ATOM     13  C   UNL     1       3.024   3.450  20.533  0.00  0.00    +0.000 A 
ATOM     14  N   UNL     1       2.162   4.513  20.591  0.00  0.00    +0.000 N 
ATOM     15  C   UNL     1       2.558   5.475  19.702  0.00  0.00    +0.000 A 
ATOM     16  N   UNL     1       1.888   6.605  19.477  0.00  0.00    +0.000 NA
ATOM     17  H   UNL     1       2.373   8.997  17.455  0.00  0.00    +0.000 HD
ATOM     18  H   UNL     1       1.323   4.581  21.155  0.00  0.00    +0.000 HD
ENDROOT
BRANCH   1  21
ATOM     19  C   UNL     1       0.563  10.333  21.147  0.00  0.00    +0.000 A 
ATOM     20  C   UNL     1       1.158   9.357  20.327  0.00  0.00    +0.000 A 
ATOM     21  C   UNL     1       1.041   9.390  18.938  0.00  0.00    +0.000 A 
ATOM     22  C   UNL     1       0.266  10.400  18.378  0.00  0.00    +0.000 A 
ATOM     23  C   UNL     1      -0.409  11.339  19.177  0.00  0.00    +0.000 A 
ATOM     24  C   UNL     1      -0.278  11.310  20.583  0.00  0.00    +0.000 A 
BRANCH  19  26
ATOM     25  C   UNL     1      -0.113   9.552  23.274  0.00  0.00    +0.000 C 
ATOM     26  O   UNL     1       0.802  10.326  22.500  0.00  0.00    +0.000 OA
ENDBRANCH  19  26
BRANCH  23  27
ATOM     27  O   UNL     1      -1.185  12.195  18.429  0.00  0.00    +0.000 OA
ATOM     28  C   UNL     1      -2.179  11.619  17.593  0.00  0.00    +0.000 C 
ENDBRANCH  23  27
BRANCH  24  29
ATOM     29  O   UNL     1      -0.987  12.263  21.261  0.00  0.00    +0.000 OA
ATOM     30  C   UNL     1      -0.368  13.445  21.735  0.00  0.00    +0.000 C 
ENDBRANCH  24  29
ENDBRANCH   1  21
TORSDOF 4
ENDMDL
MODEL 3
REMARK VINA RESULT:      -7.7      0.202      2.434
REMARK  Name = 
REMARK  7 active torsions:
REMARK  status: ('A' for Active; 'I' for Inactive)
REMARK    1  A    between atoms: C_1  and  O_2
REMARK    2  A    between atoms: O_2  and  C_3
REMARK    3  A    between atoms: C_5  and  N_6
REMARK    4  A    between atoms: C_23  and  O_24
REMARK    5  A    between atoms: O_24  and  C_25
REMARK    6  A    between atoms: C_26  and  O_27
REMARK    7  A    between atoms: O_27  and  C_28
REMARK                            x       y       z     vdW  Elec       q    Type
REMARK                         _______ _______ _______ _____ _____    ______ ____
ROOT
ATOM      1  N   UNL     1       1.717   8.833  17.806  0.00  0.00    +0.000 N 
ATOM      2  C   UNL     1       2.339   7.682  18.311  0.00  0.00    +0.000 A 
ATOM      3  N   UNL     1       3.476   7.302  17.688  0.00  0.00    +0.000 NA
ATOM      4  C   UNL     1       4.138   6.175  18.079  0.00  0.00    +0.000 A 
ATOM      5  N   UNL     1       5.231   5.710  17.364  0.00  0.00    +0.000 N 
ATOM      6  C   UNL     1       5.432   6.254  16.017  0.00  0.00    +0.000 C 
ATOM      7  C   UNL     1       6.321   5.264  15.242  0.00  0.00    +0.000 C 
ATOM      8  O   UNL     1       7.580   5.052  15.910  0.00  0.00    +0.000 OA
ATOM      9  C   UNL     1       7.369   4.552  17.243  0.00  0.00    +0.000 C 
ATOM     10  C   UNL     1       6.501   5.514  18.079  0.00  0.00    +0.000 C 
ATOM     11  C   UNL     1       3.559   5.420  19.119  0.00  0.00    +0.000 A 
ATOM     12  C   UNL     1       3.800   4.169  19.759  0.00  0.00    +0.000 A 
ATOM     13  C   UNL     1       2.786   3.953  20.669  0.00  0.00    +0.000 A 
ATOM     14  N   UNL     1       1.945   5.033  20.612  0.00  0.00    +0.000 N 
ATOM     15  C   UNL     1       2.392   5.915  19.666  0.00  0.00    +0.000 A 
ATOM     16  N   UNL     1       1.756   7.036  19.330  0.00  0.00    +0.000 NA
ATOM     17  H   UNL     1       2.362   9.252  17.147  0.00  0.00    +0.000 HD
ATOM     18  H   UNL     1       1.089   5.162  21.139  0.00  0.00    +0.000 HD
ENDROOT
BRANCH   1  21
ATOM     19  C   UNL     1       0.887  11.617  20.167  0.00  0.00    +0.000 A 
ATOM     20  C   UNL     1       1.576  10.561  19.543  0.00  0.00    +0.000 A 
ATOM     21  C   UNL     1       0.989   9.785  18.545  0.00  0.00    +0.000 A 
ATOM     22  C   UNL     1      -0.335  10.053  18.212  0.00  0.00    +0.000 A 
ATOM     23  C   UNL     1      -1.075  11.047  18.876  0.00  0.00    +0.000 A 
ATOM     24  C   UNL     1      -0.472  11.839  19.879  0.00  0.00    +0.000 A 
BRANCH  19  26
ATOM     25  C   UNL     1       2.321  13.472  20.476  0.00  0.00    +0.000 C 
ATOM     26  O   UNL     1       1.544  12.427  21.060  0.00  0.00    +0.000 OA
ENDBRANCH  19  26
BRANCH  23  27
ATOM     27  O   UNL     1      -2.384  11.089  18.454  0.00  0.00    +0.000 OA
ATOM     28  C   UNL     1      -2.810  10.095  17.532  0.00  0.00    +0.000 C 
ENDBRANCH  23  27
BRANCH  24  29
ATOM     29  O   UNL     1      -1.288  12.767  20.466  0.00  0.00    +0.000 OA
ATOM     30  C   UNL     1      -1.926  12.509  21.704  0.00  0.00    +0.000 C 
ENDBRANCH  24  29
ENDBRANCH   1  21
TORSDOF 4
ENDMDL
MODEL 4
REMARK VINA RESULT:      -7.7      1.070      1.255
REMARK  Name = 
REMARK  7 active torsions:
REMARK  status: ('A' for Active; 'I' for Inactive)
REMARK    1  A    between atoms: C_1  and  O_2
REMARK    2  A    between atoms: O_2  and  C_3
REMARK    3  A    between atoms: C_5  and  N_6
REMARK    4  A    between atoms: C_23  and  O_24
REMARK    5  A    between atoms: O_24  and  C_25
REMARK    6  A    between atoms: C_26  and  O_27
REMARK    7  A    between atoms: O_27  and  C_28
REMARK                            x       y       z     vdW  Elec       q    Type
REMARK                         _______ _______ _______ _____ _____    ______ ____
ROOT
ATOM      1  N   UNL     1       1.716   8.553  17.952  0.00  0.00    +0.000 N 
ATOM      2  C   UNL     1       2.361   7.395  18.409  0.00  0.00    +0.000 A 
ATOM      3  N   UNL     1       3.516   7.074  17.785  0.00  0.00    +0.000 NA
ATOM      4  C   UNL     1       4.201   5.947  18.129  0.00  0.00    +0.000 A 
ATOM      5  N   UNL     1       5.315   5.544  17.408  0.00  0.00    +0.000 N 
ATOM      6  C   UNL     1       5.518   6.158  16.092  0.00  0.00    +0.000 C 
ATOM      7  C   UNL     1       6.441   5.229  15.281  0.00  0.00    +0.000 C 
ATOM      8  O   UNL     1       7.697   5.017  15.955  0.00  0.00    +0.000 OA
ATOM      9  C   UNL     1       7.483   4.447  17.260  0.00  0.00    +0.000 C 
ATOM     10  C   UNL     1       6.581   5.346  18.129  0.00  0.00    +0.000 C 
ATOM     11  C   UNL     1       3.630   5.127  19.124  0.00  0.00    +0.000 A 
ATOM     12  C   UNL     1       3.894   3.853  19.705  0.00  0.00    +0.000 A 
ATOM     13  C   UNL     1       2.875   3.568  20.590  0.00  0.00    +0.000 A 
ATOM     14  N   UNL     1       2.007   4.628  20.575  0.00  0.00    +0.000 N 
ATOM     15  C   UNL     1       2.444   5.565  19.679  0.00  0.00    +0.000 A 
ATOM     16  N   UNL     1       1.783   6.685  19.388  0.00  0.00    +0.000 NA
ATOM     17  H   UNL     1       2.359   9.019  17.323  0.00  0.00    +0.000 HD
ATOM     18  H   UNL     1       1.142   4.709  21.095  0.00  0.00    +0.000 HD
ENDROOT
BRANCH   1  21
ATOM     19  C   UNL     1      -0.952  10.962  18.997  0.00  0.00    +0.000 A 
ATOM     20  C   UNL     1      -0.096  10.192  18.190  0.00  0.00    +0.000 A 
ATOM     21  C   UNL     1       0.955   9.449  18.727  0.00  0.00    +0.000 A 
ATOM     22  C   UNL     1       1.171   9.532  20.099  0.00  0.00    +0.000 A 
ATOM     23  C   UNL     1       0.384  10.360  20.919  0.00  0.00    +0.000 A 
ATOM     24  C   UNL     1      -0.687  11.101  20.372  0.00  0.00    +0.000 A 
BRANCH  19  26
ATOM     25  C   UNL     1      -2.337  11.201  17.095  0.00  0.00    +0.000 C 
ATOM     26  O   UNL     1      -2.042  11.583  18.438  0.00  0.00    +0.000 OA
ENDBRANCH  19  26
BRANCH  23  27
ATOM     27  O   UNL     1       0.819  10.361  22.224  0.00  0.00    +0.000 OA
ATOM     28  C   UNL     1       0.166   9.487  23.135  0.00  0.00    +0.000 C 
ENDBRANCH  23  27
BRANCH  24  29
ATOM     29  O   UNL     1      -1.377  11.881  21.259  0.00  0.00    +0.000 OA
ATOM     30  C   UNL     1      -1.064  13.251  21.435  0.00  0.00    +0.000 C 
ENDBRANCH  24  29
ENDBRANCH   1  21
TORSDOF 4
ENDMDL
MODEL 5
REMARK VINA RESULT:      -7.5      1.135      1.184
REMARK  Name = 
REMARK  7 active torsions:
REMARK  status: ('A' for Active; 'I' for Inactive)
REMARK    1  A    between atoms: C_1  and  O_2
REMARK    2  A    between atoms: O_2  and  C_3
REMARK    3  A    between atoms: C_5  and  N_6
REMARK    4  A    between atoms: C_23  and  O_24
REMARK    5  A    between atoms: O_24  and  C_25
REMARK    6  A    between atoms: C_26  and  O_27
REMARK    7  A    between atoms: O_27  and  C_28
REMARK                            x       y       z     vdW  Elec       q    Type
REMARK                         _______ _______ _______ _____ _____    ______ ____
ROOT
ATOM      1  N   UNL     1       2.011   9.269  17.474  0.00  0.00    +0.000 N 
ATOM      2  C   UNL     1       2.555   8.120  18.065  0.00  0.00    +0.000 A 
ATOM      3  N   UNL     1       3.619   7.577  17.435  0.00  0.00    +0.000 NA
ATOM      4  C   UNL     1       4.198   6.437  17.909  0.00  0.00    +0.000 A 
ATOM      5  N   UNL     1       5.207   5.804  17.198  0.00  0.00    +0.000 N 
ATOM      6  C   UNL     1       5.383   6.193  15.795  0.00  0.00    +0.000 C 
ATOM      7  C   UNL     1       6.139   5.054  15.086  0.00  0.00    +0.000 C 
ATOM      8  O   UNL     1       7.407   4.792  15.716  0.00  0.00    +0.000 OA
ATOM      9  C   UNL     1       7.225   4.445  17.102  0.00  0.00    +0.000 C 
ATOM     10  C   UNL     1       6.491   5.562  17.872  0.00  0.00    +0.000 C 
ATOM     11  C   UNL     1       3.612   5.844  19.046  0.00  0.00    +0.000 A 
ATOM     12  C   UNL     1       3.774   4.643  19.798  0.00  0.00    +0.000 A 
ATOM     13  C   UNL     1       2.795   4.613  20.769  0.00  0.00    +0.000 A 
ATOM     14  N   UNL     1       2.051   5.756  20.640  0.00  0.00    +0.000 N 
ATOM     15  C   UNL     1       2.524   6.496  19.590  0.00  0.00    +0.000 A 
ATOM     16  N   UNL     1       1.972   7.633  19.169  0.00  0.00    +0.000 NA
ATOM     17  H   UNL     1       2.655   9.560  16.747  0.00  0.00    +0.000 HD
ATOM     18  H   UNL     1       1.239   6.014  21.187  0.00  0.00    +0.000 HD
ENDROOT
BRANCH   1  21
ATOM     19  C   UNL     1      -0.510  11.379  19.265  0.00  0.00    +0.000 A 
ATOM     20  C   UNL     1       0.052  10.372  18.460  0.00  0.00    +0.000 A 
ATOM     21  C   UNL     1       1.410  10.352  18.143  0.00  0.00    +0.000 A 
ATOM     22  C   UNL     1       2.198  11.400  18.609  0.00  0.00    +0.000 A 
ATOM     23  C   UNL     1       1.649  12.464  19.345  0.00  0.00    +0.000 A 
ATOM     24  C   UNL     1       0.275  12.473  19.675  0.00  0.00    +0.000 A 
BRANCH  19  26
ATOM     25  C   UNL     1      -2.775  11.629  18.635  0.00  0.00    +0.000 C 
ATOM     26  O   UNL     1      -1.827  11.293  19.647  0.00  0.00    +0.000 OA
ENDBRANCH  19  26
BRANCH  23  27
ATOM     27  O   UNL     1       2.582  13.433  19.633  0.00  0.00    +0.000 OA
ATOM     28  C   UNL     1       2.964  14.310  18.583  0.00  0.00    +0.000 C 
ENDBRANCH  23  27
BRANCH  24  29
ATOM     29  O   UNL     1      -0.153  13.563  20.383  0.00  0.00    +0.000 OA
ATOM     30  C   UNL     1      -0.712  14.691  19.734  0.00  0.00    +0.000 C 
ENDBRANCH  24  29
ENDBRANCH   1  21
TORSDOF 4
ENDMDL
MODEL 6
REMARK VINA RESULT:      -7.4      1.438      1.729
REMARK  Name = 
REMARK  7 active torsions:
REMARK  status: ('A' for Active; 'I' for Inactive)
REMARK    1  A    between atoms: C_1  and  O_2
REMARK    2  A    between atoms: O_2  and  C_3
REMARK    3  A    between atoms: C_5  and  N_6
REMARK    4  A    between atoms: C_23  and  O_24
REMARK    5  A    between atoms: O_24  and  C_25
REMARK    6  A    between atoms: C_26  and  O_27
REMARK    7  A    between atoms: O_27  and  C_28
REMARK                            x       y       z     vdW  Elec       q    Type
REMARK                         _______ _______ _______ _____ _____    ______ ____
ROOT
ATOM      1  N   UNL     1       1.961   9.001  17.901  0.00  0.00    +0.000 N 
ATOM      2  C   UNL     1       2.566   7.817  18.344  0.00  0.00    +0.000 A 
ATOM      3  N   UNL     1       3.607   7.372  17.606  0.00  0.00    +0.000 NA
ATOM      4  C   UNL     1       4.241   6.209  17.930  0.00  0.00    +0.000 A 
ATOM      5  N   UNL     1       5.223   5.682  17.107  0.00  0.00    +0.000 N 
ATOM      6  C   UNL     1       5.310   6.213  15.743  0.00  0.00    +0.000 C 
ATOM      7  C   UNL     1       6.054   5.174  14.883  0.00  0.00    +0.000 C 
ATOM      8  O   UNL     1       7.362   4.890  15.414  0.00  0.00    +0.000 OA
ATOM      9  C   UNL     1       7.266   4.402  16.766  0.00  0.00    +0.000 C 
ATOM     10  C   UNL     1       6.549   5.413  17.683  0.00  0.00    +0.000 C 
ATOM     11  C   UNL     1       3.734   5.488  19.031  0.00  0.00    +0.000 A 
ATOM     12  C   UNL     1       3.970   4.224  19.649  0.00  0.00    +0.000 A 
ATOM     13  C   UNL     1       3.048   4.067  20.663  0.00  0.00    +0.000 A 
ATOM     14  N   UNL     1       2.268   5.194  20.690  0.00  0.00    +0.000 N 
ATOM     15  C   UNL     1       2.663   6.049  19.696  0.00  0.00    +0.000 A 
ATOM     16  N   UNL     1       2.059   7.204  19.423  0.00  0.00    +0.000 NA
ATOM     17  H   UNL     1       2.556   9.382  17.175  0.00  0.00    +0.000 HD
ATOM     18  H   UNL     1       1.482   5.371  21.303  0.00  0.00    +0.000 HD
ENDROOT
BRANCH   1  21
ATOM     19  C   UNL     1       0.041  10.663  20.652  0.00  0.00    +0.000 A 
ATOM     20  C   UNL     1       0.501   9.685  19.753  0.00  0.00    +0.000 A 
ATOM     21  C   UNL     1       1.371   9.994  18.708  0.00  0.00    +0.000 A 
ATOM     22  C   UNL     1       1.739  11.325  18.545  0.00  0.00    +0.000 A 
ATOM     23  C   UNL     1       1.230  12.337  19.378  0.00  0.00    +0.000 A 
ATOM     24  C   UNL     1       0.358  12.018  20.443  0.00  0.00    +0.000 A 
BRANCH  19  26
ATOM     25  C   UNL     1       0.004   9.712  22.817  0.00  0.00    +0.000 C 
ATOM     26  O   UNL     1      -0.721  10.292  21.734  0.00  0.00    +0.000 OA
ENDBRANCH  19  26
BRANCH  23  27
ATOM     27  O   UNL     1       1.652  13.588  18.992  0.00  0.00    +0.000 OA
ATOM     28  C   UNL     1       2.843  13.671  18.221  0.00  0.00    +0.000 C 
ENDBRANCH  23  27
BRANCH  24  29
ATOM     29  O   UNL     1      -0.085  13.081  21.180  0.00  0.00    +0.000 OA
ATOM     30  C   UNL     1      -1.338  13.689  20.919  0.00  0.00    +0.000 C 
ENDBRANCH  24  29
ENDBRANCH   1  21
TORSDOF 4
ENDMDL
MODEL 7
REMARK VINA RESULT:      -7.3      1.440      2.159
REMARK  Name = 
REMARK  7 active torsions:
REMARK  status: ('A' for Active; 'I' for Inactive)
REMARK    1  A    between atoms: C_1  and  O_2
REMARK    2  A    between atoms: O_2  and  C_3
REMARK    3  A    between atoms: C_5  and  N_6
REMARK    4  A    between atoms: C_23  and  O_24
REMARK    5  A    between atoms: O_24  and  C_25
REMARK    6  A    between atoms: C_26  and  O_27
REMARK    7  A    between atoms: O_27  and  C_28
REMARK                            x       y       z     vdW  Elec       q    Type
REMARK                         _______ _______ _______ _____ _____    ______ ____
ROOT
ATOM      1  N   UNL     1       1.983   9.169  17.842  0.00  0.00    +0.000 N 
ATOM      2  C   UNL     1       2.557   7.983  18.322  0.00  0.00    +0.000 A 
ATOM      3  N   UNL     1       3.592   7.493  17.604  0.00  0.00    +0.000 NA
ATOM      4  C   UNL     1       4.195   6.325  17.964  0.00  0.00    +0.000 A 
ATOM      5  N   UNL     1       5.170   5.751  17.162  0.00  0.00    +0.000 N 
ATOM      6  C   UNL     1       5.278   6.242  15.785  0.00  0.00    +0.000 C 
ATOM      7  C   UNL     1       6.001   5.162  14.959  0.00  0.00    +0.000 C 
ATOM      8  O   UNL     1       7.299   4.862  15.507  0.00  0.00    +0.000 OA
ATOM      9  C   UNL     1       7.184   4.414  16.871  0.00  0.00    +0.000 C 
ATOM     10  C   UNL     1       6.485   5.467  17.755  0.00  0.00    +0.000 C 
ATOM     11  C   UNL     1       3.665   5.647  19.081  0.00  0.00    +0.000 A 
ATOM     12  C   UNL     1       3.866   4.396  19.735  0.00  0.00    +0.000 A 
ATOM     13  C   UNL     1       2.935   4.289  20.747  0.00  0.00    +0.000 A 
ATOM     14  N   UNL     1       2.183   5.434  20.737  0.00  0.00    +0.000 N 
ATOM     15  C   UNL     1       2.603   6.252  19.723  0.00  0.00    +0.000 A 
ATOM     16  N   UNL     1       2.029   7.413  19.414  0.00  0.00    +0.000 NA
ATOM     17  H   UNL     1       2.591   9.515  17.109  0.00  0.00    +0.000 HD
ATOM     18  H   UNL     1       1.397   5.647  21.341  0.00  0.00    +0.000 HD
ENDROOT
BRANCH   1  21
ATOM     19  C   UNL     1       0.921  12.564  19.009  0.00  0.00    +0.000 A 
ATOM     20  C   UNL     1       1.618  11.546  18.332  0.00  0.00    +0.000 A 
ATOM     21  C   UNL     1       1.413  10.197  18.617  0.00  0.00    +0.000 A 
ATOM     22  C   UNL     1       0.525   9.879  19.640  0.00  0.00    +0.000 A 
ATOM     23  C   UNL     1      -0.122  10.877  20.390  0.00  0.00    +0.000 A 
ATOM     24  C   UNL     1       0.079  12.243  20.089  0.00  0.00    +0.000 A 
BRANCH  19  26
ATOM     25  C   UNL     1       2.387  14.401  18.751  0.00  0.00    +0.000 C 
ATOM     26  O   UNL     1       1.070  13.871  18.614  0.00  0.00    +0.000 OA
ENDBRANCH  19  26
BRANCH  23  27
ATOM     27  O   UNL     1      -0.887  10.350  21.405  0.00  0.00    +0.000 OA
ATOM     28  C   UNL     1      -0.212   9.901  22.571  0.00  0.00    +0.000 C 
ENDBRANCH  23  27
BRANCH  24  29
ATOM     29  O   UNL     1      -0.591  13.127  20.890  0.00  0.00    +0.000 OA
ATOM     30  C   UNL     1       0.066  13.817  21.938  0.00  0.00    +0.000 C 
ENDBRANCH  24  29
ENDBRANCH   1  21
TORSDOF 4
ENDMDL
MODEL 8
REMARK VINA RESULT:      -7.1      3.008      8.073
REMARK  Name = 
REMARK  7 active torsions:
REMARK  status: ('A' for Active; 'I' for Inactive)
REMARK    1  A    between atoms: C_1  and  O_2
REMARK    2  A    between atoms: O_2  and  C_3
REMARK    3  A    between atoms: C_5  and  N_6
REMARK    4  A    between atoms: C_23  and  O_24
REMARK    5  A    between atoms: O_24  and  C_25
REMARK    6  A    between atoms: C_26  and  O_27
REMARK    7  A    between atoms: O_27  and  C_28
REMARK                            x       y       z     vdW  Elec       q    Type
REMARK                         _______ _______ _______ _____ _____    ______ ____
ROOT
ATOM      1  N   UNL     1       2.579   7.775  19.109  0.00  0.00    +0.000 N 
ATOM      2  C   UNL     1       1.689   8.560  19.855  0.00  0.00    +0.000 A 
ATOM      3  N   UNL     1       1.425   9.790  19.360  0.00  0.00    +0.000 NA
ATOM      4  C   UNL     1       0.601  10.646  20.030  0.00  0.00    +0.000 A 
ATOM      5  N   UNL     1       0.429  11.951  19.595  0.00  0.00    +0.000 N 
ATOM      6  C   UNL     1       1.400  12.469  18.627  0.00  0.00    +0.000 C 
ATOM      7  C   UNL     1       1.352  14.007  18.694  0.00  0.00    +0.000 C 
ATOM      8  O   UNL     1       0.028  14.504  18.418  0.00  0.00    +0.000 OA
ATOM      9  C   UNL     1      -0.923  13.961  19.353  0.00  0.00    +0.000 C 
ATOM     10  C   UNL     1      -0.937  12.420  19.316  0.00  0.00    +0.000 C 
ATOM     11  C   UNL     1       0.082  10.203  21.263  0.00  0.00    +0.000 A 
ATOM     12  C   UNL     1      -0.684  10.754  22.332  0.00  0.00    +0.000 A 
ATOM     13  C   UNL     1      -0.779   9.802  23.325  0.00  0.00    +0.000 A 
ATOM     14  N   UNL     1      -0.106   8.689  22.894  0.00  0.00    +0.000 N 
ATOM     15  C   UNL     1       0.434   8.928  21.659  0.00  0.00    +0.000 A 
ATOM     16  N   UNL     1       1.200   8.061  20.999  0.00  0.00    +0.000 NA
ATOM     17  H   UNL     1       2.728   8.254  18.229  0.00  0.00    +0.000 HD
ATOM     18  H   UNL     1       0.032   7.828  23.410  0.00  0.00    +0.000 HD
ENDROOT
BRANCH   1  21
ATOM     19  C   UNL     1       1.702   4.175  19.641  0.00  0.00    +0.000 A 
ATOM     20  C   UNL     1       1.858   5.554  19.866  0.00  0.00    +0.000 A 
ATOM     21  C   UNL     1       2.552   6.373  18.977  0.00  0.00    +0.000 A 
ATOM     22  C   UNL     1       3.140   5.773  17.868  0.00  0.00    +0.000 A 
ATOM     23  C   UNL     1       3.072   4.384  17.660  0.00  0.00    +0.000 A 
ATOM     24  C   UNL     1       2.357   3.560  18.558  0.00  0.00    +0.000 A 
BRANCH  19  26
ATOM     25  C   UNL     1       1.586   2.869  21.609  0.00  0.00    +0.000 C 
ATOM     26  O   UNL     1       0.913   3.430  20.483  0.00  0.00    +0.000 OA
ENDBRANCH  19  26
BRANCH  23  27
ATOM     27  O   UNL     1       3.789   3.989  16.555  0.00  0.00    +0.000 OA
ATOM     28  C   UNL     1       5.206   4.077  16.625  0.00  0.00    +0.000 C 
ENDBRANCH  23  27
BRANCH  24  29
ATOM     29  O   UNL     1       2.367   2.223  18.265  0.00  0.00    +0.000 OA
ATOM     30  C   UNL     1       3.461   1.398  18.624  0.00  0.00    +0.000 C 
ENDBRANCH  24  29
ENDBRANCH   1  21
TORSDOF 4
ENDMDL
MODEL 9
REMARK VINA RESULT:      -6.9      2.999      8.103
REMARK  Name = 
REMARK  7 active torsions:
REMARK  status: ('A' for Active; 'I' for Inactive)
REMARK    1  A    between atoms: C_1  and  O_2
REMARK    2  A    between atoms: O_2  and  C_3
REMARK    3  A    between atoms: C_5  and  N_6
REMARK    4  A    between atoms: C_23  and  O_24
REMARK    5  A    between atoms: O_24  and  C_25
REMARK    6  A    between atoms: C_26  and  O_27
REMARK    7  A    between atoms: O_27  and  C_28
REMARK                            x       y       z     vdW  Elec       q    Type
REMARK                         _______ _______ _______ _____ _____    ______ ____
ROOT
ATOM      1  N   UNL     1       2.511   7.865  19.050  0.00  0.00    +0.000 N 
ATOM      2  C   UNL     1       1.637   8.656  19.809  0.00  0.00    +0.000 A 
ATOM      3  N   UNL     1       1.419   9.907  19.348  0.00  0.00    +0.000 NA
ATOM      4  C   UNL     1       0.614  10.769  20.034  0.00  0.00    +0.000 A 
ATOM      5  N   UNL     1       0.488  12.091  19.637  0.00  0.00    +0.000 N 
ATOM      6  C   UNL     1       1.488  12.606  18.696  0.00  0.00    +0.000 C 
ATOM      7  C   UNL     1       1.487  14.142  18.808  0.00  0.00    +0.000 C 
ATOM      8  O   UNL     1       0.183  14.690  18.533  0.00  0.00    +0.000 OA
ATOM      9  C   UNL     1      -0.796  14.150  19.440  0.00  0.00    +0.000 C 
ATOM     10  C   UNL     1      -0.858  12.612  19.357  0.00  0.00    +0.000 C 
ATOM     11  C   UNL     1       0.066  10.306  21.248  0.00  0.00    +0.000 A 
ATOM     12  C   UNL     1      -0.695  10.850  22.323  0.00  0.00    +0.000 A 
ATOM     13  C   UNL     1      -0.832   9.872  23.287  0.00  0.00    +0.000 A 
ATOM     14  N   UNL     1      -0.189   8.751  22.830  0.00  0.00    +0.000 N 
ATOM     15  C   UNL     1       0.372   9.009  21.609  0.00  0.00    +0.000 A 
ATOM     16  N   UNL     1       1.119   8.139  20.931  0.00  0.00    +0.000 NA
ATOM     17  H   UNL     1       2.686   8.365  18.186  0.00  0.00    +0.000 HD
ATOM     18  H   UNL     1      -0.085   7.872  23.321  0.00  0.00    +0.000 HD
ENDROOT
BRANCH   1  21
ATOM     19  C   UNL     1       3.058   4.428  17.672  0.00  0.00    +0.000 A 
ATOM     20  C   UNL     1       2.991   5.829  17.765  0.00  0.00    +0.000 A 
ATOM     21  C   UNL     1       2.441   6.470  18.875  0.00  0.00    +0.000 A 
ATOM     22  C   UNL     1       1.906   5.673  19.882  0.00  0.00    +0.000 A 
ATOM     23  C   UNL     1       1.883   4.271  19.779  0.00  0.00    +0.000 A 
ATOM     24  C   UNL     1       2.453   3.626  18.658  0.00  0.00    +0.000 A 
BRANCH  19  26
ATOM     25  C   UNL     1       5.029   4.335  16.369  0.00  0.00    +0.000 C 
ATOM     26  O   UNL     1       3.712   3.844  16.615  0.00  0.00    +0.000 OA
ENDBRANCH  19  26
BRANCH  23  27
ATOM     27  O   UNL     1       1.235   3.683  20.839  0.00  0.00    +0.000 OA
ATOM     28  C   UNL     1       2.036   3.126  21.873  0.00  0.00    +0.000 C 
ENDBRANCH  23  27
BRANCH  24  29
ATOM     29  O   UNL     1       2.364   2.261  18.657  0.00  0.00    +0.000 OA
ATOM     30  C   UNL     1       3.513   1.448  18.816  0.00  0.00    +0.000 C 
ENDBRANCH  24  29
ENDBRANCH   1  21
TORSDOF 4
ENDMDL
