MODEL 1
REMARK VINA RESULT:      -7.8      0.000      0.000
REMARK  Name = 
REMARK  6 active torsions:
REMARK  status: ('A' for Active; 'I' for Inactive)
REMARK    1  A    between atoms: C_5  and  N_6
REMARK    2  A    between atoms: N_6  and  C_7
REMARK    3  A    between atoms: C_7  and  C_8
REMARK    4  A    between atoms: N_15  and  C_16
REMARK    5  A    between atoms: C_16  and  C_17
REMARK    6  A    between atoms: C_17  and  C_18
REMARK                            x       y       z     vdW  Elec       q    Type
REMARK                         _______ _______ _______ _____ _____    ______ ____
ROOT
ATOM      1  O   UNL     1       7.639   5.979  15.705  0.00  0.00    +0.000 OA
ATOM      2  C   UNL     1       7.042   5.513  16.659  0.00  0.00    +0.000 C 
ATOM      3  C   UNL     1       6.113   4.374  16.613  0.00  0.00    +0.000 C 
ATOM      4 CL   UNL     1       5.889   3.411  15.238  0.00  0.00    +0.000 Cl
ATOM      5  C   UNL     1       5.555   4.212  17.812  0.00  0.00    +0.000 C 
ATOM      6  C   UNL     1       6.075   5.337  18.653  0.00  0.00    +0.000 C 
ATOM      7  O   UNL     1       5.626   5.642  19.744  0.00  0.00    +0.000 OA
ATOM      8  N   UNL     1       7.083   5.930  17.954  0.00  0.00    +0.000 N 
ENDROOT
BRANCH   5   9
ATOM      9  N   UNL     1       4.766   3.202  18.336  0.00  0.00    +0.000 N 
ATOM     10  H   UNL     1       5.273   2.314  18.363  0.00  0.00    +0.000 HD
BRANCH   9  11
ATOM     11  C   UNL     1       3.428   2.918  17.801  0.00  0.00    +0.000 C 
BRANCH  11  12
ATOM     12  C   UNL     1       2.365   3.014  18.902  0.00  0.00    +0.000 C 
ATOM     13  C   UNL     1       1.760   4.397  19.071  0.00  0.00    +0.000 C 
ATOM     14  C   UNL     1       1.234   4.330  20.481  0.00  0.00    +0.000 C 
ATOM     15  C   UNL     1       2.300   3.502  21.181  0.00  0.00    +0.000 C 
ATOM     16  O   UNL     1       2.900   2.649  20.191  0.00  0.00    +0.000 OA
ENDBRANCH  11  12
ENDBRANCH   9  11
ENDBRANCH   5   9
BRANCH   8  17
ATOM     17  C   UNL     1       7.928   7.024  18.425  0.00  0.00    +0.000 C 
BRANCH  17  18
ATOM     18  C   UNL     1       7.805   8.287  17.561  0.00  0.00    +0.000 C 
BRANCH  18  19
ATOM     19  C   UNL     1       8.396   9.533  18.173  0.00  0.00    +0.000 A 
ATOM     20  C   UNL     1       9.070   9.453  19.400  0.00  0.00    +0.000 A 
ATOM     21  C   UNL     1       9.683  10.579  19.952  0.00  0.00    +0.000 A 
ATOM     22  C   UNL     1       9.629  11.799  19.282  0.00  0.00    +0.000 A 
ATOM     23  C   UNL     1       8.960  11.892  18.063  0.00  0.00    +0.000 A 
ATOM     24  C   UNL     1       8.349  10.765  17.507  0.00  0.00    +0.000 A 
ENDBRANCH  18  19
ENDBRANCH  17  18
ENDBRANCH   8  17
TORSDOF 6
ENDMDL
MODEL 2
REMARK VINA RESULT:      -7.7      1.739      2.325
REMARK  Name = 
REMARK  6 active torsions:
REMARK  status: ('A' for Active; 'I' for Inactive)
REMARK    1  A    between atoms: C_5  and  N_6
REMARK    2  A    between atoms: N_6  and  C_7
REMARK    3  A    between atoms: C_7  and  C_8
REMARK    4  A    between atoms: N_15  and  C_16
REMARK    5  A    between atoms: C_16  and  C_17
REMARK    6  A    between atoms: C_17  and  C_18
REMARK                            x       y       z     vdW  Elec       q    Type
REMARK                         _______ _______ _______ _____ _____    ______ ____
ROOT
ATOM      1  O   UNL     1       7.695   5.337  20.153  0.00  0.00    +0.000 OA
ATOM      2  C   UNL     1       6.958   5.667  19.242  0.00  0.00    +0.000 C 
ATOM      3  C   UNL     1       5.680   5.024  18.901  0.00  0.00    +0.000 C 
ATOM      4 CL   UNL     1       4.947   3.839  19.864  0.00  0.00    +0.000 Cl
ATOM      5  C   UNL     1       5.200   5.564  17.781  0.00  0.00    +0.000 C 
ATOM      6  C   UNL     1       6.242   6.539  17.327  0.00  0.00    +0.000 C 
ATOM      7  O   UNL     1       6.254   7.070  16.229  0.00  0.00    +0.000 OA
ATOM      8  N   UNL     1       7.141   6.672  18.343  0.00  0.00    +0.000 N 
ENDROOT
BRANCH   5   9
ATOM      9  N   UNL     1       3.975   5.444  17.148  0.00  0.00    +0.000 N 
ATOM     10  H   UNL     1       3.923   6.048  16.324  0.00  0.00    +0.000 HD
BRANCH   9  11
ATOM     11  C   UNL     1       2.713   5.607  17.881  0.00  0.00    +0.000 C 
BRANCH  11  12
ATOM     12  C   UNL     1       1.878   4.321  17.832  0.00  0.00    +0.000 C 
ATOM     13  C   UNL     1       1.315   3.888  19.173  0.00  0.00    +0.000 C 
ATOM     14  C   UNL     1       1.067   2.420  18.941  0.00  0.00    +0.000 C 
ATOM     15  C   UNL     1       2.248   2.031  18.066  0.00  0.00    +0.000 C 
ATOM     16  O   UNL     1       2.650   3.205  17.341  0.00  0.00    +0.000 OA
ENDBRANCH  11  12
ENDBRANCH   9  11
ENDBRANCH   5   9
BRANCH   8  17
ATOM     17  C   UNL     1       8.284   7.580  18.367  0.00  0.00    +0.000 C 
BRANCH  17  18
ATOM     18  C   UNL     1       7.980   8.938  17.719  0.00  0.00    +0.000 C 
BRANCH  18  19
ATOM     19  C   UNL     1       8.643  10.119  18.384  0.00  0.00    +0.000 A 
ATOM     20  C   UNL     1       9.238   9.965  19.644  0.00  0.00    +0.000 A 
ATOM     21  C   UNL     1       9.916  11.025  20.248  0.00  0.00    +0.000 A 
ATOM     22  C   UNL     1      10.007  12.252  19.597  0.00  0.00    +0.000 A 
ATOM     23  C   UNL     1       9.418  12.420  18.345  0.00  0.00    +0.000 A 
ATOM     24  C   UNL     1       8.742  11.358  17.738  0.00  0.00    +0.000 A 
ENDBRANCH  18  19
ENDBRANCH  17  18
ENDBRANCH   8  17
TORSDOF 6
ENDMDL
MODEL 3
REMARK VINA RESULT:      -7.7      3.105      4.986
REMARK  Name = 
REMARK  6 active torsions:
REMARK  status: ('A' for Active; 'I' for Inactive)
REMARK    1  A    between atoms: C_5  and  N_6
REMARK    2  A    between atoms: N_6  and  C_7
REMARK    3  A    between atoms: C_7  and  C_8
REMARK    4  A    between atoms: N_15  and  C_16
REMARK    5  A    between atoms: C_16  and  C_17
REMARK    6  A    between atoms: C_17  and  C_18
REMARK                            x       y       z     vdW  Elec       q    Type
REMARK                         _______ _______ _______ _____ _____    ______ ____
ROOT
ATOM      1  O   UNL     1       3.695   1.980  17.699  0.00  0.00    +0.000 OA
ATOM      2  C   UNL     1       3.643   3.135  18.081  0.00  0.00    +0.000 C 
ATOM      3  C   UNL     1       3.095   3.586  19.368  0.00  0.00    +0.000 C 
ATOM      4 CL   UNL     1       2.628   2.527  20.604  0.00  0.00    +0.000 Cl
ATOM      5  C   UNL     1       3.092   4.918  19.403  0.00  0.00    +0.000 C 
ATOM      6  C   UNL     1       3.579   5.356  18.056  0.00  0.00    +0.000 C 
ATOM      7  O   UNL     1       3.511   6.501  17.641  0.00  0.00    +0.000 OA
ATOM      8  N   UNL     1       4.059   4.250  17.421  0.00  0.00    +0.000 N 
ENDROOT
BRANCH   5   9
ATOM      9  N   UNL     1       2.849   5.816  20.429  0.00  0.00    +0.000 N 
ATOM     10  H   UNL     1       3.079   5.409  21.338  0.00  0.00    +0.000 HD
BRANCH   9  11
ATOM     11  C   UNL     1       1.549   6.484  20.572  0.00  0.00    +0.000 C 
BRANCH  11  12
ATOM     12  C   UNL     1       1.720   8.005  20.663  0.00  0.00    +0.000 C 
ATOM     13  C   UNL     1       0.742   8.691  21.600  0.00  0.00    +0.000 C 
ATOM     14  C   UNL     1       0.758  10.104  21.079  0.00  0.00    +0.000 C 
ATOM     15  C   UNL     1       0.877   9.890  19.579  0.00  0.00    +0.000 C 
ATOM     16  O   UNL     1       1.553   8.637  19.376  0.00  0.00    +0.000 OA
ENDBRANCH  11  12
ENDBRANCH   9  11
ENDBRANCH   5   9
BRANCH   8  17
ATOM     17  C   UNL     1       4.704   4.223  16.111  0.00  0.00    +0.000 C 
BRANCH  17  18
ATOM     18  C   UNL     1       6.229   4.076  16.200  0.00  0.00    +0.000 C 
BRANCH  18  19
ATOM     19  C   UNL     1       6.918   5.125  17.040  0.00  0.00    +0.000 A 
ATOM     20  C   UNL     1       6.972   6.451  16.589  0.00  0.00    +0.000 A 
ATOM     21  C   UNL     1       7.543   7.451  17.379  0.00  0.00    +0.000 A 
ATOM     22  C   UNL     1       8.066   7.133  18.630  0.00  0.00    +0.000 A 
ATOM     23  C   UNL     1       8.020   5.818  19.089  0.00  0.00    +0.000 A 
ATOM     24  C   UNL     1       7.446   4.818  18.301  0.00  0.00    +0.000 A 
ENDBRANCH  18  19
ENDBRANCH  17  18
ENDBRANCH   8  17
TORSDOF 6
ENDMDL
MODEL 4
REMARK VINA RESULT:      -7.7      3.624      4.739
REMARK  Name = 
REMARK  6 active torsions:
REMARK  status: ('A' for Active; 'I' for Inactive)
REMARK    1  A    between atoms: C_5  and  N_6
REMARK    2  A    between atoms: N_6  and  C_7
REMARK    3  A    between atoms: C_7  and  C_8
REMARK    4  A    between atoms: N_15  and  C_16
REMARK    5  A    between atoms: C_16  and  C_17
REMARK    6  A    between atoms: C_17  and  C_18
REMARK                            x       y       z     vdW  Elec       q    Type
REMARK                         _______ _______ _______ _____ _____    ______ ____
ROOT
ATOM      1  O   UNL     1       5.493   6.769  15.558  0.00  0.00    +0.000 OA
ATOM      2  C   UNL     1       4.963   6.017  16.356  0.00  0.00    +0.000 C 
ATOM      3  C   UNL     1       5.020   4.548  16.313  0.00  0.00    +0.000 C 
ATOM      4 CL   UNL     1       6.009   3.685  15.244  0.00  0.00    +0.000 Cl
ATOM      5  C   UNL     1       4.233   4.049  17.267  0.00  0.00    +0.000 C 
ATOM      6  C   UNL     1       3.574   5.234  17.904  0.00  0.00    +0.000 C 
ATOM      7  O   UNL     1       2.630   5.162  18.672  0.00  0.00    +0.000 OA
ATOM      8  N   UNL     1       4.206   6.347  17.437  0.00  0.00    +0.000 N 
ENDROOT
BRANCH   5   9
ATOM      9  N   UNL     1       4.073   2.764  17.754  0.00  0.00    +0.000 N 
ATOM     10  H   UNL     1       4.707   2.110  17.290  0.00  0.00    +0.000 HD
BRANCH   9  11
ATOM     11  C   UNL     1       2.753   2.121  17.804  0.00  0.00    +0.000 C 
BRANCH  11  12
ATOM     12  C   UNL     1       2.302   1.904  19.253  0.00  0.00    +0.000 C 
ATOM     13  C   UNL     1       1.046   2.665  19.639  0.00  0.00    +0.000 C 
ATOM     14  C   UNL     1       1.172   2.720  21.139  0.00  0.00    +0.000 C 
ATOM     15  C   UNL     1       2.669   2.901  21.328  0.00  0.00    +0.000 C 
ATOM     16  O   UNL     1       3.320   2.306  20.193  0.00  0.00    +0.000 OA
ENDBRANCH  11  12
ENDBRANCH   9  11
ENDBRANCH   5   9
BRANCH   8  17
ATOM     17  C   UNL     1       3.942   7.722  17.851  0.00  0.00    +0.000 C 
BRANCH  17  18
ATOM     18  C   UNL     1       2.572   8.233  17.384  0.00  0.00    +0.000 C 
BRANCH  18  19
ATOM     19  C   UNL     1       1.668   8.720  18.490  0.00  0.00    +0.000 A 
ATOM     20  C   UNL     1       1.847   8.244  19.796  0.00  0.00    +0.000 A 
ATOM     21  C   UNL     1       1.068   8.731  20.847  0.00  0.00    +0.000 A 
ATOM     22  C   UNL     1       0.100   9.702  20.602  0.00  0.00    +0.000 A 
ATOM     23  C   UNL     1      -0.090  10.182  19.308  0.00  0.00    +0.000 A 
ATOM     24  C   UNL     1       0.692   9.698  18.255  0.00  0.00    +0.000 A 
ENDBRANCH  18  19
ENDBRANCH  17  18
ENDBRANCH   8  17
TORSDOF 6
ENDMDL
MODEL 5
REMARK VINA RESULT:      -7.7      2.111      7.893
REMARK  Name = 
REMARK  6 active torsions:
REMARK  status: ('A' for Active; 'I' for Inactive)
REMARK    1  A    between atoms: C_5  and  N_6
REMARK    2  A    between atoms: N_6  and  C_7
REMARK    3  A    between atoms: C_7  and  C_8
REMARK    4  A    between atoms: N_15  and  C_16
REMARK    5  A    between atoms: C_16  and  C_17
REMARK    6  A    between atoms: C_17  and  C_18
REMARK                            x       y       z     vdW  Elec       q    Type
REMARK                         _______ _______ _______ _____ _____    ______ ____
ROOT
ATOM      1  O   UNL     1       5.887   3.809  19.220  0.00  0.00    +0.000 OA
ATOM      2  C   UNL     1       6.093   4.715  18.434  0.00  0.00    +0.000 C 
ATOM      3  C   UNL     1       7.093   5.780  18.599  0.00  0.00    +0.000 C 
ATOM      4 CL   UNL     1       8.252   5.785  19.834  0.00  0.00    +0.000 Cl
ATOM      5  C   UNL     1       6.964   6.664  17.610  0.00  0.00    +0.000 C 
ATOM      6  C   UNL     1       5.781   6.205  16.814  0.00  0.00    +0.000 C 
ATOM      7  O   UNL     1       5.229   6.874  15.957  0.00  0.00    +0.000 OA
ATOM      8  N   UNL     1       5.458   4.957  17.254  0.00  0.00    +0.000 N 
ENDROOT
BRANCH   5   9
ATOM      9  N   UNL     1       7.754   7.729  17.212  0.00  0.00    +0.000 N 
ATOM     10  H   UNL     1       8.739   7.558  17.424  0.00  0.00    +0.000 HD
BRANCH   9  11
ATOM     11  C   UNL     1       7.455   9.104  17.633  0.00  0.00    +0.000 C 
BRANCH  11  12
ATOM     12  C   UNL     1       8.738   9.853  18.013  0.00  0.00    +0.000 C 
ATOM     13  C   UNL     1       9.075   9.808  19.493  0.00  0.00    +0.000 C 
ATOM     14  C   UNL     1       9.970  11.011  19.639  0.00  0.00    +0.000 C 
ATOM     15  C   UNL     1       9.326  12.006  18.689  0.00  0.00    +0.000 C 
ATOM     16  O   UNL     1       8.661  11.250  17.662  0.00  0.00    +0.000 OA
ENDBRANCH  11  12
ENDBRANCH   9  11
ENDBRANCH   5   9
BRANCH   8  17
ATOM     17  C   UNL     1       4.413   4.095  16.707  0.00  0.00    +0.000 C 
BRANCH  17  18
ATOM     18  C   UNL     1       2.999   4.571  17.065  0.00  0.00    +0.000 C 
BRANCH  18  19
ATOM     19  C   UNL     1       2.433   3.976  18.331  0.00  0.00    +0.000 A 
ATOM     20  C   UNL     1       1.836   4.810  19.287  0.00  0.00    +0.000 A 
ATOM     21  C   UNL     1       1.245   4.275  20.432  0.00  0.00    +0.000 A 
ATOM     22  C   UNL     1       1.243   2.898  20.635  0.00  0.00    +0.000 A 
ATOM     23  C   UNL     1       1.834   2.056  19.693  0.00  0.00    +0.000 A 
ATOM     24  C   UNL     1       2.423   2.591  18.544  0.00  0.00    +0.000 A 
ENDBRANCH  18  19
ENDBRANCH  17  18
ENDBRANCH   8  17
TORSDOF 6
ENDMDL
MODEL 6
REMARK VINA RESULT:      -7.5      1.220      1.340
REMARK  Name = 
REMARK  6 active torsions:
REMARK  status: ('A' for Active; 'I' for Inactive)
REMARK    1  A    between atoms: C_5  and  N_6
REMARK    2  A    between atoms: N_6  and  C_7
REMARK    3  A    between atoms: C_7  and  C_8
REMARK    4  A    between atoms: N_15  and  C_16
REMARK    5  A    between atoms: C_16  and  C_17
REMARK    6  A    between atoms: C_17  and  C_18
REMARK                            x       y       z     vdW  Elec       q    Type
REMARK                         _______ _______ _______ _____ _____    ______ ____
ROOT
ATOM      1  O   UNL     1       6.248   7.289  16.368  0.00  0.00    +0.000 OA
ATOM      2  C   UNL     1       6.386   6.448  17.238  0.00  0.00    +0.000 C 
ATOM      3  C   UNL     1       5.600   5.212  17.363  0.00  0.00    +0.000 C 
ATOM      4 CL   UNL     1       4.505   4.681  16.186  0.00  0.00    +0.000 Cl
ATOM      5  C   UNL     1       5.938   4.587  18.491  0.00  0.00    +0.000 C 
ATOM      6  C   UNL     1       6.922   5.489  19.170  0.00  0.00    +0.000 C 
ATOM      7  O   UNL     1       7.294   5.355  20.323  0.00  0.00    +0.000 OA
ATOM      8  N   UNL     1       7.268   6.456  18.274  0.00  0.00    +0.000 N 
ENDROOT
BRANCH   5   9
ATOM      9  N   UNL     1       5.630   3.329  18.979  0.00  0.00    +0.000 N 
ATOM     10  H   UNL     1       5.485   2.662  18.218  0.00  0.00    +0.000 HD
BRANCH   9  11
ATOM     11  C   UNL     1       4.542   3.125  19.944  0.00  0.00    +0.000 C 
BRANCH  11  12
ATOM     12  C   UNL     1       3.176   3.372  19.292  0.00  0.00    +0.000 C 
ATOM     13  C   UNL     1       2.124   3.931  20.234  0.00  0.00    +0.000 C 
ATOM     14  C   UNL     1       0.849   3.546  19.530  0.00  0.00    +0.000 C 
ATOM     15  C   UNL     1       1.199   2.183  18.956  0.00  0.00    +0.000 C 
ATOM     16  O   UNL     1       2.621   2.159  18.744  0.00  0.00    +0.000 OA
ENDBRANCH  11  12
ENDBRANCH   9  11
ENDBRANCH   5   9
BRANCH   8  17
ATOM     17  C   UNL     1       8.261   7.506  18.483  0.00  0.00    +0.000 C 
BRANCH  17  18
ATOM     18  C   UNL     1       7.934   8.797  17.720  0.00  0.00    +0.000 C 
BRANCH  18  19
ATOM     19  C   UNL     1       8.578  10.042  18.278  0.00  0.00    +0.000 A 
ATOM     20  C   UNL     1       9.336   9.967  19.455  0.00  0.00    +0.000 A 
ATOM     21  C   UNL     1       9.997  11.091  19.952  0.00  0.00    +0.000 A 
ATOM     22  C   UNL     1       9.909  12.305  19.275  0.00  0.00    +0.000 A 
ATOM     23  C   UNL     1       9.158  12.394  18.104  0.00  0.00    +0.000 A 
ATOM     24  C   UNL     1       8.498  11.268  17.604  0.00  0.00    +0.000 A 
ENDBRANCH  18  19
ENDBRANCH  17  18
ENDBRANCH   8  17
TORSDOF 6
ENDMDL
MODEL 7
REMARK VINA RESULT:      -7.5      3.653      7.292
REMARK  Name = 
REMARK  6 active torsions:
REMARK  status: ('A' for Active; 'I' for Inactive)
REMARK    1  A    between atoms: C_5  and  N_6
REMARK    2  A    between atoms: N_6  and  C_7
REMARK    3  A    between atoms: C_7  and  C_8
REMARK    4  A    between atoms: N_15  and  C_16
REMARK    5  A    between atoms: C_16  and  C_17
REMARK    6  A    between atoms: C_17  and  C_18
REMARK                            x       y       z     vdW  Elec       q    Type
REMARK                         _______ _______ _______ _____ _____    ______ ____
ROOT
ATOM      1  O   UNL     1       5.789   5.029  19.483  0.00  0.00    +0.000 OA
ATOM      2  C   UNL     1       5.898   5.240  18.289  0.00  0.00    +0.000 C 
ATOM      3  C   UNL     1       7.107   5.003  17.486  0.00  0.00    +0.000 C 
ATOM      4 CL   UNL     1       8.477   4.206  18.080  0.00  0.00    +0.000 Cl
ATOM      5  C   UNL     1       6.908   5.454  16.247  0.00  0.00    +0.000 C 
ATOM      6  C   UNL     1       5.550   6.085  16.263  0.00  0.00    +0.000 C 
ATOM      7  O   UNL     1       5.111   6.790  15.370  0.00  0.00    +0.000 OA
ATOM      8  N   UNL     1       4.959   5.741  17.441  0.00  0.00    +0.000 N 
ENDROOT
BRANCH   5   9
ATOM      9  N   UNL     1       7.646   5.316  15.084  0.00  0.00    +0.000 N 
ATOM     10  H   UNL     1       8.425   5.978  15.060  0.00  0.00    +0.000 HD
BRANCH   9  11
ATOM     11  C   UNL     1       7.008   5.353  13.762  0.00  0.00    +0.000 C 
BRANCH  11  12
ATOM     12  C   UNL     1       6.417   3.985  13.399  0.00  0.00    +0.000 C 
ATOM     13  C   UNL     1       6.968   3.386  12.117  0.00  0.00    +0.000 C 
ATOM     14  C   UNL     1       5.877   2.418  11.739  0.00  0.00    +0.000 C 
ATOM     15  C   UNL     1       4.623   3.173  12.150  0.00  0.00    +0.000 C 
ATOM     16  O   UNL     1       4.986   4.053  13.228  0.00  0.00    +0.000 OA
ENDBRANCH  11  12
ENDBRANCH   9  11
ENDBRANCH   5   9
BRANCH   8  17
ATOM     17  C   UNL     1       3.596   6.074  17.848  0.00  0.00    +0.000 C 
BRANCH  17  18
ATOM     18  C   UNL     1       2.611   4.917  17.635  0.00  0.00    +0.000 C 
BRANCH  18  19
ATOM     19  C   UNL     1       2.124   4.258  18.902  0.00  0.00    +0.000 A 
ATOM     20  C   UNL     1       1.264   3.153  18.826  0.00  0.00    +0.000 A 
ATOM     21  C   UNL     1       0.856   2.485  19.982  0.00  0.00    +0.000 A 
ATOM     22  C   UNL     1       1.304   2.915  21.228  0.00  0.00    +0.000 A 
ATOM     23  C   UNL     1       2.158   4.013  21.318  0.00  0.00    +0.000 A 
ATOM     24  C   UNL     1       2.570   4.680  20.161  0.00  0.00    +0.000 A 
ENDBRANCH  18  19
ENDBRANCH  17  18
ENDBRANCH   8  17
TORSDOF 6
ENDMDL
MODEL 8
REMARK VINA RESULT:      -7.5      0.730      1.331
REMARK  Name = 
REMARK  6 active torsions:
REMARK  status: ('A' for Active; 'I' for Inactive)
REMARK    1  A    between atoms: C_5  and  N_6
REMARK    2  A    between atoms: N_6  and  C_7
REMARK    3  A    between atoms: C_7  and  C_8
REMARK    4  A    between atoms: N_15  and  C_16
REMARK    5  A    between atoms: C_16  and  C_17
REMARK    6  A    between atoms: C_17  and  C_18
REMARK                            x       y       z     vdW  Elec       q    Type
REMARK                         _______ _______ _______ _____ _____    ______ ____
ROOT
ATOM      1  O   UNL     1       7.693   5.923  15.460  0.00  0.00    +0.000 OA
ATOM      2  C   UNL     1       6.998   5.526  16.378  0.00  0.00    +0.000 C 
ATOM      3  C   UNL     1       6.008   4.442  16.293  0.00  0.00    +0.000 C 
ATOM      4 CL   UNL     1       5.830   3.448  14.934  0.00  0.00    +0.000 Cl
ATOM      5  C   UNL     1       5.352   4.353  17.450  0.00  0.00    +0.000 C 
ATOM      6  C   UNL     1       5.875   5.474  18.295  0.00  0.00    +0.000 C 
ATOM      7  O   UNL     1       5.364   5.842  19.339  0.00  0.00    +0.000 OA
ATOM      8  N   UNL     1       6.967   5.983  17.659  0.00  0.00    +0.000 N 
ENDROOT
BRANCH   5   9
ATOM      9  N   UNL     1       4.466   3.410  17.940  0.00  0.00    +0.000 N 
ATOM     10  H   UNL     1       3.497   3.700  17.791  0.00  0.00    +0.000 HD
BRANCH   9  11
ATOM     11  C   UNL     1       4.560   2.912  19.318  0.00  0.00    +0.000 C 
BRANCH  11  12
ATOM     12  C   UNL     1       3.168   2.743  19.939  0.00  0.00    +0.000 C 
ATOM     13  C   UNL     1       2.066   2.452  18.935  0.00  0.00    +0.000 C 
ATOM     14  C   UNL     1       0.840   2.885  19.694  0.00  0.00    +0.000 C 
ATOM     15  C   UNL     1       1.345   4.103  20.450  0.00  0.00    +0.000 C 
ATOM     16  O   UNL     1       2.757   3.926  20.654  0.00  0.00    +0.000 OA
ENDBRANCH  11  12
ENDBRANCH   9  11
ENDBRANCH   5   9
BRANCH   8  17
ATOM     17  C   UNL     1       7.839   7.041  18.162  0.00  0.00    +0.000 C 
BRANCH  17  18
ATOM     18  C   UNL     1       7.482   8.424  17.602  0.00  0.00    +0.000 C 
BRANCH  18  19
ATOM     19  C   UNL     1       8.318   9.560  18.140  0.00  0.00    +0.000 A 
ATOM     20  C   UNL     1       8.297  10.805  17.496  0.00  0.00    +0.000 A 
ATOM     21  C   UNL     1       9.008  11.889  18.014  0.00  0.00    +0.000 A 
ATOM     22  C   UNL     1       9.749  11.739  19.183  0.00  0.00    +0.000 A 
ATOM     23  C   UNL     1       9.780  10.506  19.832  0.00  0.00    +0.000 A 
ATOM     24  C   UNL     1       9.066   9.421  19.317  0.00  0.00    +0.000 A 
ENDBRANCH  18  19
ENDBRANCH  17  18
ENDBRANCH   8  17
TORSDOF 6
ENDMDL
MODEL 9
REMARK VINA RESULT:      -7.4      3.482      6.184
REMARK  Name = 
REMARK  6 active torsions:
REMARK  status: ('A' for Active; 'I' for Inactive)
REMARK    1  A    between atoms: C_5  and  N_6
REMARK    2  A    between atoms: N_6  and  C_7
REMARK    3  A    between atoms: C_7  and  C_8
REMARK    4  A    between atoms: N_15  and  C_16
REMARK    5  A    between atoms: C_16  and  C_17
REMARK    6  A    between atoms: C_17  and  C_18
REMARK                            x       y       z     vdW  Elec       q    Type
REMARK                         _______ _______ _______ _____ _____    ______ ____
ROOT
ATOM      1  O   UNL     1       7.852   6.359  16.500  0.00  0.00    +0.000 OA
ATOM      2  C   UNL     1       6.930   5.689  16.929  0.00  0.00    +0.000 C 
ATOM      3  C   UNL     1       6.740   5.293  18.332  0.00  0.00    +0.000 C 
ATOM      4 CL   UNL     1       7.689   5.885  19.603  0.00  0.00    +0.000 Cl
ATOM      5  C   UNL     1       5.696   4.469  18.420  0.00  0.00    +0.000 C 
ATOM      6  C   UNL     1       5.235   4.253  17.011  0.00  0.00    +0.000 C 
ATOM      7  O   UNL     1       4.436   3.396  16.674  0.00  0.00    +0.000 OA
ATOM      8  N   UNL     1       5.891   5.156  16.229  0.00  0.00    +0.000 N 
ENDROOT
BRANCH   5   9
ATOM      9  N   UNL     1       5.006   3.964  19.508  0.00  0.00    +0.000 N 
ATOM     10  H   UNL     1       5.514   4.132  20.379  0.00  0.00    +0.000 HD
BRANCH   9  11
ATOM     11  C   UNL     1       4.541   2.571  19.543  0.00  0.00    +0.000 C 
BRANCH  11  12
ATOM     12  C   UNL     1       3.061   2.495  19.939  0.00  0.00    +0.000 C 
ATOM     13  C   UNL     1       2.205   3.620  19.384  0.00  0.00    +0.000 C 
ATOM     14  C   UNL     1       1.038   3.612  20.335  0.00  0.00    +0.000 C 
ATOM     15  C   UNL     1       1.707   3.292  21.661  0.00  0.00    +0.000 C 
ATOM     16  O   UNL     1       2.892   2.531  21.371  0.00  0.00    +0.000 OA
ENDBRANCH  11  12
ENDBRANCH   9  11
ENDBRANCH   5   9
BRANCH   8  17
ATOM     17  C   UNL     1       5.693   5.356  14.796  0.00  0.00    +0.000 C 
BRANCH  17  18
ATOM     18  C   UNL     1       6.683   4.555  13.940  0.00  0.00    +0.000 C 
BRANCH  18  19
ATOM     19  C   UNL     1       6.046   3.679  12.889  0.00  0.00    +0.000 A 
ATOM     20  C   UNL     1       4.719   3.911  12.500  0.00  0.00    +0.000 A 
ATOM     21  C   UNL     1       4.131   3.158  11.482  0.00  0.00    +0.000 A 
ATOM     22  C   UNL     1       4.865   2.163  10.841  0.00  0.00    +0.000 A 
ATOM     23  C   UNL     1       6.185   1.921  11.219  0.00  0.00    +0.000 A 
ATOM     24  C   UNL     1       6.776   2.677  12.236  0.00  0.00    +0.000 A 
ENDBRANCH  18  19
ENDBRANCH  17  18
ENDBRANCH   8  17
TORSDOF 6
ENDMDL
