MODEL 1
REMARK VINA RESULT:      -7.7      0.000      0.000
REMARK  Name = 
REMARK  6 active torsions:
REMARK  status: ('A' for Active; 'I' for Inactive)
REMARK    1  A    between atoms: C_2  and  C_3
REMARK    2  A    between atoms: C_5  and  C_6
REMARK    3  A    between atoms: N_11  and  C_12
REMARK    4  A    between atoms: C_15  and  C_16
REMARK    5  A    between atoms: C_16  and  N_17
REMARK    6  A    between atoms: C_28  and  N_29
REMARK                            x       y       z     vdW  Elec       q    Type
REMARK                         _______ _______ _______ _____ _____    ______ ____
ROOT
ATOM      1  C   UNL     1       1.100   9.253  18.767  0.00  0.00    +0.000 A 
ATOM      2  C   UNL     1       0.104   9.553  17.862  0.00  0.00    +0.000 A 
ATOM      3  C   UNL     1      -0.791  10.520  18.247  0.00  0.00    +0.000 A 
ATOM      4  N   UNL     1      -0.729  11.156  19.426  0.00  0.00    +0.000 NA
ATOM      5  C   UNL     1       0.259  10.815  20.263  0.00  0.00    +0.000 A 
ATOM      6  N   UNL     1       0.413  11.494  21.474  0.00  0.00    +0.000 N 
ATOM      7  N   UNL     1       1.174   9.871  19.974  0.00  0.00    +0.000 NA
ATOM      8  H   UNL     1       1.090  10.994  22.036  0.00  0.00    +0.000 HD
ENDROOT
BRANCH   1  11
ATOM      9  C   UNL     1       3.138   6.063  18.967  0.00  0.00    +0.000 A 
ATOM     10  C   UNL     1       2.153   7.031  19.215  0.00  0.00    +0.000 A 
ATOM     11  C   UNL     1       2.135   8.234  18.509  0.00  0.00    +0.000 A 
ATOM     12  C   UNL     1       3.164   8.385  17.582  0.00  0.00    +0.000 A 
ATOM     13  N   UNL     1       4.133   7.461  17.314  0.00  0.00    +0.000 NA
ATOM     14  C   UNL     1       4.115   6.284  17.985  0.00  0.00    +0.000 A 
BRANCH  14  15
ATOM     15  N   UNL     1       5.080   5.323  17.702  0.00  0.00    +0.000 N 
ATOM     16  C   UNL     1       6.501   5.606  17.912  0.00  0.00    +0.000 C 
ATOM     17  C   UNL     1       7.186   4.424  17.219  0.00  0.00    +0.000 C 
ATOM     18  C   UNL     1       6.344   4.255  15.973  0.00  0.00    +0.000 C 
ATOM     19  F   UNL     1       6.720   5.191  15.057  0.00  0.00    +0.000 F 
ATOM     20  C   UNL     1       4.921   4.550  16.452  0.00  0.00    +0.000 C 
ENDBRANCH  14  15
BRANCH   9  22
ATOM     21  N   UNL     1       3.154   3.921  20.423  0.00  0.00    +0.000 NA
ATOM     22  C   UNL     1       3.133   4.889  19.785  0.00  0.00    +0.000 C 
ENDBRANCH   9  22
ENDBRANCH   1  11
BRANCH   6  23
ATOM     23  C   UNL     1      -0.562  12.166  22.231  0.00  0.00    +0.000 A 
ATOM     24  C   UNL     1      -0.565  13.554  22.406  0.00  0.00    +0.000 A 
ATOM     25  C   UNL     1      -1.614  14.195  23.082  0.00  0.00    +0.000 A 
ATOM     26  C   UNL     1      -2.691  13.462  23.597  0.00  0.00    +0.000 A 
ATOM     27  C   UNL     1      -2.664  12.067  23.459  0.00  0.00    +0.000 A 
ATOM     28  C   UNL     1      -1.625  11.432  22.767  0.00  0.00    +0.000 A 
BRANCH  26  29
ATOM     29  C   UNL     1      -3.827  14.138  24.335  0.00  0.00    +0.000 C 
BRANCH  29  30
ATOM     30  N   UNL     1      -4.959  14.669  23.573  0.00  0.00    +0.000 NA
ATOM     31  C   UNL     1      -6.242  13.966  23.686  0.00  0.00    +0.000 C 
ATOM     32  C   UNL     1      -6.478  12.876  22.624  0.00  0.00    +0.000 C 
ATOM     33  O   UNL     1      -6.249  13.359  21.294  0.00  0.00    +0.000 OA
ATOM     34  C   UNL     1      -4.936  13.916  21.164  0.00  0.00    +0.000 C 
ATOM     35  C   UNL     1      -4.699  15.041  22.181  0.00  0.00    +0.000 C 
ENDBRANCH  29  30
ENDBRANCH  26  29
ENDBRANCH   6  23
TORSDOF 6
ENDMDL
MODEL 2
REMARK VINA RESULT:      -7.7      1.592      2.289
REMARK  Name = 
REMARK  6 active torsions:
REMARK  status: ('A' for Active; 'I' for Inactive)
REMARK    1  A    between atoms: C_2  and  C_3
REMARK    2  A    between atoms: C_5  and  C_6
REMARK    3  A    between atoms: N_11  and  C_12
REMARK    4  A    between atoms: C_15  and  C_16
REMARK    5  A    between atoms: C_16  and  N_17
REMARK    6  A    between atoms: C_28  and  N_29
REMARK                            x       y       z     vdW  Elec       q    Type
REMARK                         _______ _______ _______ _____ _____    ______ ____
ROOT
ATOM      1  C   UNL     1       1.678   7.889  19.876  0.00  0.00    +0.000 A 
ATOM      2  C   UNL     1       1.218   7.448  21.099  0.00  0.00    +0.000 A 
ATOM      3  C   UNL     1       0.272   8.234  21.709  0.00  0.00    +0.000 A 
ATOM      4  N   UNL     1      -0.200   9.370  21.174  0.00  0.00    +0.000 NA
ATOM      5  C   UNL     1       0.292   9.746  19.986  0.00  0.00    +0.000 A 
ATOM      6  N   UNL     1      -0.215  10.883  19.351  0.00  0.00    +0.000 N 
ATOM      7  N   UNL     1       1.228   9.045  19.322  0.00  0.00    +0.000 NA
ATOM      8  H   UNL     1       0.384  11.102  18.565  0.00  0.00    +0.000 HD
ENDROOT
BRANCH   1  11
ATOM      9  C   UNL     1       4.149   5.235  18.773  0.00  0.00    +0.000 A 
ATOM     10  C   UNL     1       3.179   5.924  19.517  0.00  0.00    +0.000 A 
ATOM     11  C   UNL     1       2.698   7.164  19.096  0.00  0.00    +0.000 A 
ATOM     12  C   UNL     1       3.269   7.645  17.920  0.00  0.00    +0.000 A 
ATOM     13  N   UNL     1       4.209   6.997  17.171  0.00  0.00    +0.000 NA
ATOM     14  C   UNL     1       4.640   5.778  17.576  0.00  0.00    +0.000 A 
BRANCH  14  15
ATOM     15  N   UNL     1       5.577   5.096  16.808  0.00  0.00    +0.000 N 
ATOM     16  C   UNL     1       6.580   5.826  16.029  0.00  0.00    +0.000 C 
ATOM     17  C   UNL     1       7.185   4.730  15.147  0.00  0.00    +0.000 C 
ATOM     18  C   UNL     1       5.962   3.927  14.755  0.00  0.00    +0.000 C 
ATOM     19  F   UNL     1       5.313   4.575  13.749  0.00  0.00    +0.000 F 
ATOM     20  C   UNL     1       5.097   3.943  16.017  0.00  0.00    +0.000 C 
ENDBRANCH  14  15
BRANCH   9  22
ATOM     21  N   UNL     1       5.051   2.995  19.708  0.00  0.00    +0.000 NA
ATOM     22  C   UNL     1       4.645   4.004  19.310  0.00  0.00    +0.000 C 
ENDBRANCH   9  22
ENDBRANCH   1  11
BRANCH   6  23
ATOM     23  C   UNL     1      -0.823  12.011  19.928  0.00  0.00    +0.000 A 
ATOM     24  C   UNL     1      -2.172  12.327  19.738  0.00  0.00    +0.000 A 
ATOM     25  C   UNL     1      -2.765  13.404  20.415  0.00  0.00    +0.000 A 
ATOM     26  C   UNL     1      -2.021  14.189  21.306  0.00  0.00    +0.000 A 
ATOM     27  C   UNL     1      -0.659  13.897  21.461  0.00  0.00    +0.000 A 
ATOM     28  C   UNL     1      -0.075  12.811  20.798  0.00  0.00    +0.000 A 
BRANCH  26  29
ATOM     29  C   UNL     1      -2.644  15.358  22.039  0.00  0.00    +0.000 C 
BRANCH  29  30
ATOM     30  N   UNL     1      -3.470  15.103  23.220  0.00  0.00    +0.000 NA
ATOM     31  C   UNL     1      -3.006  14.082  24.166  0.00  0.00    +0.000 C 
ATOM     32  C   UNL     1      -3.546  12.663  23.902  0.00  0.00    +0.000 C 
ATOM     33  O   UNL     1      -4.972  12.648  23.757  0.00  0.00    +0.000 OA
ATOM     34  C   UNL     1      -5.398  13.550  22.730  0.00  0.00    +0.000 C 
ATOM     35  C   UNL     1      -4.913  14.980  23.001  0.00  0.00    +0.000 C 
ENDBRANCH  29  30
ENDBRANCH  26  29
ENDBRANCH   6  23
TORSDOF 6
ENDMDL
MODEL 3
REMARK VINA RESULT:      -7.7      2.191      3.085
REMARK  Name = 
REMARK  6 active torsions:
REMARK  status: ('A' for Active; 'I' for Inactive)
REMARK    1  A    between atoms: C_2  and  C_3
REMARK    2  A    between atoms: C_5  and  C_6
REMARK    3  A    between atoms: N_11  and  C_12
REMARK    4  A    between atoms: C_15  and  C_16
REMARK    5  A    between atoms: C_16  and  N_17
REMARK    6  A    between atoms: C_28  and  N_29
REMARK                            x       y       z     vdW  Elec       q    Type
REMARK                         _______ _______ _______ _____ _____    ______ ____
ROOT
ATOM      1  C   UNL     1       1.589   8.158  19.818  0.00  0.00    +0.000 A 
ATOM      2  C   UNL     1       1.210   7.869  21.112  0.00  0.00    +0.000 A 
ATOM      3  C   UNL     1       0.270   8.702  21.666  0.00  0.00    +0.000 A 
ATOM      4  N   UNL     1      -0.270   9.742  21.015  0.00  0.00    +0.000 NA
ATOM      5  C   UNL     1       0.144   9.972  19.762  0.00  0.00    +0.000 A 
ATOM      6  N   UNL     1      -0.435  10.999  19.014  0.00  0.00    +0.000 N 
ATOM      7  N   UNL     1       1.069   9.216  19.144  0.00  0.00    +0.000 NA
ATOM      8  H   UNL     1       0.113  11.129  18.173  0.00  0.00    +0.000 HD
ENDROOT
BRANCH   1  11
ATOM      9  C   UNL     1       3.963   5.365  18.850  0.00  0.00    +0.000 A 
ATOM     10  C   UNL     1       3.008   6.118  19.551  0.00  0.00    +0.000 A 
ATOM     11  C   UNL     1       2.593   7.365  19.083  0.00  0.00    +0.000 A 
ATOM     12  C   UNL     1       3.209   7.784  17.906  0.00  0.00    +0.000 A 
ATOM     13  N   UNL     1       4.136   7.074  17.198  0.00  0.00    +0.000 NA
ATOM     14  C   UNL     1       4.503   5.850  17.649  0.00  0.00    +0.000 A 
BRANCH  14  15
ATOM     15  N   UNL     1       5.426   5.104  16.923  0.00  0.00    +0.000 N 
ATOM     16  C   UNL     1       6.514   5.763  16.198  0.00  0.00    +0.000 C 
ATOM     17  C   UNL     1       7.081   4.629  15.339  0.00  0.00    +0.000 C 
ATOM     18  C   UNL     1       5.825   3.916  14.884  0.00  0.00    +0.000 C 
ATOM     19  F   UNL     1       5.273   4.611  13.852  0.00  0.00    +0.000 F 
ATOM     20  C   UNL     1       4.903   3.991  16.103  0.00  0.00    +0.000 C 
ENDBRANCH  14  15
BRANCH   9  22
ATOM     21  N   UNL     1       4.751   3.119  19.871  0.00  0.00    +0.000 NA
ATOM     22  C   UNL     1       4.392   4.131  19.434  0.00  0.00    +0.000 C 
ENDBRANCH   9  22
ENDBRANCH   1  11
BRANCH   6  23
ATOM     23  C   UNL     1      -1.052  12.176  19.471  0.00  0.00    +0.000 A 
ATOM     24  C   UNL     1      -2.396  12.229  19.857  0.00  0.00    +0.000 A 
ATOM     25  C   UNL     1      -2.945  13.397  20.406  0.00  0.00    +0.000 A 
ATOM     26  C   UNL     1      -2.160  14.543  20.588  0.00  0.00    +0.000 A 
ATOM     27  C   UNL     1      -0.826  14.502  20.160  0.00  0.00    +0.000 A 
ATOM     28  C   UNL     1      -0.276  13.328  19.630  0.00  0.00    +0.000 A 
BRANCH  26  29
ATOM     29  C   UNL     1      -2.740  15.814  21.172  0.00  0.00    +0.000 C 
BRANCH  29  30
ATOM     30  N   UNL     1      -2.584  16.078  22.604  0.00  0.00    +0.000 NA
ATOM     31  C   UNL     1      -1.465  16.930  23.019  0.00  0.00    +0.000 C 
ATOM     32  C   UNL     1      -0.169  16.172  23.366  0.00  0.00    +0.000 C 
ATOM     33  O   UNL     1      -0.401  15.104  24.294  0.00  0.00    +0.000 OA
ATOM     34  C   UNL     1      -1.400  14.202  23.806  0.00  0.00    +0.000 C 
ATOM     35  C   UNL     1      -2.716  14.930  23.503  0.00  0.00    +0.000 C 
ENDBRANCH  29  30
ENDBRANCH  26  29
ENDBRANCH   6  23
TORSDOF 6
ENDMDL
MODEL 4
REMARK VINA RESULT:      -7.6      0.718      1.051
REMARK  Name = 
REMARK  6 active torsions:
REMARK  status: ('A' for Active; 'I' for Inactive)
REMARK    1  A    between atoms: C_2  and  C_3
REMARK    2  A    between atoms: C_5  and  C_6
REMARK    3  A    between atoms: N_11  and  C_12
REMARK    4  A    between atoms: C_15  and  C_16
REMARK    5  A    between atoms: C_16  and  N_17
REMARK    6  A    between atoms: C_28  and  N_29
REMARK                            x       y       z     vdW  Elec       q    Type
REMARK                         _______ _______ _______ _____ _____    ______ ____
ROOT
ATOM      1  C   UNL     1       1.099   9.226  18.771  0.00  0.00    +0.000 A 
ATOM      2  C   UNL     1       0.132   9.550  17.843  0.00  0.00    +0.000 A 
ATOM      3  C   UNL     1      -0.765  10.520  18.217  0.00  0.00    +0.000 A 
ATOM      4  N   UNL     1      -0.730  11.138  19.407  0.00  0.00    +0.000 NA
ATOM      5  C   UNL     1       0.231  10.774  20.266  0.00  0.00    +0.000 A 
ATOM      6  N   UNL     1       0.357  11.433  21.491  0.00  0.00    +0.000 N 
ATOM      7  N   UNL     1       1.144   9.826  19.989  0.00  0.00    +0.000 NA
ATOM      8  H   UNL     1       1.013  10.918  22.064  0.00  0.00    +0.000 HD
ENDROOT
BRANCH   1  11
ATOM      9  C   UNL     1       3.137   6.041  19.025  0.00  0.00    +0.000 A 
ATOM     10  C   UNL     1       2.155   7.015  19.260  0.00  0.00    +0.000 A 
ATOM     11  C   UNL     1       2.131   8.201  18.527  0.00  0.00    +0.000 A 
ATOM     12  C   UNL     1       3.151   8.330  17.586  0.00  0.00    +0.000 A 
ATOM     13  N   UNL     1       4.117   7.399  17.331  0.00  0.00    +0.000 NA
ATOM     14  C   UNL     1       4.105   6.238  18.029  0.00  0.00    +0.000 A 
BRANCH  14  15
ATOM     15  N   UNL     1       5.067   5.270  17.759  0.00  0.00    +0.000 N 
ATOM     16  C   UNL     1       6.487   5.542  17.991  0.00  0.00    +0.000 C 
ATOM     17  C   UNL     1       7.174   4.356  17.307  0.00  0.00    +0.000 C 
ATOM     18  C   UNL     1       6.349   4.196  16.047  0.00  0.00    +0.000 C 
ATOM     19  F   UNL     1       6.746   5.130  15.139  0.00  0.00    +0.000 F 
ATOM     20  C   UNL     1       4.922   4.500  16.506  0.00  0.00    +0.000 C 
ENDBRANCH  14  15
BRANCH   9  22
ATOM     21  N   UNL     1       3.102   3.947  20.549  0.00  0.00    +0.000 NA
ATOM     22  C   UNL     1       3.139   4.885  19.870  0.00  0.00    +0.000 C 
ENDBRANCH   9  22
ENDBRANCH   1  11
BRANCH   6  23
ATOM     23  C   UNL     1      -0.632  12.103  22.231  0.00  0.00    +0.000 A 
ATOM     24  C   UNL     1      -0.710  13.498  22.307  0.00  0.00    +0.000 A 
ATOM     25  C   UNL     1      -1.774  14.128  22.970  0.00  0.00    +0.000 A 
ATOM     26  C   UNL     1      -2.793  13.376  23.571  0.00  0.00    +0.000 A 
ATOM     27  C   UNL     1      -2.689  11.978  23.531  0.00  0.00    +0.000 A 
ATOM     28  C   UNL     1      -1.636  11.353  22.852  0.00  0.00    +0.000 A 
BRANCH  26  29
ATOM     29  C   UNL     1      -3.943  14.039  24.296  0.00  0.00    +0.000 C 
BRANCH  29  30
ATOM     30  N   UNL     1      -5.228  14.190  23.612  0.00  0.00    +0.000 NA
ATOM     31  C   UNL     1      -5.266  13.918  22.171  0.00  0.00    +0.000 C 
ATOM     32  C   UNL     1      -5.031  15.147  21.273  0.00  0.00    +0.000 C 
ATOM     33  O   UNL     1      -5.879  16.246  21.632  0.00  0.00    +0.000 OA
ATOM     34  C   UNL     1      -5.724  16.591  23.013  0.00  0.00    +0.000 C 
ATOM     35  C   UNL     1      -6.005  15.391  23.927  0.00  0.00    +0.000 C 
ENDBRANCH  29  30
ENDBRANCH  26  29
ENDBRANCH   6  23
TORSDOF 6
ENDMDL
MODEL 5
REMARK VINA RESULT:      -7.6      1.909      2.159
REMARK  Name = 
REMARK  6 active torsions:
REMARK  status: ('A' for Active; 'I' for Inactive)
REMARK    1  A    between atoms: C_2  and  C_3
REMARK    2  A    between atoms: C_5  and  C_6
REMARK    3  A    between atoms: N_11  and  C_12
REMARK    4  A    between atoms: C_15  and  C_16
REMARK    5  A    between atoms: C_16  and  N_17
REMARK    6  A    between atoms: C_28  and  N_29
REMARK                            x       y       z     vdW  Elec       q    Type
REMARK                         _______ _______ _______ _____ _____    ______ ____
ROOT
ATOM      1  C   UNL     1       1.431   9.277  19.382  0.00  0.00    +0.000 A 
ATOM      2  C   UNL     1       1.411  10.255  18.410  0.00  0.00    +0.000 A 
ATOM      3  C   UNL     1       0.858  11.458  18.773  0.00  0.00    +0.000 A 
ATOM      4  N   UNL     1       0.359  11.702  19.993  0.00  0.00    +0.000 NA
ATOM      5  C   UNL     1       0.403  10.709  20.891  0.00  0.00    +0.000 A 
ATOM      6  N   UNL     1      -0.039  10.930  22.197  0.00  0.00    +0.000 N 
ATOM      7  N   UNL     1       0.915   9.495  20.620  0.00  0.00    +0.000 NA
ATOM      8  H   UNL     1      -0.089  10.037  22.673  0.00  0.00    +0.000 HD
ENDROOT
BRANCH   1  11
ATOM      9  C   UNL     1       2.354   5.633  19.871  0.00  0.00    +0.000 A 
ATOM     10  C   UNL     1       1.828   6.915  20.094  0.00  0.00    +0.000 A 
ATOM     11  C   UNL     1       1.983   7.929  19.150  0.00  0.00    +0.000 A 
ATOM     12  C   UNL     1       2.701   7.566  18.013  0.00  0.00    +0.000 A 
ATOM     13  N   UNL     1       3.220   6.328  17.763  0.00  0.00    +0.000 NA
ATOM     14  C   UNL     1       3.031   5.345  18.677  0.00  0.00    +0.000 A 
BRANCH  14  15
ATOM     15  N   UNL     1       3.531   4.072  18.423  0.00  0.00    +0.000 N 
ATOM     16  C   UNL     1       2.629   2.924  18.308  0.00  0.00    +0.000 C 
ATOM     17  C   UNL     1       3.594   1.735  18.321  0.00  0.00    +0.000 C 
ATOM     18  C   UNL     1       4.598   2.153  19.375  0.00  0.00    +0.000 C 
ATOM     19  F   UNL     1       4.068   1.917  20.607  0.00  0.00    +0.000 F 
ATOM     20  C   UNL     1       4.744   3.661  19.160  0.00  0.00    +0.000 C 
ENDBRANCH  14  15
BRANCH   9  22
ATOM     21  N   UNL     1       2.077   3.875  21.753  0.00  0.00    +0.000 NA
ATOM     22  C   UNL     1       2.218   4.670  20.921  0.00  0.00    +0.000 C 
ENDBRANCH   9  22
ENDBRANCH   1  11
BRANCH   6  23
ATOM     23  C   UNL     1      -0.982  11.866  22.657  0.00  0.00    +0.000 A 
ATOM     24  C   UNL     1      -0.865  13.240  22.422  0.00  0.00    +0.000 A 
ATOM     25  C   UNL     1      -1.880  14.128  22.807  0.00  0.00    +0.000 A 
ATOM     26  C   UNL     1      -3.043  13.662  23.434  0.00  0.00    +0.000 A 
ATOM     27  C   UNL     1      -3.138  12.291  23.708  0.00  0.00    +0.000 A 
ATOM     28  C   UNL     1      -2.132  11.404  23.305  0.00  0.00    +0.000 A 
BRANCH  26  29
ATOM     29  C   UNL     1      -4.144  14.608  23.862  0.00  0.00    +0.000 C 
BRANCH  29  30
ATOM     30  N   UNL     1      -5.402  14.628  23.113  0.00  0.00    +0.000 NA
ATOM     31  C   UNL     1      -6.597  14.099  23.779  0.00  0.00    +0.000 C 
ATOM     32  C   UNL     1      -6.868  12.603  23.531  0.00  0.00    +0.000 C 
ATOM     33  O   UNL     1      -6.845  12.275  22.136  0.00  0.00    +0.000 OA
ATOM     34  C   UNL     1      -5.610  12.672  21.531  0.00  0.00    +0.000 C 
ATOM     35  C   UNL     1      -5.346  14.171  21.722  0.00  0.00    +0.000 C 
ENDBRANCH  29  30
ENDBRANCH  26  29
ENDBRANCH   6  23
TORSDOF 6
ENDMDL
MODEL 6
REMARK VINA RESULT:      -7.5      1.903      2.652
REMARK  Name = 
REMARK  6 active torsions:
REMARK  status: ('A' for Active; 'I' for Inactive)
REMARK    1  A    between atoms: C_2  and  C_3
REMARK    2  A    between atoms: C_5  and  C_6
REMARK    3  A    between atoms: N_11  and  C_12
REMARK    4  A    between atoms: C_15  and  C_16
REMARK    5  A    between atoms: C_16  and  N_17
REMARK    6  A    between atoms: C_28  and  N_29
REMARK                            x       y       z     vdW  Elec       q    Type
REMARK                         _______ _______ _______ _____ _____    ______ ____
ROOT
ATOM      1  C   UNL     1       1.710   8.082  19.797  0.00  0.00    +0.000 A 
ATOM      2  C   UNL     1       1.258   7.718  21.048  0.00  0.00    +0.000 A 
ATOM      3  C   UNL     1       0.345   8.562  21.630  0.00  0.00    +0.000 A 
ATOM      4  N   UNL     1      -0.104   9.681  21.044  0.00  0.00    +0.000 NA
ATOM      5  C   UNL     1       0.377   9.981  19.831  0.00  0.00    +0.000 A 
ATOM      6  N   UNL     1      -0.108  11.097  19.145  0.00  0.00    +0.000 N 
ATOM      7  N   UNL     1       1.282   9.220  19.190  0.00  0.00    +0.000 NA
ATOM      8  H   UNL     1       0.483  11.257  18.339  0.00  0.00    +0.000 HD
ENDROOT
BRANCH   1  11
ATOM      9  C   UNL     1       4.046   5.280  18.769  0.00  0.00    +0.000 A 
ATOM     10  C   UNL     1       3.107   6.034  19.490  0.00  0.00    +0.000 A 
ATOM     11  C   UNL     1       2.696   7.288  19.041  0.00  0.00    +0.000 A 
ATOM     12  C   UNL     1       3.299   7.714  17.859  0.00  0.00    +0.000 A 
ATOM     13  N   UNL     1       4.210   7.002  17.132  0.00  0.00    +0.000 NA
ATOM     14  C   UNL     1       4.573   5.771  17.566  0.00  0.00    +0.000 A 
BRANCH  14  15
ATOM     15  N   UNL     1       5.479   5.025  16.820  0.00  0.00    +0.000 N 
ATOM     16  C   UNL     1       6.562   5.681  16.085  0.00  0.00    +0.000 C 
ATOM     17  C   UNL     1       7.108   4.551  15.208  0.00  0.00    +0.000 C 
ATOM     18  C   UNL     1       5.839   3.853  14.764  0.00  0.00    +0.000 C 
ATOM     19  F   UNL     1       5.279   4.563  13.746  0.00  0.00    +0.000 F 
ATOM     20  C   UNL     1       4.935   3.924  15.996  0.00  0.00    +0.000 C 
ENDBRANCH  14  15
BRANCH   9  22
ATOM     21  N   UNL     1       4.855   3.039  19.785  0.00  0.00    +0.000 NA
ATOM     22  C   UNL     1       4.472   4.036  19.335  0.00  0.00    +0.000 C 
ENDBRANCH   9  22
ENDBRANCH   1  11
BRANCH   6  23
ATOM     23  C   UNL     1      -0.674  12.271  19.670  0.00  0.00    +0.000 A 
ATOM     24  C   UNL     1       0.025  13.479  19.758  0.00  0.00    +0.000 A 
ATOM     25  C   UNL     1      -0.610  14.653  20.192  0.00  0.00    +0.000 A 
ATOM     26  C   UNL     1      -1.966  14.647  20.545  0.00  0.00    +0.000 A 
ATOM     27  C   UNL     1      -2.653  13.426  20.499  0.00  0.00    +0.000 A 
ATOM     28  C   UNL     1      -2.021  12.261  20.047  0.00  0.00    +0.000 A 
BRANCH  26  29
ATOM     29  C   UNL     1      -2.664  15.902  21.022  0.00  0.00    +0.000 C 
BRANCH  29  30
ATOM     30  N   UNL     1      -2.711  16.193  22.456  0.00  0.00    +0.000 NA
ATOM     31  C   UNL     1      -1.551  15.805  23.266  0.00  0.00    +0.000 C 
ATOM     32  C   UNL     1      -1.640  14.402  23.894  0.00  0.00    +0.000 C 
ATOM     33  O   UNL     1      -2.873  14.204  24.598  0.00  0.00    +0.000 OA
ATOM     34  C   UNL     1      -4.000  14.451  23.749  0.00  0.00    +0.000 C 
ATOM     35  C   UNL     1      -3.956  15.864  23.154  0.00  0.00    +0.000 C 
ENDBRANCH  29  30
ENDBRANCH  26  29
ENDBRANCH   6  23
TORSDOF 6
ENDMDL
MODEL 7
REMARK VINA RESULT:      -7.5      4.560     11.825
REMARK  Name = 
REMARK  6 active torsions:
REMARK  status: ('A' for Active; 'I' for Inactive)
REMARK    1  A    between atoms: C_2  and  C_3
REMARK    2  A    between atoms: C_5  and  C_6
REMARK    3  A    between atoms: N_11  and  C_12
REMARK    4  A    between atoms: C_15  and  C_16
REMARK    5  A    between atoms: C_16  and  N_17
REMARK    6  A    between atoms: C_28  and  N_29
REMARK                            x       y       z     vdW  Elec       q    Type
REMARK                         _______ _______ _______ _____ _____    ______ ____
ROOT
ATOM      1  C   UNL     1      -1.049  11.898  20.839  0.00  0.00    +0.000 A 
ATOM      2  C   UNL     1      -1.681  11.878  19.614  0.00  0.00    +0.000 A 
ATOM      3  C   UNL     1      -1.366  10.828  18.788  0.00  0.00    +0.000 A 
ATOM      4  N   UNL     1      -0.500   9.861  19.122  0.00  0.00    +0.000 NA
ATOM      5  C   UNL     1       0.085   9.940  20.324  0.00  0.00    +0.000 A 
ATOM      6  N   UNL     1       0.942   8.923  20.751  0.00  0.00    +0.000 N 
ATOM      7  N   UNL     1      -0.155  10.939  21.193  0.00  0.00    +0.000 NA
ATOM      8  H   UNL     1       1.411   9.234  21.593  0.00  0.00    +0.000 HD
ENDROOT
BRANCH   1  11
ATOM      9  C   UNL     1      -2.768  14.282  23.233  0.00  0.00    +0.000 A 
ATOM     10  C   UNL     1      -2.557  13.271  22.283  0.00  0.00    +0.000 A 
ATOM     11  C   UNL     1      -1.273  12.960  21.838  0.00  0.00    +0.000 A 
ATOM     12  C   UNL     1      -0.257  13.736  22.393  0.00  0.00    +0.000 A 
ATOM     13  N   UNL     1      -0.428  14.721  23.322  0.00  0.00    +0.000 NA
ATOM     14  C   UNL     1      -1.680  14.987  23.768  0.00  0.00    +0.000 A 
BRANCH  14  15
ATOM     15  N   UNL     1      -1.865  15.969  24.735  0.00  0.00    +0.000 N 
ATOM     16  C   UNL     1      -1.565  17.372  24.442  0.00  0.00    +0.000 C 
ATOM     17  C   UNL     1      -1.631  18.027  25.825  0.00  0.00    +0.000 C 
ATOM     18  C   UNL     1      -0.956  16.991  26.699  0.00  0.00    +0.000 C 
ATOM     19  F   UNL     1       0.393  17.105  26.555  0.00  0.00    +0.000 F 
ATOM     20  C   UNL     1      -1.424  15.659  26.111  0.00  0.00    +0.000 C 
ENDBRANCH  14  15
BRANCH   9  22
ATOM     21  N   UNL     1      -5.204  14.869  23.889  0.00  0.00    +0.000 NA
ATOM     22  C   UNL     1      -4.121  14.592  23.581  0.00  0.00    +0.000 C 
ENDBRANCH   9  22
ENDBRANCH   1  11
BRANCH   6  23
ATOM     23  C   UNL     1       1.707   8.038  19.973  0.00  0.00    +0.000 A 
ATOM     24  C   UNL     1       1.971   6.720  20.360  0.00  0.00    +0.000 A 
ATOM     25  C   UNL     1       2.651   5.838  19.507  0.00  0.00    +0.000 A 
ATOM     26  C   UNL     1       3.080   6.252  18.239  0.00  0.00    +0.000 A 
ATOM     27  C   UNL     1       2.853   7.586  17.872  0.00  0.00    +0.000 A 
ATOM     28  C   UNL     1       2.158   8.458  18.718  0.00  0.00    +0.000 A 
BRANCH  26  29
ATOM     29  C   UNL     1       3.821   5.316  17.309  0.00  0.00    +0.000 C 
BRANCH  29  30
ATOM     30  N   UNL     1       5.207   4.956  17.612  0.00  0.00    +0.000 NA
ATOM     31  C   UNL     1       6.051   5.977  18.243  0.00  0.00    +0.000 C 
ATOM     32  C   UNL     1       6.851   6.853  17.260  0.00  0.00    +0.000 C 
ATOM     33  O   UNL     1       7.583   6.067  16.311  0.00  0.00    +0.000 OA
ATOM     34  C   UNL     1       6.718   5.172  15.603  0.00  0.00    +0.000 C 
ATOM     35  C   UNL     1       5.950   4.255  16.563  0.00  0.00    +0.000 C 
ENDBRANCH  29  30
ENDBRANCH  26  29
ENDBRANCH   6  23
TORSDOF 6
ENDMDL
MODEL 8
REMARK VINA RESULT:      -7.4      1.837      2.600
REMARK  Name = 
REMARK  6 active torsions:
REMARK  status: ('A' for Active; 'I' for Inactive)
REMARK    1  A    between atoms: C_2  and  C_3
REMARK    2  A    between atoms: C_5  and  C_6
REMARK    3  A    between atoms: N_11  and  C_12
REMARK    4  A    between atoms: C_15  and  C_16
REMARK    5  A    between atoms: C_16  and  N_17
REMARK    6  A    between atoms: C_28  and  N_29
REMARK                            x       y       z     vdW  Elec       q    Type
REMARK                         _______ _______ _______ _____ _____    ______ ____
ROOT
ATOM      1  C   UNL     1       1.447   9.478  19.337  0.00  0.00    +0.000 A 
ATOM      2  C   UNL     1       1.419  10.485  18.394  0.00  0.00    +0.000 A 
ATOM      3  C   UNL     1       0.836  11.664  18.787  0.00  0.00    +0.000 A 
ATOM      4  N   UNL     1       0.317  11.861  20.007  0.00  0.00    +0.000 NA
ATOM      5  C   UNL     1       0.372  10.842  20.875  0.00  0.00    +0.000 A 
ATOM      6  N   UNL     1      -0.090  11.015  22.182  0.00  0.00    +0.000 N 
ATOM      7  N   UNL     1       0.913   9.648  20.574  0.00  0.00    +0.000 NA
ATOM      8  H   UNL     1      -0.126  10.108  22.630  0.00  0.00    +0.000 HD
ENDROOT
BRANCH   1  11
ATOM      9  C   UNL     1       3.533   6.704  17.815  0.00  0.00    +0.000 A 
ATOM     10  C   UNL     1       2.979   7.968  18.065  0.00  0.00    +0.000 A 
ATOM     11  C   UNL     1       2.031   8.150  19.072  0.00  0.00    +0.000 A 
ATOM     12  C   UNL     1       1.684   6.993  19.766  0.00  0.00    +0.000 A 
ATOM     13  N   UNL     1       2.208   5.750  19.550  0.00  0.00    +0.000 NA
ATOM     14  C   UNL     1       3.153   5.599  18.591  0.00  0.00    +0.000 A 
BRANCH  14  15
ATOM     15  N   UNL     1       3.714   4.344  18.380  0.00  0.00    +0.000 N 
ATOM     16  C   UNL     1       3.032   3.350  17.549  0.00  0.00    +0.000 C 
ATOM     17  C   UNL     1       3.833   2.074  17.825  0.00  0.00    +0.000 C 
ATOM     18  C   UNL     1       4.083   2.172  19.315  0.00  0.00    +0.000 C 
ATOM     19  F   UNL     1       2.961   1.779  19.978  0.00  0.00    +0.000 F 
ATOM     20  C   UNL     1       4.318   3.666  19.546  0.00  0.00    +0.000 C 
ENDBRANCH  14  15
BRANCH   9  22
ATOM     21  N   UNL     1       5.210   6.495  15.852  0.00  0.00    +0.000 NA
ATOM     22  C   UNL     1       4.443   6.585  16.716  0.00  0.00    +0.000 C 
ENDBRANCH   9  22
ENDBRANCH   1  11
BRANCH   6  23
ATOM     23  C   UNL     1      -1.057  11.917  22.658  0.00  0.00    +0.000 A 
ATOM     24  C   UNL     1      -2.292  11.506  23.172  0.00  0.00    +0.000 A 
ATOM     25  C   UNL     1      -3.185  12.431  23.733  0.00  0.00    +0.000 A 
ATOM     26  C   UNL     1      -2.864  13.793  23.797  0.00  0.00    +0.000 A 
ATOM     27  C   UNL     1      -1.646  14.208  23.241  0.00  0.00    +0.000 A 
ATOM     28  C   UNL     1      -0.748  13.280  22.700  0.00  0.00    +0.000 A 
BRANCH  26  29
ATOM     29  C   UNL     1      -3.820  14.804  24.392  0.00  0.00    +0.000 C 
BRANCH  29  30
ATOM     30  N   UNL     1      -4.966  15.255  23.601  0.00  0.00    +0.000 NA
ATOM     31  C   UNL     1      -6.251  14.582  23.823  0.00  0.00    +0.000 C 
ATOM     32  C   UNL     1      -6.520  13.379  22.899  0.00  0.00    +0.000 C 
ATOM     33  O   UNL     1      -6.319  13.706  21.517  0.00  0.00    +0.000 OA
ATOM     34  C   UNL     1      -5.006  14.231  21.294  0.00  0.00    +0.000 C 
ATOM     35  C   UNL     1      -4.737  15.463  22.169  0.00  0.00    +0.000 C 
ENDBRANCH  29  30
ENDBRANCH  26  29
ENDBRANCH   6  23
TORSDOF 6
ENDMDL
MODEL 9
REMARK VINA RESULT:      -7.4      1.940      2.672
REMARK  Name = 
REMARK  6 active torsions:
REMARK  status: ('A' for Active; 'I' for Inactive)
REMARK    1  A    between atoms: C_2  and  C_3
REMARK    2  A    between atoms: C_5  and  C_6
REMARK    3  A    between atoms: N_11  and  C_12
REMARK    4  A    between atoms: C_15  and  C_16
REMARK    5  A    between atoms: C_16  and  N_17
REMARK    6  A    between atoms: C_28  and  N_29
REMARK                            x       y       z     vdW  Elec       q    Type
REMARK                         _______ _______ _______ _____ _____    ______ ____
ROOT
ATOM      1  C   UNL     1       1.464   9.304  19.438  0.00  0.00    +0.000 A 
ATOM      2  C   UNL     1       1.434  10.265  18.449  0.00  0.00    +0.000 A 
ATOM      3  C   UNL     1       0.886  11.475  18.798  0.00  0.00    +0.000 A 
ATOM      4  N   UNL     1       0.401  11.741  20.019  0.00  0.00    +0.000 NA
ATOM      5  C   UNL     1       0.455  10.763  20.933  0.00  0.00    +0.000 A 
ATOM      6  N   UNL     1       0.028  11.008  22.240  0.00  0.00    +0.000 N 
ATOM      7  N   UNL     1       0.963   9.545  20.677  0.00  0.00    +0.000 NA
ATOM      8  H   UNL     1      -0.017  10.124  22.732  0.00  0.00    +0.000 HD
ENDROOT
BRANCH   1  11
ATOM      9  C   UNL     1       3.454   6.415  18.004  0.00  0.00    +0.000 A 
ATOM     10  C   UNL     1       2.934   7.702  18.206  0.00  0.00    +0.000 A 
ATOM     11  C   UNL     1       2.012   7.952  19.223  0.00  0.00    +0.000 A 
ATOM     12  C   UNL     1       1.656   6.837  19.978  0.00  0.00    +0.000 A 
ATOM     13  N   UNL     1       2.148   5.574  19.810  0.00  0.00    +0.000 NA
ATOM     14  C   UNL     1       3.068   5.357  18.839  0.00  0.00    +0.000 A 
BRANCH  14  15
ATOM     15  N   UNL     1       3.598   4.081  18.675  0.00  0.00    +0.000 N 
ATOM     16  C   UNL     1       2.719   2.924  18.494  0.00  0.00    +0.000 C 
ATOM     17  C   UNL     1       3.682   1.743  18.644  0.00  0.00    +0.000 C 
ATOM     18  C   UNL     1       4.564   2.195  19.788  0.00  0.00    +0.000 C 
ATOM     19  F   UNL     1       3.905   1.988  20.962  0.00  0.00    +0.000 F 
ATOM     20  C   UNL     1       4.727   3.698  19.550  0.00  0.00    +0.000 C 
ENDBRANCH  14  15
BRANCH   9  22
ATOM     21  N   UNL     1       5.065   6.107  15.999  0.00  0.00    +0.000 NA
ATOM     22  C   UNL     1       4.337   6.225  16.893  0.00  0.00    +0.000 C 
ENDBRANCH   9  22
ENDBRANCH   1  11
BRANCH   6  23
ATOM     23  C   UNL     1      -0.908  11.953  22.694  0.00  0.00    +0.000 A 
ATOM     24  C   UNL     1      -0.680  13.332  22.647  0.00  0.00    +0.000 A 
ATOM     25  C   UNL     1      -1.682  14.244  23.013  0.00  0.00    +0.000 A 
ATOM     26  C   UNL     1      -2.942  13.797  23.431  0.00  0.00    +0.000 A 
ATOM     27  C   UNL     1      -3.154  12.414  23.520  0.00  0.00    +0.000 A 
ATOM     28  C   UNL     1      -2.158  11.507  23.136  0.00  0.00    +0.000 A 
BRANCH  26  29
ATOM     29  C   UNL     1      -4.031  14.767  23.836  0.00  0.00    +0.000 C 
BRANCH  29  30
ATOM     30  N   UNL     1      -4.771  15.486  22.798  0.00  0.00    +0.000 NA
ATOM     31  C   UNL     1      -5.851  16.380  23.229  0.00  0.00    +0.000 C 
ATOM     32  C   UNL     1      -7.245  15.727  23.292  0.00  0.00    +0.000 C 
ATOM     33  O   UNL     1      -7.574  15.039  22.078  0.00  0.00    +0.000 OA
ATOM     34  C   UNL     1      -6.575  14.068  21.745  0.00  0.00    +0.000 C 
ATOM     35  C   UNL     1      -5.185  14.709  21.627  0.00  0.00    +0.000 C 
ENDBRANCH  29  30
ENDBRANCH  26  29
ENDBRANCH   6  23
TORSDOF 6
ENDMDL
