MODEL 1
REMARK VINA RESULT:      -8.1      0.000      0.000
REMARK  Name = 
REMARK  8 active torsions:
REMARK  status: ('A' for Active; 'I' for Inactive)
REMARK    1  A    between atoms: C_1  and  C_2
REMARK    2  A    between atoms: C_2  and  C_3
REMARK    3  A    between atoms: C_3  and  C_26
REMARK    4  A    between atoms: C_4  and  C_5
REMARK    5  A    between atoms: C_4  and  C_16
REMARK    6  A    between atoms: C_8  and  C_9
REMARK    7  A    between atoms: C_10  and  C_11
REMARK    8  A    between atoms: C_11  and  O_13
REMARK                            x       y       z     vdW  Elec       q    Type
REMARK                         _______ _______ _______ _____ _____    ______ ____
ROOT
ATOM      1  C   UNL     1       3.809   3.715  18.521  0.00  0.00    +0.000 C 
ATOM      2  C   UNL     1       4.004   4.945  17.970  0.00  0.00    +0.000 C 
ENDROOT
BRANCH   2   3
ATOM      3  C   UNL     1       5.054   5.129  16.934  0.00  0.00    +0.000 A 
ATOM      4  C   UNL     1       6.194   5.901  17.198  0.00  0.00    +0.000 A 
ATOM      5  C   UNL     1       7.202   6.070  16.241  0.00  0.00    +0.000 A 
ATOM      6  C   UNL     1       7.031   5.415  15.018  0.00  0.00    +0.000 A 
ATOM      7  N   UNL     1       7.827   5.339  13.903  0.00  0.00    +0.000 N 
ATOM      8  N   UNL     1       7.319   4.585  12.912  0.00  0.00    +0.000 NA
ATOM      9  C   UNL     1       6.153   4.177  13.414  0.00  0.00    +0.000 A 
ATOM     10  F   UNL     1       5.337   3.393  12.764  0.00  0.00    +0.000 F 
ATOM     11  C   UNL     1       5.907   4.653  14.718  0.00  0.00    +0.000 A 
ATOM     12  C   UNL     1       4.887   4.523  15.676  0.00  0.00    +0.000 A 
ATOM     13  H   UNL     1       8.736   5.767  13.764  0.00  0.00    +0.000 HD
ENDBRANCH   2   3
BRANCH   2  14
ATOM     14  C   UNL     1       3.226   6.124  18.438  0.00  0.00    +0.000 A 
ATOM     15  C   UNL     1       2.912   6.238  19.798  0.00  0.00    +0.000 A 
ATOM     16  C   UNL     1       2.174   7.326  20.273  0.00  0.00    +0.000 A 
ATOM     17  C   UNL     1       1.743   8.329  19.398  0.00  0.00    +0.000 A 
ATOM     18  C   UNL     1       2.049   8.206  18.034  0.00  0.00    +0.000 A 
ATOM     19  C   UNL     1       2.791   7.119  17.557  0.00  0.00    +0.000 A 
BRANCH  17  20
ATOM     20  C   UNL     1       0.938   9.433  19.940  0.00  0.00    +0.000 C 
ATOM     21  C   UNL     1       0.479   9.488  21.199  0.00  0.00    +0.000 C 
BRANCH  21  22
ATOM     22  C   UNL     1      -0.332  10.649  21.623  0.00  0.00    +0.000 C 
ATOM     23  O   UNL     1      -1.039  11.308  20.885  0.00  0.00    +0.000 OA
BRANCH  22  24
ATOM     24  O   UNL     1      -0.199  10.899  22.942  0.00  0.00    +0.000 OA
ATOM     25  H   UNL     1       0.650  11.291  23.214  0.00  0.00    +0.000 HD
ENDBRANCH  22  24
ENDBRANCH  21  22
ENDBRANCH  17  20
ENDBRANCH   2  14
BRANCH   1  26
ATOM     26  C   UNL     1       2.708   3.491  19.491  0.00  0.00    +0.000 A 
ATOM     27  C   UNL     1       2.996   3.274  20.846  0.00  0.00    +0.000 A 
ATOM     28  C   UNL     1       1.975   2.942  21.740  0.00  0.00    +0.000 A 
ATOM     29  C   UNL     1       0.661   2.832  21.289  0.00  0.00    +0.000 A 
ATOM     30  C   UNL     1       0.363   3.070  19.948  0.00  0.00    +0.000 A 
ATOM     31  C   UNL     1       1.382   3.402  19.051  0.00  0.00    +0.000 A 
ENDBRANCH   1  26
BRANCH   1  33
ATOM     32  C   UNL     1       4.030   1.163  18.186  0.00  0.00    +0.000 C 
ATOM     33  C   UNL     1       4.723   2.511  18.333  0.00  0.00    +0.000 C 
ENDBRANCH   1  33
TORSDOF 7
ENDMDL
MODEL 2
REMARK VINA RESULT:      -7.9      0.231      1.060
REMARK  Name = 
REMARK  8 active torsions:
REMARK  status: ('A' for Active; 'I' for Inactive)
REMARK    1  A    between atoms: C_1  and  C_2
REMARK    2  A    between atoms: C_2  and  C_3
REMARK    3  A    between atoms: C_3  and  C_26
REMARK    4  A    between atoms: C_4  and  C_5
REMARK    5  A    between atoms: C_4  and  C_16
REMARK    6  A    between atoms: C_8  and  C_9
REMARK    7  A    between atoms: C_10  and  C_11
REMARK    8  A    between atoms: C_11  and  O_13
REMARK                            x       y       z     vdW  Elec       q    Type
REMARK                         _______ _______ _______ _____ _____    ______ ____
ROOT
ATOM      1  C   UNL     1       3.827   3.550  18.403  0.00  0.00    +0.000 C 
ATOM      2  C   UNL     1       4.030   4.809  17.925  0.00  0.00    +0.000 C 
ENDROOT
BRANCH   2   3
ATOM      3  C   UNL     1       5.082   5.046  16.901  0.00  0.00    +0.000 A 
ATOM      4  C   UNL     1       6.188   5.858  17.187  0.00  0.00    +0.000 A 
ATOM      5  C   UNL     1       7.198   6.078  16.241  0.00  0.00    +0.000 A 
ATOM      6  C   UNL     1       7.064   5.432  15.009  0.00  0.00    +0.000 A 
ATOM      7  N   UNL     1       7.873   5.401  13.901  0.00  0.00    +0.000 N 
ATOM      8  N   UNL     1       7.405   4.640  12.896  0.00  0.00    +0.000 NA
ATOM      9  C   UNL     1       6.250   4.180  13.382  0.00  0.00    +0.000 A 
ATOM     10  F   UNL     1       5.472   3.374  12.715  0.00  0.00    +0.000 F 
ATOM     11  C   UNL     1       5.974   4.631  14.689  0.00  0.00    +0.000 A 
ATOM     12  C   UNL     1       4.950   4.450  15.635  0.00  0.00    +0.000 A 
ATOM     13  H   UNL     1       8.766   5.866  13.776  0.00  0.00    +0.000 HD
ENDBRANCH   2   3
BRANCH   2  14
ATOM     14  C   UNL     1       3.259   5.963  18.460  0.00  0.00    +0.000 A 
ATOM     15  C   UNL     1       2.998   6.031  19.835  0.00  0.00    +0.000 A 
ATOM     16  C   UNL     1       2.268   7.094  20.373  0.00  0.00    +0.000 A 
ATOM     17  C   UNL     1       1.792   8.119  19.548  0.00  0.00    +0.000 A 
ATOM     18  C   UNL     1       2.045   8.043  18.169  0.00  0.00    +0.000 A 
ATOM     19  C   UNL     1       2.779   6.981  17.630  0.00  0.00    +0.000 A 
BRANCH  17  20
ATOM     20  C   UNL     1       0.998   9.196  20.156  0.00  0.00    +0.000 C 
ATOM     21  C   UNL     1       0.808   9.344  21.475  0.00  0.00    +0.000 C 
BRANCH  21  22
ATOM     22  C   UNL     1      -0.023  10.464  21.965  0.00  0.00    +0.000 C 
ATOM     23  O   UNL     1      -0.230  10.713  23.138  0.00  0.00    +0.000 OA
BRANCH  22  24
ATOM     24  O   UNL     1      -0.534  11.191  20.951  0.00  0.00    +0.000 OA
ATOM     25  H   UNL     1      -1.232  11.825  21.194  0.00  0.00    +0.000 HD
ENDBRANCH  22  24
ENDBRANCH  21  22
ENDBRANCH  17  20
ENDBRANCH   2  14
BRANCH   1  26
ATOM     26  C   UNL     1       2.725   3.276  19.358  0.00  0.00    +0.000 A 
ATOM     27  C   UNL     1       1.391   3.337  18.930  0.00  0.00    +0.000 A 
ATOM     28  C   UNL     1       0.348   3.202  19.850  0.00  0.00    +0.000 A 
ATOM     29  C   UNL     1       0.630   2.996  21.200  0.00  0.00    +0.000 A 
ATOM     30  C   UNL     1       1.953   2.909  21.629  0.00  0.00    +0.000 A 
ATOM     31  C   UNL     1       2.998   3.045  20.712  0.00  0.00    +0.000 A 
ENDBRANCH   1  26
BRANCH   1  33
ATOM     32  C   UNL     1       4.073   0.984  18.230  0.00  0.00    +0.000 C 
ATOM     33  C   UNL     1       4.734   2.354  18.146  0.00  0.00    +0.000 C 
ENDBRANCH   1  33
TORSDOF 7
ENDMDL
MODEL 3
REMARK VINA RESULT:      -7.9      6.912     11.647
REMARK  Name = 
REMARK  8 active torsions:
REMARK  status: ('A' for Active; 'I' for Inactive)
REMARK    1  A    between atoms: C_1  and  C_2
REMARK    2  A    between atoms: C_2  and  C_3
REMARK    3  A    between atoms: C_3  and  C_26
REMARK    4  A    between atoms: C_4  and  C_5
REMARK    5  A    between atoms: C_4  and  C_16
REMARK    6  A    between atoms: C_8  and  C_9
REMARK    7  A    between atoms: C_10  and  C_11
REMARK    8  A    between atoms: C_11  and  O_13
REMARK                            x       y       z     vdW  Elec       q    Type
REMARK                         _______ _______ _______ _____ _____    ______ ____
ROOT
ATOM      1  C   UNL     1      -0.406  13.961  20.631  0.00  0.00    +0.000 C 
ATOM      2  C   UNL     1      -1.054  12.774  20.789  0.00  0.00    +0.000 C 
ENDROOT
BRANCH   2   3
ATOM      3  C   UNL     1      -2.470  12.763  21.241  0.00  0.00    +0.000 A 
ATOM      4  C   UNL     1      -3.519  12.829  20.313  0.00  0.00    +0.000 A 
ATOM      5  C   UNL     1      -4.859  12.802  20.719  0.00  0.00    +0.000 A 
ATOM      6  C   UNL     1      -5.103  12.683  22.090  0.00  0.00    +0.000 A 
ATOM      7  N   UNL     1      -6.270  12.589  22.806  0.00  0.00    +0.000 N 
ATOM      8  N   UNL     1      -6.096  12.468  24.134  0.00  0.00    +0.000 NA
ATOM      9  C   UNL     1      -4.769  12.498  24.265  0.00  0.00    +0.000 A 
ATOM     10  F   UNL     1      -4.169  12.390  25.419  0.00  0.00    +0.000 F 
ATOM     11  C   UNL     1      -4.087  12.629  23.038  0.00  0.00    +0.000 A 
ATOM     12  C   UNL     1      -2.748  12.695  22.618  0.00  0.00    +0.000 A 
ATOM     13  H   UNL     1      -7.218  12.586  22.443  0.00  0.00    +0.000 HD
ENDBRANCH   2   3
BRANCH   2  14
ATOM     14  C   UNL     1      -0.345  11.482  20.578  0.00  0.00    +0.000 A 
ATOM     15  C   UNL     1       0.274  10.858  21.669  0.00  0.00    +0.000 A 
ATOM     16  C   UNL     1       0.957   9.650  21.508  0.00  0.00    +0.000 A 
ATOM     17  C   UNL     1       1.027   9.034  20.253  0.00  0.00    +0.000 A 
ATOM     18  C   UNL     1       0.416   9.668  19.160  0.00  0.00    +0.000 A 
ATOM     19  C   UNL     1      -0.272  10.876  19.320  0.00  0.00    +0.000 A 
BRANCH  17  20
ATOM     20  C   UNL     1       1.789   7.784  20.128  0.00  0.00    +0.000 C 
ATOM     21  C   UNL     1       2.435   7.398  19.017  0.00  0.00    +0.000 C 
BRANCH  21  22
ATOM     22  C   UNL     1       3.159   6.109  19.012  0.00  0.00    +0.000 C 
ATOM     23  O   UNL     1       3.558   5.542  18.013  0.00  0.00    +0.000 OA
BRANCH  22  24
ATOM     24  O   UNL     1       3.331   5.626  20.259  0.00  0.00    +0.000 OA
ATOM     25  H   UNL     1       4.254   5.561  20.563  0.00  0.00    +0.000 HD
ENDBRANCH  22  24
ENDBRANCH  21  22
ENDBRANCH  17  20
ENDBRANCH   2  14
BRANCH   1  26
ATOM     26  C   UNL     1       0.978  13.998  20.096  0.00  0.00    +0.000 A 
ATOM     27  C   UNL     1       2.072  13.995  20.972  0.00  0.00    +0.000 A 
ATOM     28  C   UNL     1       3.370  14.153  20.480  0.00  0.00    +0.000 A 
ATOM     29  C   UNL     1       3.584  14.306  19.111  0.00  0.00    +0.000 A 
ATOM     30  C   UNL     1       2.503  14.286  18.232  0.00  0.00    +0.000 A 
ATOM     31  C   UNL     1       1.204  14.129  18.720  0.00  0.00    +0.000 A 
ENDBRANCH   1  26
BRANCH   1  33
ATOM     32  C   UNL     1      -0.592  15.719  22.515  0.00  0.00    +0.000 C 
ATOM     33  C   UNL     1      -0.930  15.317  21.085  0.00  0.00    +0.000 C 
ENDBRANCH   1  33
TORSDOF 7
ENDMDL
MODEL 4
REMARK VINA RESULT:      -7.8      6.959     11.745
REMARK  Name = 
REMARK  8 active torsions:
REMARK  status: ('A' for Active; 'I' for Inactive)
REMARK    1  A    between atoms: C_1  and  C_2
REMARK    2  A    between atoms: C_2  and  C_3
REMARK    3  A    between atoms: C_3  and  C_26
REMARK    4  A    between atoms: C_4  and  C_5
REMARK    5  A    between atoms: C_4  and  C_16
REMARK    6  A    between atoms: C_8  and  C_9
REMARK    7  A    between atoms: C_10  and  C_11
REMARK    8  A    between atoms: C_11  and  O_13
REMARK                            x       y       z     vdW  Elec       q    Type
REMARK                         _______ _______ _______ _____ _____    ______ ____
ROOT
ATOM      1  C   UNL     1      -0.495  13.992  20.733  0.00  0.00    +0.000 C 
ATOM      2  C   UNL     1      -1.113  12.795  20.930  0.00  0.00    +0.000 C 
ENDROOT
BRANCH   2   3
ATOM      3  C   UNL     1      -2.539  12.763  21.349  0.00  0.00    +0.000 A 
ATOM      4  C   UNL     1      -3.566  12.803  20.396  0.00  0.00    +0.000 A 
ATOM      5  C   UNL     1      -4.915  12.755  20.771  0.00  0.00    +0.000 A 
ATOM      6  C   UNL     1      -5.189  12.644  22.136  0.00  0.00    +0.000 A 
ATOM      7  N   UNL     1      -6.371  12.536  22.825  0.00  0.00    +0.000 N 
ATOM      8  N   UNL     1      -6.227  12.430  24.158  0.00  0.00    +0.000 NA
ATOM      9  C   UNL     1      -4.904  12.483  24.320  0.00  0.00    +0.000 A 
ATOM     10  F   UNL     1      -4.329  12.397  25.488  0.00  0.00    +0.000 F 
ATOM     11  C   UNL     1      -4.196  12.616  23.108  0.00  0.00    +0.000 A 
ATOM     12  C   UNL     1      -2.848  12.702  22.719  0.00  0.00    +0.000 A 
ATOM     13  H   UNL     1      -7.310  12.513  22.440  0.00  0.00    +0.000 HD
ENDBRANCH   2   3
BRANCH   2  14
ATOM     14  C   UNL     1      -0.363  11.516  20.796  0.00  0.00    +0.000 A 
ATOM     15  C   UNL     1      -0.297  10.892  19.544  0.00  0.00    +0.000 A 
ATOM     16  C   UNL     1       0.389   9.686  19.382  0.00  0.00    +0.000 A 
ATOM     17  C   UNL     1       1.034   9.083  20.468  0.00  0.00    +0.000 A 
ATOM     18  C   UNL     1       0.957   9.705  21.724  0.00  0.00    +0.000 A 
ATOM     19  C   UNL     1       0.273  10.915  21.887  0.00  0.00    +0.000 A 
BRANCH  17  20
ATOM     20  C   UNL     1       1.711   7.796  20.254  0.00  0.00    +0.000 C 
ATOM     21  C   UNL     1       2.356   7.457  19.128  0.00  0.00    +0.000 C 
BRANCH  21  22
ATOM     22  C   UNL     1       2.988   6.125  19.029  0.00  0.00    +0.000 C 
ATOM     23  O   UNL     1       3.276   5.569  17.986  0.00  0.00    +0.000 OA
BRANCH  22  24
ATOM     24  O   UNL     1       3.215   5.586  20.244  0.00  0.00    +0.000 OA
ATOM     25  H   UNL     1       2.432   5.484  20.815  0.00  0.00    +0.000 HD
ENDBRANCH  22  24
ENDBRANCH  21  22
ENDBRANCH  17  20
ENDBRANCH   2  14
BRANCH   1  26
ATOM     26  C   UNL     1       0.900  14.045  20.229  0.00  0.00    +0.000 A 
ATOM     27  C   UNL     1       1.970  14.149  21.129  0.00  0.00    +0.000 A 
ATOM     28  C   UNL     1       3.274  14.322  20.657  0.00  0.00    +0.000 A 
ATOM     29  C   UNL     1       3.518  14.385  19.286  0.00  0.00    +0.000 A 
ATOM     30  C   UNL     1       2.462  14.259  18.385  0.00  0.00    +0.000 A 
ATOM     31  C   UNL     1       1.157  14.086  18.853  0.00  0.00    +0.000 A 
ENDBRANCH   1  26
BRANCH   1  33
ATOM     32  C   UNL     1      -1.380  16.290  19.952  0.00  0.00    +0.000 C 
ATOM     33  C   UNL     1      -1.069  15.352  21.111  0.00  0.00    +0.000 C 
ENDBRANCH   1  33
TORSDOF 7
ENDMDL
MODEL 5
REMARK VINA RESULT:      -7.7      0.794      1.681
REMARK  Name = 
REMARK  8 active torsions:
REMARK  status: ('A' for Active; 'I' for Inactive)
REMARK    1  A    between atoms: C_1  and  C_2
REMARK    2  A    between atoms: C_2  and  C_3
REMARK    3  A    between atoms: C_3  and  C_26
REMARK    4  A    between atoms: C_4  and  C_5
REMARK    5  A    between atoms: C_4  and  C_16
REMARK    6  A    between atoms: C_8  and  C_9
REMARK    7  A    between atoms: C_10  and  C_11
REMARK    8  A    between atoms: C_11  and  O_13
REMARK                            x       y       z     vdW  Elec       q    Type
REMARK                         _______ _______ _______ _____ _____    ______ ____
ROOT
ATOM      1  C   UNL     1       3.845   3.618  18.397  0.00  0.00    +0.000 C 
ATOM      2  C   UNL     1       4.042   4.850  17.851  0.00  0.00    +0.000 C 
ENDROOT
BRANCH   2   3
ATOM      3  C   UNL     1       5.102   5.039  16.825  0.00  0.00    +0.000 A 
ATOM      4  C   UNL     1       6.241   5.806  17.107  0.00  0.00    +0.000 A 
ATOM      5  C   UNL     1       7.258   5.980  16.160  0.00  0.00    +0.000 A 
ATOM      6  C   UNL     1       7.096   5.336  14.930  0.00  0.00    +0.000 A 
ATOM      7  N   UNL     1       7.902   5.267  13.821  0.00  0.00    +0.000 N 
ATOM      8  N   UNL     1       7.401   4.522  12.819  0.00  0.00    +0.000 NA
ATOM      9  C   UNL     1       6.229   4.114  13.308  0.00  0.00    +0.000 A 
ATOM     10  F   UNL     1       5.417   3.338  12.644  0.00  0.00    +0.000 F 
ATOM     11  C   UNL     1       5.973   4.580  14.614  0.00  0.00    +0.000 A 
ATOM     12  C   UNL     1       4.944   4.445  15.561  0.00  0.00    +0.000 A 
ATOM     13  H   UNL     1       8.813   5.694  13.694  0.00  0.00    +0.000 HD
ENDBRANCH   2   3
BRANCH   2  14
ATOM     14  C   UNL     1       3.255   6.026  18.314  0.00  0.00    +0.000 A 
ATOM     15  C   UNL     1       2.832   6.975  17.374  0.00  0.00    +0.000 A 
ATOM     16  C   UNL     1       2.100   8.097  17.772  0.00  0.00    +0.000 A 
ATOM     17  C   UNL     1       1.768   8.288  19.118  0.00  0.00    +0.000 A 
ATOM     18  C   UNL     1       2.203   7.341  20.058  0.00  0.00    +0.000 A 
ATOM     19  C   UNL     1       2.932   6.215  19.660  0.00  0.00    +0.000 A 
BRANCH  17  20
ATOM     20  C   UNL     1       1.029   9.503  19.491  0.00  0.00    +0.000 C 
ATOM     21  C   UNL     1       0.278  10.222  18.644  0.00  0.00    +0.000 C 
BRANCH  21  22
ATOM     22  C   UNL     1      -0.408  11.435  19.138  0.00  0.00    +0.000 C 
ATOM     23  O   UNL     1      -0.623  11.683  20.310  0.00  0.00    +0.000 OA
BRANCH  22  24
ATOM     24  O   UNL     1      -0.775  12.250  18.128  0.00  0.00    +0.000 OA
ATOM     25  H   UNL     1      -1.642  12.682  18.227  0.00  0.00    +0.000 HD
ENDBRANCH  22  24
ENDBRANCH  21  22
ENDBRANCH  17  20
ENDBRANCH   2  14
BRANCH   1  26
ATOM     26  C   UNL     1       2.736   3.388  19.355  0.00  0.00    +0.000 A 
ATOM     27  C   UNL     1       1.406   3.399  18.910  0.00  0.00    +0.000 A 
ATOM     28  C   UNL     1       0.355   3.305  19.825  0.00  0.00    +0.000 A 
ATOM     29  C   UNL     1       0.623   3.191  21.188  0.00  0.00    +0.000 A 
ATOM     30  C   UNL     1       1.943   3.155  21.636  0.00  0.00    +0.000 A 
ATOM     31  C   UNL     1       2.997   3.249  20.723  0.00  0.00    +0.000 A 
ENDBRANCH   1  26
BRANCH   1  33
ATOM     32  C   UNL     1       4.093   1.051  18.248  0.00  0.00    +0.000 C 
ATOM     33  C   UNL     1       4.765   2.417  18.215  0.00  0.00    +0.000 C 
ENDBRANCH   1  33
TORSDOF 7
ENDMDL
MODEL 6
REMARK VINA RESULT:      -7.7      6.973     11.785
REMARK  Name = 
REMARK  8 active torsions:
REMARK  status: ('A' for Active; 'I' for Inactive)
REMARK    1  A    between atoms: C_1  and  C_2
REMARK    2  A    between atoms: C_2  and  C_3
REMARK    3  A    between atoms: C_3  and  C_26
REMARK    4  A    between atoms: C_4  and  C_5
REMARK    5  A    between atoms: C_4  and  C_16
REMARK    6  A    between atoms: C_8  and  C_9
REMARK    7  A    between atoms: C_10  and  C_11
REMARK    8  A    between atoms: C_11  and  O_13
REMARK                            x       y       z     vdW  Elec       q    Type
REMARK                         _______ _______ _______ _____ _____    ______ ____
ROOT
ATOM      1  C   UNL     1      -0.495  14.178  20.716  0.00  0.00    +0.000 C 
ATOM      2  C   UNL     1      -1.122  12.968  20.722  0.00  0.00    +0.000 C 
ENDROOT
BRANCH   2   3
ATOM      3  C   UNL     1      -2.533  12.873  21.181  0.00  0.00    +0.000 A 
ATOM      4  C   UNL     1      -3.586  12.848  20.257  0.00  0.00    +0.000 A 
ATOM      5  C   UNL     1      -4.920  12.740  20.670  0.00  0.00    +0.000 A 
ATOM      6  C   UNL     1      -5.151  12.636  22.044  0.00  0.00    +0.000 A 
ATOM      7  N   UNL     1      -6.307  12.480  22.767  0.00  0.00    +0.000 N 
ATOM      8  N   UNL     1      -6.121  12.401  24.097  0.00  0.00    +0.000 NA
ATOM      9  C   UNL     1      -4.798  12.522  24.221  0.00  0.00    +0.000 A 
ATOM     10  F   UNL     1      -4.189  12.481  25.374  0.00  0.00    +0.000 F 
ATOM     11  C   UNL     1      -4.131  12.671  22.988  0.00  0.00    +0.000 A 
ATOM     12  C   UNL     1      -2.801  12.817  22.560  0.00  0.00    +0.000 A 
ATOM     13  H   UNL     1      -7.253  12.405  22.409  0.00  0.00    +0.000 HD
ENDBRANCH   2   3
BRANCH   2  14
ATOM     14  C   UNL     1      -0.394  11.728  20.338  0.00  0.00    +0.000 A 
ATOM     15  C   UNL     1       0.241  10.974  21.334  0.00  0.00    +0.000 A 
ATOM     16  C   UNL     1       0.943   9.810  21.010  0.00  0.00    +0.000 A 
ATOM     17  C   UNL     1       1.016   9.369  19.684  0.00  0.00    +0.000 A 
ATOM     18  C   UNL     1       0.388  10.132  18.687  0.00  0.00    +0.000 A 
ATOM     19  C   UNL     1      -0.318  11.297  19.010  0.00  0.00    +0.000 A 
BRANCH  17  20
ATOM     20  C   UNL     1       1.797   8.159  19.390  0.00  0.00    +0.000 C 
ATOM     21  C   UNL     1       2.356   7.889  18.201  0.00  0.00    +0.000 C 
BRANCH  21  22
ATOM     22  C   UNL     1       3.111   6.630  18.026  0.00  0.00    +0.000 C 
ATOM     23  O   UNL     1       4.301   6.562  17.782  0.00  0.00    +0.000 OA
BRANCH  22  24
ATOM     24  O   UNL     1       2.320   5.547  18.171  0.00  0.00    +0.000 OA
ATOM     25  H   UNL     1       2.777   4.716  18.389  0.00  0.00    +0.000 HD
ENDBRANCH  22  24
ENDBRANCH  21  22
ENDBRANCH  17  20
ENDBRANCH   2  14
BRANCH   1  26
ATOM     26  C   UNL     1       0.882  14.309  20.178  0.00  0.00    +0.000 A 
ATOM     27  C   UNL     1       1.089  14.443  18.798  0.00  0.00    +0.000 A 
ATOM     28  C   UNL     1       2.386  14.444  18.277  0.00  0.00    +0.000 A 
ATOM     29  C   UNL     1       3.482  14.320  19.129  0.00  0.00    +0.000 A 
ATOM     30  C   UNL     1       3.283  14.211  20.505  0.00  0.00    +0.000 A 
ATOM     31  C   UNL     1       1.989  14.209  21.029  0.00  0.00    +0.000 A 
ENDBRANCH   1  26
BRANCH   1  33
ATOM     32  C   UNL     1      -1.578  16.499  20.382  0.00  0.00    +0.000 C 
ATOM     33  C   UNL     1      -1.037  15.453  21.348  0.00  0.00    +0.000 C 
ENDBRANCH   1  33
TORSDOF 7
ENDMDL
MODEL 7
REMARK VINA RESULT:      -7.6      7.153     12.161
REMARK  Name = 
REMARK  8 active torsions:
REMARK  status: ('A' for Active; 'I' for Inactive)
REMARK    1  A    between atoms: C_1  and  C_2
REMARK    2  A    between atoms: C_2  and  C_3
REMARK    3  A    between atoms: C_3  and  C_26
REMARK    4  A    between atoms: C_4  and  C_5
REMARK    5  A    between atoms: C_4  and  C_16
REMARK    6  A    between atoms: C_8  and  C_9
REMARK    7  A    between atoms: C_10  and  C_11
REMARK    8  A    between atoms: C_11  and  O_13
REMARK                            x       y       z     vdW  Elec       q    Type
REMARK                         _______ _______ _______ _____ _____    ______ ____
ROOT
ATOM      1  C   UNL     1      -1.436  13.993  21.524  0.00  0.00    +0.000 C 
ATOM      2  C   UNL     1      -1.953  12.788  21.892  0.00  0.00    +0.000 C 
ENDROOT
BRANCH   2   3
ATOM      3  C   UNL     1      -3.287  12.729  22.546  0.00  0.00    +0.000 A 
ATOM      4  C   UNL     1      -3.399  12.722  23.943  0.00  0.00    +0.000 A 
ATOM      5  C   UNL     1      -4.648  12.686  24.577  0.00  0.00    +0.000 A 
ATOM      6  C   UNL     1      -5.777  12.678  23.753  0.00  0.00    +0.000 A 
ATOM      7  N   UNL     1      -7.118  12.684  24.041  0.00  0.00    +0.000 N 
ATOM      8  N   UNL     1      -7.916  12.691  22.958  0.00  0.00    +0.000 NA
ATOM      9  C   UNL     1      -7.047  12.679  21.946  0.00  0.00    +0.000 A 
ATOM     10  F   UNL     1      -7.416  12.697  20.695  0.00  0.00    +0.000 F 
ATOM     11  C   UNL     1      -5.701  12.671  22.364  0.00  0.00    +0.000 A 
ATOM     12  C   UNL     1      -4.440  12.670  21.743  0.00  0.00    +0.000 A 
ATOM     13  H   UNL     1      -7.552  12.699  24.958  0.00  0.00    +0.000 HD
ENDBRANCH   2   3
BRANCH   2  14
ATOM     14  C   UNL     1      -1.174  11.533  21.708  0.00  0.00    +0.000 A 
ATOM     15  C   UNL     1      -0.953  11.052  20.411  0.00  0.00    +0.000 A 
ATOM     16  C   UNL     1      -0.235   9.872  20.199  0.00  0.00    +0.000 A 
ATOM     17  C   UNL     1       0.287   9.154  21.281  0.00  0.00    +0.000 A 
ATOM     18  C   UNL     1       0.055   9.633  22.579  0.00  0.00    +0.000 A 
ATOM     19  C   UNL     1      -0.661  10.816  22.792  0.00  0.00    +0.000 A 
BRANCH  17  20
ATOM     20  C   UNL     1       1.003   7.899  21.008  0.00  0.00    +0.000 C 
ATOM     21  C   UNL     1       1.873   7.727  20.002  0.00  0.00    +0.000 C 
BRANCH  21  22
ATOM     22  C   UNL     1       2.522   6.411  19.824  0.00  0.00    +0.000 C 
ATOM     23  O   UNL     1       3.034   6.024  18.790  0.00  0.00    +0.000 OA
BRANCH  22  24
ATOM     24  O   UNL     1       2.483   5.676  20.953  0.00  0.00    +0.000 OA
ATOM     25  H   UNL     1       1.750   5.038  21.018  0.00  0.00    +0.000 HD
ENDBRANCH  22  24
ENDBRANCH  21  22
ENDBRANCH  17  20
ENDBRANCH   2  14
BRANCH   1  26
ATOM     26  C   UNL     1      -0.148  14.067  20.790  0.00  0.00    +0.000 A 
ATOM     27  C   UNL     1       1.065  13.918  21.479  0.00  0.00    +0.000 A 
ATOM     28  C   UNL     1       2.280  14.108  20.816  0.00  0.00    +0.000 A 
ATOM     29  C   UNL     1       2.293  14.440  19.462  0.00  0.00    +0.000 A 
ATOM     30  C   UNL     1       1.092  14.566  18.766  0.00  0.00    +0.000 A 
ATOM     31  C   UNL     1      -0.125  14.377  19.425  0.00  0.00    +0.000 A 
ENDBRANCH   1  26
BRANCH   1  33
ATOM     32  C   UNL     1      -1.396  16.000  23.150  0.00  0.00    +0.000 C 
ATOM     33  C   UNL     1      -2.005  15.351  21.914  0.00  0.00    +0.000 C 
ENDBRANCH   1  33
TORSDOF 7
ENDMDL
MODEL 8
REMARK VINA RESULT:      -7.6      7.137     12.073
REMARK  Name = 
REMARK  8 active torsions:
REMARK  status: ('A' for Active; 'I' for Inactive)
REMARK    1  A    between atoms: C_1  and  C_2
REMARK    2  A    between atoms: C_2  and  C_3
REMARK    3  A    between atoms: C_3  and  C_26
REMARK    4  A    between atoms: C_4  and  C_5
REMARK    5  A    between atoms: C_4  and  C_16
REMARK    6  A    between atoms: C_8  and  C_9
REMARK    7  A    between atoms: C_10  and  C_11
REMARK    8  A    between atoms: C_11  and  O_13
REMARK                            x       y       z     vdW  Elec       q    Type
REMARK                         _______ _______ _______ _____ _____    ______ ____
ROOT
ATOM      1  C   UNL     1      -1.278  14.029  21.428  0.00  0.00    +0.000 C 
ATOM      2  C   UNL     1      -1.823  12.824  21.755  0.00  0.00    +0.000 C 
ENDROOT
BRANCH   2   3
ATOM      3  C   UNL     1      -3.168  12.773  22.386  0.00  0.00    +0.000 A 
ATOM      4  C   UNL     1      -3.303  12.619  23.773  0.00  0.00    +0.000 A 
ATOM      5  C   UNL     1      -4.562  12.587  24.387  0.00  0.00    +0.000 A 
ATOM      6  C   UNL     1      -5.675  12.738  23.557  0.00  0.00    +0.000 A 
ATOM      7  N   UNL     1      -7.019  12.791  23.831  0.00  0.00    +0.000 N 
ATOM      8  N   UNL     1      -7.798  12.965  22.748  0.00  0.00    +0.000 NA
ATOM      9  C   UNL     1      -6.915  13.013  21.750  0.00  0.00    +0.000 A 
ATOM     10  F   UNL     1      -7.262  13.191  20.505  0.00  0.00    +0.000 F 
ATOM     11  C   UNL     1      -5.578  12.878  22.177  0.00  0.00    +0.000 A 
ATOM     12  C   UNL     1      -4.310  12.872  21.572  0.00  0.00    +0.000 A 
ATOM     13  H   UNL     1      -7.466  12.731  24.740  0.00  0.00    +0.000 HD
ENDBRANCH   2   3
BRANCH   2  14
ATOM     14  C   UNL     1      -1.064  11.561  21.550  0.00  0.00    +0.000 A 
ATOM     15  C   UNL     1      -0.508  10.912  22.661  0.00  0.00    +0.000 A 
ATOM     16  C   UNL     1       0.221   9.729  22.507  0.00  0.00    +0.000 A 
ATOM     17  C   UNL     1       0.399   9.164  21.239  0.00  0.00    +0.000 A 
ATOM     18  C   UNL     1      -0.149   9.822  20.128  0.00  0.00    +0.000 A 
ATOM     19  C   UNL     1      -0.882  11.005  20.281  0.00  0.00    +0.000 A 
BRANCH  17  20
ATOM     20  C   UNL     1       1.205   7.940  21.125  0.00  0.00    +0.000 C 
ATOM     21  C   UNL     1       1.846   7.556  20.011  0.00  0.00    +0.000 C 
BRANCH  21  22
ATOM     22  C   UNL     1       2.617   6.294  20.019  0.00  0.00    +0.000 C 
ATOM     23  O   UNL     1       3.538   6.040  19.266  0.00  0.00    +0.000 OA
BRANCH  22  24
ATOM     24  O   UNL     1       2.178   5.444  20.969  0.00  0.00    +0.000 OA
ATOM     25  H   UNL     1       2.565   5.563  21.854  0.00  0.00    +0.000 HD
ENDBRANCH  22  24
ENDBRANCH  21  22
ENDBRANCH  17  20
ENDBRANCH   2  14
BRANCH   1  26
ATOM     26  C   UNL     1       0.023  14.098  20.718  0.00  0.00    +0.000 A 
ATOM     27  C   UNL     1       0.058  14.232  19.322  0.00  0.00    +0.000 A 
ATOM     28  C   UNL     1       1.274  14.174  18.638  0.00  0.00    +0.000 A 
ATOM     29  C   UNL     1       2.464  13.992  19.342  0.00  0.00    +0.000 A 
ATOM     30  C   UNL     1       2.439  13.883  20.731  0.00  0.00    +0.000 A 
ATOM     31  C   UNL     1       1.224  13.939  21.419  0.00  0.00    +0.000 A 
ENDBRANCH   1  26
BRANCH   1  33
ATOM     32  C   UNL     1      -1.374  15.901  23.205  0.00  0.00    +0.000 C 
ATOM     33  C   UNL     1      -1.828  15.386  21.845  0.00  0.00    +0.000 C 
ENDBRANCH   1  33
TORSDOF 7
ENDMDL
MODEL 9
REMARK VINA RESULT:      -7.6      7.109     10.398
REMARK  Name = 
REMARK  8 active torsions:
REMARK  status: ('A' for Active; 'I' for Inactive)
REMARK    1  A    between atoms: C_1  and  C_2
REMARK    2  A    between atoms: C_2  and  C_3
REMARK    3  A    between atoms: C_3  and  C_26
REMARK    4  A    between atoms: C_4  and  C_5
REMARK    5  A    between atoms: C_4  and  C_16
REMARK    6  A    between atoms: C_8  and  C_9
REMARK    7  A    between atoms: C_10  and  C_11
REMARK    8  A    between atoms: C_11  and  O_13
REMARK                            x       y       z     vdW  Elec       q    Type
REMARK                         _______ _______ _______ _____ _____    ______ ____
ROOT
ATOM      1  C   UNL     1       0.428  10.315  21.012  0.00  0.00    +0.000 C 
ATOM      2  C   UNL     1      -0.576  11.167  20.664  0.00  0.00    +0.000 C 
ENDROOT
BRANCH   2   3
ATOM      3  C   UNL     1      -1.133  12.100  21.678  0.00  0.00    +0.000 A 
ATOM      4  C   UNL     1      -2.328  11.800  22.346  0.00  0.00    +0.000 A 
ATOM      5  C   UNL     1      -2.859  12.659  23.318  0.00  0.00    +0.000 A 
ATOM      6  C   UNL     1      -2.131  13.815  23.607  0.00  0.00    +0.000 A 
ATOM      7  N   UNL     1      -2.342  14.826  24.512  0.00  0.00    +0.000 N 
ATOM      8  N   UNL     1      -1.392  15.779  24.508  0.00  0.00    +0.000 NA
ATOM      9  C   UNL     1      -0.555  15.362  23.557  0.00  0.00    +0.000 A 
ATOM     10  F   UNL     1       0.533  16.007  23.239  0.00  0.00    +0.000 F 
ATOM     11  C   UNL     1      -0.949  14.150  22.954  0.00  0.00    +0.000 A 
ATOM     12  C   UNL     1      -0.449  13.297  21.956  0.00  0.00    +0.000 A 
ATOM     13  H   UNL     1      -3.107  14.913  25.172  0.00  0.00    +0.000 HD
ENDBRANCH   2   3
BRANCH   2  14
ATOM     14  C   UNL     1      -1.169  11.133  19.299  0.00  0.00    +0.000 A 
ATOM     15  C   UNL     1      -1.943  10.029  18.920  0.00  0.00    +0.000 A 
ATOM     16  C   UNL     1      -2.508   9.957  17.644  0.00  0.00    +0.000 A 
ATOM     17  C   UNL     1      -2.318  10.993  16.722  0.00  0.00    +0.000 A 
ATOM     18  C   UNL     1      -1.533  12.092  17.102  0.00  0.00    +0.000 A 
ATOM     19  C   UNL     1      -0.970  12.168  18.381  0.00  0.00    +0.000 A 
BRANCH  17  20
ATOM     20  C   UNL     1      -2.901  10.853  15.381  0.00  0.00    +0.000 C 
ATOM     21  C   UNL     1      -2.838   9.736  14.641  0.00  0.00    +0.000 C 
BRANCH  21  22
ATOM     22  C   UNL     1      -3.455   9.722  13.297  0.00  0.00    +0.000 C 
ATOM     23  O   UNL     1      -4.652   9.774  13.083  0.00  0.00    +0.000 OA
BRANCH  22  24
ATOM     24  O   UNL     1      -2.529   9.645  12.321  0.00  0.00    +0.000 OA
ATOM     25  H   UNL     1      -2.205   8.750  12.115  0.00  0.00    +0.000 HD
ENDBRANCH  22  24
ENDBRANCH  21  22
ENDBRANCH  17  20
ENDBRANCH   2  14
BRANCH   1  26
ATOM     26  C   UNL     1       1.059   9.439  19.993  0.00  0.00    +0.000 A 
ATOM     27  C   UNL     1       1.383   8.112  20.309  0.00  0.00    +0.000 A 
ATOM     28  C   UNL     1       2.086   7.321  19.397  0.00  0.00    +0.000 A 
ATOM     29  C   UNL     1       2.462   7.847  18.161  0.00  0.00    +0.000 A 
ATOM     30  C   UNL     1       2.122   9.158  17.831  0.00  0.00    +0.000 A 
ATOM     31  C   UNL     1       1.419   9.951  18.742  0.00  0.00    +0.000 A 
ENDBRANCH   1  26
BRANCH   1  33
ATOM     32  C   UNL     1      -0.054   9.322  23.347  0.00  0.00    +0.000 C 
ATOM     33  C   UNL     1       0.914  10.061  22.433  0.00  0.00    +0.000 C 
ENDBRANCH   1  33
TORSDOF 7
ENDMDL
