MODEL 1
REMARK VINA RESULT:      -7.1      0.000      0.000
REMARK  Name = 
REMARK  10 active torsions:
REMARK  status: ('A' for Active; 'I' for Inactive)
REMARK    1  A    between atoms: C_1  and  C_2
REMARK    2  A    between atoms: C_2  and  O_3
REMARK    3  A    between atoms: O_3  and  C_4
REMARK    4  A    between atoms: C_4  and  C_5
REMARK    5  A    between atoms: C_5  and  C_6
REMARK    6  A    between atoms: C_6  and  N_7
REMARK    7  A    between atoms: C_8  and  C_10
REMARK    8  A    between atoms: C_17  and  C_18
REMARK    9  A    between atoms: C_20  and  C_21
REMARK   10  A    between atoms: N_22  and  C_23
REMARK                            x       y       z     vdW  Elec       q    Type
REMARK                         _______ _______ _______ _____ _____    ______ ____
ROOT
ATOM      1  C   UNL     1       1.486  11.431  19.298  0.00  0.00    +0.000 C 
ATOM      2  C   UNL     1       2.234  10.522  18.302  0.00  0.00    +0.000 C 
ATOM      3  C   UNL     1       1.613   9.127  18.214  0.00  0.00    +0.000 C 
ATOM      4  N   UNL     1       1.562   8.593  19.563  0.00  0.00    +0.000 N 
ATOM      5  C   UNL     1       1.847   7.264  19.833  0.00  0.00    +0.000 A 
ATOM      6  N   UNL     1       1.240   6.625  20.888  0.00  0.00    +0.000 NA
ATOM      7  N   UNL     1       1.501   5.265  21.331  0.00  0.00    +0.000 NA
ATOM      8  C   UNL     1       2.404   4.439  20.742  0.00  0.00    +0.000 A 
ATOM      9  C   UNL     1       2.573   3.082  21.327  0.00  0.00    +0.000 C 
ATOM     10  C   UNL     1       3.049   5.054  19.653  0.00  0.00    +0.000 A 
ATOM     11  C   UNL     1       4.035   4.507  18.855  0.00  0.00    +0.000 A 
ATOM     12  C   UNL     1       4.752   3.207  18.939  0.00  0.00    +0.000 C 
ATOM     13  N   UNL     1       4.309   5.487  17.899  0.00  0.00    +0.000 N 
ATOM     14  N   UNL     1       3.678   6.659  18.177  0.00  0.00    +0.000 NA
ATOM     15  C   UNL     1       2.819   6.411  19.190  0.00  0.00    +0.000 A 
ATOM     16  C   UNL     1       0.674   9.314  20.473  0.00  0.00    +0.000 C 
ATOM     17  C   UNL     1       1.246  10.725  20.646  0.00  0.00    +0.000 C 
ENDROOT
BRANCH  13  18
ATOM     18  C   UNL     1       5.118   5.405  16.714  0.00  0.00    +0.000 A 
ATOM     19  C   UNL     1       6.347   6.074  16.607  0.00  0.00    +0.000 A 
ATOM     20  C   UNL     1       7.142   5.940  15.463  0.00  0.00    +0.000 A 
ATOM     21  C   UNL     1       6.722   5.128  14.416  0.00  0.00    +0.000 A 
ATOM     22 CL   UNL     1       7.728   4.930  13.036  0.00  0.00    +0.000 Cl
ATOM     23  C   UNL     1       5.504   4.457  14.499  0.00  0.00    +0.000 A 
ATOM     24  C   UNL     1       4.707   4.589  15.646  0.00  0.00    +0.000 A 
ENDBRANCH  13  18
BRANCH   1  26
ATOM     25  N   UNL     1      -0.940  11.247  19.143  0.00  0.00    +0.000 N 
ATOM     26  C   UNL     1       0.171  11.943  18.717  0.00  0.00    +0.000 C 
ATOM     27  O   UNL     1       0.110  12.883  17.932  0.00  0.00    +0.000 OA
ATOM     28  H   UNL     1      -0.821  10.395  19.673  0.00  0.00    +0.000 HD
BRANCH  25  29
ATOM     29  C   UNL     1      -2.270  11.608  18.693  0.00  0.00    +0.000 C 
BRANCH  29  30
ATOM     30  C   UNL     1      -2.835  10.588  17.708  0.00  0.00    +0.000 C 
BRANCH  30  31
ATOM     31  C   UNL     1      -4.154  11.066  17.110  0.00  0.00    +0.000 C 
BRANCH  31  32
ATOM     32  O   UNL     1      -4.148  10.807  15.710  0.00  0.00    +0.000 OA
BRANCH  32  34
ATOM     33  C   UNL     1      -3.035   9.896  13.811  0.00  0.00    +0.000 C 
ATOM     34  C   UNL     1      -3.110   9.913  15.325  0.00  0.00    +0.000 C 
ENDBRANCH  32  34
ENDBRANCH  31  32
ENDBRANCH  30  31
ENDBRANCH  29  30
ENDBRANCH  25  29
ENDBRANCH   1  26
TORSDOF 7
ENDMDL
MODEL 2
REMARK VINA RESULT:      -7.1      0.970      1.425
REMARK  Name = 
REMARK  10 active torsions:
REMARK  status: ('A' for Active; 'I' for Inactive)
REMARK    1  A    between atoms: C_1  and  C_2
REMARK    2  A    between atoms: C_2  and  O_3
REMARK    3  A    between atoms: O_3  and  C_4
REMARK    4  A    between atoms: C_4  and  C_5
REMARK    5  A    between atoms: C_5  and  C_6
REMARK    6  A    between atoms: C_6  and  N_7
REMARK    7  A    between atoms: C_8  and  C_10
REMARK    8  A    between atoms: C_17  and  C_18
REMARK    9  A    between atoms: C_20  and  C_21
REMARK   10  A    between atoms: N_22  and  C_23
REMARK                            x       y       z     vdW  Elec       q    Type
REMARK                         _______ _______ _______ _____ _____    ______ ____
ROOT
ATOM      1  C   UNL     1       1.282  11.139  19.300  0.00  0.00    +0.000 C 
ATOM      2  C   UNL     1       2.056  10.260  18.296  0.00  0.00    +0.000 C 
ATOM      3  C   UNL     1       1.500   8.838  18.223  0.00  0.00    +0.000 C 
ATOM      4  N   UNL     1       1.492   8.309  19.576  0.00  0.00    +0.000 N 
ATOM      5  C   UNL     1       1.841   6.996  19.848  0.00  0.00    +0.000 A 
ATOM      6  N   UNL     1       1.279   6.335  20.913  0.00  0.00    +0.000 NA
ATOM      7  N   UNL     1       1.610   4.990  21.359  0.00  0.00    +0.000 NA
ATOM      8  C   UNL     1       2.542   4.204  20.760  0.00  0.00    +0.000 A 
ATOM      9  C   UNL     1       2.781   2.859  21.348  0.00  0.00    +0.000 C 
ATOM     10  C   UNL     1       3.142   4.842  19.659  0.00  0.00    +0.000 A 
ATOM     11  C   UNL     1       4.141   4.338  18.850  0.00  0.00    +0.000 A 
ATOM     12  C   UNL     1       4.918   3.072  18.929  0.00  0.00    +0.000 C 
ATOM     13  N   UNL     1       4.356   5.324  17.886  0.00  0.00    +0.000 N 
ATOM     14  N   UNL     1       3.675   6.467  18.168  0.00  0.00    +0.000 NA
ATOM     15  C   UNL     1       2.843   6.185  19.194  0.00  0.00    +0.000 A 
ATOM     16  C   UNL     1       0.585   8.993  20.495  0.00  0.00    +0.000 C 
ATOM     17  C   UNL     1       1.094  10.430  20.654  0.00  0.00    +0.000 C 
ENDROOT
BRANCH  13  18
ATOM     18  C   UNL     1       5.151   5.274  16.690  0.00  0.00    +0.000 A 
ATOM     19  C   UNL     1       6.377   5.949  16.585  0.00  0.00    +0.000 A 
ATOM     20  C   UNL     1       7.159   5.845  15.429  0.00  0.00    +0.000 A 
ATOM     21  C   UNL     1       6.728   5.058  14.367  0.00  0.00    +0.000 A 
ATOM     22 CL   UNL     1       7.719   4.897  12.971  0.00  0.00    +0.000 Cl
ATOM     23  C   UNL     1       5.513   4.382  14.448  0.00  0.00    +0.000 A 
ATOM     24  C   UNL     1       4.729   4.484  15.607  0.00  0.00    +0.000 A 
ENDBRANCH  13  18
BRANCH   1  26
ATOM     25  N   UNL     1      -0.520  10.813  17.691  0.00  0.00    +0.000 N 
ATOM     26  C   UNL     1      -0.064  11.587  18.735  0.00  0.00    +0.000 C 
ATOM     27  O   UNL     1      -0.677  12.557  19.166  0.00  0.00    +0.000 OA
ATOM     28  H   UNL     1       0.089  10.117  17.282  0.00  0.00    +0.000 HD
BRANCH  25  29
ATOM     29  C   UNL     1      -1.787  11.096  17.044  0.00  0.00    +0.000 C 
BRANCH  29  30
ATOM     30  C   UNL     1      -2.870  10.100  17.451  0.00  0.00    +0.000 C 
BRANCH  30  31
ATOM     31  C   UNL     1      -4.086  10.811  18.034  0.00  0.00    +0.000 C 
BRANCH  31  32
ATOM     32  O   UNL     1      -4.885  11.312  16.967  0.00  0.00    +0.000 OA
BRANCH  32  34
ATOM     33  C   UNL     1      -6.770  11.104  18.408  0.00  0.00    +0.000 C 
ATOM     34  C   UNL     1      -6.041  12.002  17.427  0.00  0.00    +0.000 C 
ENDBRANCH  32  34
ENDBRANCH  31  32
ENDBRANCH  30  31
ENDBRANCH  29  30
ENDBRANCH  25  29
ENDBRANCH   1  26
TORSDOF 7
ENDMDL
MODEL 3
REMARK VINA RESULT:      -7.1      0.549      1.049
REMARK  Name = 
REMARK  10 active torsions:
REMARK  status: ('A' for Active; 'I' for Inactive)
REMARK    1  A    between atoms: C_1  and  C_2
REMARK    2  A    between atoms: C_2  and  O_3
REMARK    3  A    between atoms: O_3  and  C_4
REMARK    4  A    between atoms: C_4  and  C_5
REMARK    5  A    between atoms: C_5  and  C_6
REMARK    6  A    between atoms: C_6  and  N_7
REMARK    7  A    between atoms: C_8  and  C_10
REMARK    8  A    between atoms: C_17  and  C_18
REMARK    9  A    between atoms: C_20  and  C_21
REMARK   10  A    between atoms: N_22  and  C_23
REMARK                            x       y       z     vdW  Elec       q    Type
REMARK                         _______ _______ _______ _____ _____    ______ ____
ROOT
ATOM      1  C   UNL     1       1.490  11.156  19.330  0.00  0.00    +0.000 C 
ATOM      2  C   UNL     1       2.250  10.249  18.342  0.00  0.00    +0.000 C 
ATOM      3  C   UNL     1       1.638   8.850  18.253  0.00  0.00    +0.000 C 
ATOM      4  N   UNL     1       1.579   8.319  19.604  0.00  0.00    +0.000 N 
ATOM      5  C   UNL     1       1.869   6.993  19.880  0.00  0.00    +0.000 A 
ATOM      6  N   UNL     1       1.258   6.354  20.931  0.00  0.00    +0.000 NA
ATOM      7  N   UNL     1       1.524   4.996  21.381  0.00  0.00    +0.000 NA
ATOM      8  C   UNL     1       2.436   4.174  20.800  0.00  0.00    +0.000 A 
ATOM      9  C   UNL     1       2.608   2.819  21.390  0.00  0.00    +0.000 C 
ATOM     10  C   UNL     1       3.086   4.789  19.714  0.00  0.00    +0.000 A 
ATOM     11  C   UNL     1       4.081   4.246  18.926  0.00  0.00    +0.000 A 
ATOM     12  C   UNL     1       4.803   2.949  19.019  0.00  0.00    +0.000 C 
ATOM     13  N   UNL     1       4.356   5.224  17.970  0.00  0.00    +0.000 N 
ATOM     14  N   UNL     1       3.717   6.394  18.239  0.00  0.00    +0.000 NA
ATOM     15  C   UNL     1       2.851   6.144  19.246  0.00  0.00    +0.000 A 
ATOM     16  C   UNL     1       0.681   9.039  20.505  0.00  0.00    +0.000 C 
ATOM     17  C   UNL     1       1.244  10.453  20.678  0.00  0.00    +0.000 C 
ENDROOT
BRANCH  13  18
ATOM     18  C   UNL     1       5.175   5.144  16.791  0.00  0.00    +0.000 A 
ATOM     19  C   UNL     1       4.762   4.444  15.647  0.00  0.00    +0.000 A 
ATOM     20  C   UNL     1       5.553   4.421  14.493  0.00  0.00    +0.000 A 
ATOM     21  C   UNL     1       6.763   5.106  14.466  0.00  0.00    +0.000 A 
ATOM     22 CL   UNL     1       7.704   5.113  13.027  0.00  0.00    +0.000 Cl
ATOM     23  C   UNL     1       7.194   5.804  15.591  0.00  0.00    +0.000 A 
ATOM     24  C   UNL     1       6.401   5.829  16.748  0.00  0.00    +0.000 A 
ENDBRANCH  13  18
BRANCH   1  26
ATOM     25  N   UNL     1      -0.929  10.938  19.130  0.00  0.00    +0.000 N 
ATOM     26  C   UNL     1       0.177  11.660  18.738  0.00  0.00    +0.000 C 
ATOM     27  O   UNL     1       0.114  12.614  17.971  0.00  0.00    +0.000 OA
ATOM     28  H   UNL     1      -0.806  10.076  19.645  0.00  0.00    +0.000 HD
BRANCH  25  29
ATOM     29  C   UNL     1      -2.258  11.287  18.665  0.00  0.00    +0.000 C 
BRANCH  29  30
ATOM     30  C   UNL     1      -2.868  10.185  17.802  0.00  0.00    +0.000 C 
BRANCH  30  31
ATOM     31  C   UNL     1      -2.031   9.933  16.553  0.00  0.00    +0.000 C 
BRANCH  31  32
ATOM     32  O   UNL     1      -2.871   9.405  15.531  0.00  0.00    +0.000 OA
BRANCH  32  34
ATOM     33  C   UNL     1      -3.607   9.859  13.312  0.00  0.00    +0.000 C 
ATOM     34  C   UNL     1      -3.433  10.422  14.708  0.00  0.00    +0.000 C 
ENDBRANCH  32  34
ENDBRANCH  31  32
ENDBRANCH  30  31
ENDBRANCH  29  30
ENDBRANCH  25  29
ENDBRANCH   1  26
TORSDOF 7
ENDMDL
MODEL 4
REMARK VINA RESULT:      -7.0      1.054      1.909
REMARK  Name = 
REMARK  10 active torsions:
REMARK  status: ('A' for Active; 'I' for Inactive)
REMARK    1  A    between atoms: C_1  and  C_2
REMARK    2  A    between atoms: C_2  and  O_3
REMARK    3  A    between atoms: O_3  and  C_4
REMARK    4  A    between atoms: C_4  and  C_5
REMARK    5  A    between atoms: C_5  and  C_6
REMARK    6  A    between atoms: C_6  and  N_7
REMARK    7  A    between atoms: C_8  and  C_10
REMARK    8  A    between atoms: C_17  and  C_18
REMARK    9  A    between atoms: C_20  and  C_21
REMARK   10  A    between atoms: N_22  and  C_23
REMARK                            x       y       z     vdW  Elec       q    Type
REMARK                         _______ _______ _______ _____ _____    ______ ____
ROOT
ATOM      1  C   UNL     1       1.383  11.247  18.991  0.00  0.00    +0.000 C 
ATOM      2  C   UNL     1       2.164  10.306  18.051  0.00  0.00    +0.000 C 
ATOM      3  C   UNL     1       1.580   8.892  18.032  0.00  0.00    +0.000 C 
ATOM      4  N   UNL     1       1.528   8.429  19.407  0.00  0.00    +0.000 N 
ATOM      5  C   UNL     1       1.844   7.125  19.750  0.00  0.00    +0.000 A 
ATOM      6  N   UNL     1       1.242   6.527  20.832  0.00  0.00    +0.000 NA
ATOM      7  N   UNL     1       1.533   5.199  21.349  0.00  0.00    +0.000 NA
ATOM      8  C   UNL     1       2.463   4.367  20.813  0.00  0.00    +0.000 A 
ATOM      9  C   UNL     1       2.661   3.048  21.471  0.00  0.00    +0.000 C 
ATOM     10  C   UNL     1       3.104   4.940  19.699  0.00  0.00    +0.000 A 
ATOM     11  C   UNL     1       4.112   4.378  18.940  0.00  0.00    +0.000 A 
ATOM     12  C   UNL     1       4.860   3.102  19.100  0.00  0.00    +0.000 C 
ATOM     13  N   UNL     1       4.371   5.312  17.937  0.00  0.00    +0.000 N 
ATOM     14  N   UNL     1       3.707   6.481  18.146  0.00  0.00    +0.000 NA
ATOM     15  C   UNL     1       2.844   6.265  19.162  0.00  0.00    +0.000 A 
ATOM     16  C   UNL     1       0.612   9.175  20.269  0.00  0.00    +0.000 C 
ATOM     17  C   UNL     1       1.147  10.607  20.372  0.00  0.00    +0.000 C 
ENDROOT
BRANCH  13  18
ATOM     18  C   UNL     1       5.194   5.189  16.765  0.00  0.00    +0.000 A 
ATOM     19  C   UNL     1       4.794   4.434  15.652  0.00  0.00    +0.000 A 
ATOM     20  C   UNL     1       5.589   4.369  14.503  0.00  0.00    +0.000 A 
ATOM     21  C   UNL     1       6.791   5.066  14.448  0.00  0.00    +0.000 A 
ATOM     22 CL   UNL     1       7.737   5.020  13.014  0.00  0.00    +0.000 Cl
ATOM     23  C   UNL     1       7.210   5.819  15.542  0.00  0.00    +0.000 A 
ATOM     24  C   UNL     1       6.413   5.886  16.695  0.00  0.00    +0.000 A 
ENDBRANCH  13  18
BRANCH   1  26
ATOM     25  N   UNL     1      -0.602  10.698  17.686  0.00  0.00    +0.000 N 
ATOM     26  C   UNL     1       0.062  11.693  18.371  0.00  0.00    +0.000 C 
ATOM     27  O   UNL     1      -0.365  12.838  18.466  0.00  0.00    +0.000 OA
ATOM     28  H   UNL     1      -0.139   9.815  17.517  0.00  0.00    +0.000 HD
BRANCH  25  29
ATOM     29  C   UNL     1      -1.877  10.951  17.043  0.00  0.00    +0.000 C 
BRANCH  29  30
ATOM     30  C   UNL     1      -3.023  10.231  17.749  0.00  0.00    +0.000 C 
BRANCH  30  31
ATOM     31  C   UNL     1      -4.366  10.877  17.426  0.00  0.00    +0.000 C 
BRANCH  31  32
ATOM     32  O   UNL     1      -5.059  11.135  18.643  0.00  0.00    +0.000 OA
BRANCH  32  34
ATOM     33  C   UNL     1      -5.719  12.888  20.114  0.00  0.00    +0.000 C 
ATOM     34  C   UNL     1      -4.579  12.297  19.310  0.00  0.00    +0.000 C 
ENDBRANCH  32  34
ENDBRANCH  31  32
ENDBRANCH  30  31
ENDBRANCH  29  30
ENDBRANCH  25  29
ENDBRANCH   1  26
TORSDOF 7
ENDMDL
MODEL 5
REMARK VINA RESULT:      -6.7      2.006      3.034
REMARK  Name = 
REMARK  10 active torsions:
REMARK  status: ('A' for Active; 'I' for Inactive)
REMARK    1  A    between atoms: C_1  and  C_2
REMARK    2  A    between atoms: C_2  and  O_3
REMARK    3  A    between atoms: O_3  and  C_4
REMARK    4  A    between atoms: C_4  and  C_5
REMARK    5  A    between atoms: C_5  and  C_6
REMARK    6  A    between atoms: C_6  and  N_7
REMARK    7  A    between atoms: C_8  and  C_10
REMARK    8  A    between atoms: C_17  and  C_18
REMARK    9  A    between atoms: C_20  and  C_21
REMARK   10  A    between atoms: N_22  and  C_23
REMARK                            x       y       z     vdW  Elec       q    Type
REMARK                         _______ _______ _______ _____ _____    ______ ____
ROOT
ATOM      1  C   UNL     1       1.302  10.975  19.443  0.00  0.00    +0.000 C 
ATOM      2  C   UNL     1       2.077  10.123  18.418  0.00  0.00    +0.000 C 
ATOM      3  C   UNL     1       1.529   8.699  18.317  0.00  0.00    +0.000 C 
ATOM      4  N   UNL     1       1.531   8.141  19.658  0.00  0.00    +0.000 N 
ATOM      5  C   UNL     1       1.890   6.826  19.901  0.00  0.00    +0.000 A 
ATOM      6  N   UNL     1       1.338   6.139  20.955  0.00  0.00    +0.000 NA
ATOM      7  N   UNL     1       1.679   4.787  21.371  0.00  0.00    +0.000 NA
ATOM      8  C   UNL     1       2.613   4.020  20.751  0.00  0.00    +0.000 A 
ATOM      9  C   UNL     1       2.864   2.664  21.310  0.00  0.00    +0.000 C 
ATOM     10  C   UNL     1       3.204   4.685  19.661  0.00  0.00    +0.000 A 
ATOM     11  C   UNL     1       4.202   4.204  18.837  0.00  0.00    +0.000 A 
ATOM     12  C   UNL     1       4.987   2.942  18.886  0.00  0.00    +0.000 C 
ATOM     13  N   UNL     1       4.406   5.212  17.893  0.00  0.00    +0.000 N 
ATOM     14  N   UNL     1       3.720   6.344  18.202  0.00  0.00    +0.000 NA
ATOM     15  C   UNL     1       2.894   6.036  19.226  0.00  0.00    +0.000 A 
ATOM     16  C   UNL     1       0.624   8.801  20.596  0.00  0.00    +0.000 C 
ATOM     17  C   UNL     1       1.124  10.237  20.783  0.00  0.00    +0.000 C 
ENDROOT
BRANCH  13  18
ATOM     18  C   UNL     1       5.196   5.192  16.693  0.00  0.00    +0.000 A 
ATOM     19  C   UNL     1       6.409   5.890  16.590  0.00  0.00    +0.000 A 
ATOM     20  C   UNL     1       7.186   5.816  15.429  0.00  0.00    +0.000 A 
ATOM     21  C   UNL     1       6.765   5.035  14.359  0.00  0.00    +0.000 A 
ATOM     22 CL   UNL     1       7.751   4.911  12.957  0.00  0.00    +0.000 Cl
ATOM     23  C   UNL     1       5.563   4.336  14.437  0.00  0.00    +0.000 A 
ATOM     24  C   UNL     1       4.783   4.408  15.602  0.00  0.00    +0.000 A 
ENDBRANCH  13  18
BRANCH   1  26
ATOM     25  N   UNL     1      -0.667  12.398  19.651  0.00  0.00    +0.000 N 
ATOM     26  C   UNL     1      -0.049  11.427  18.894  0.00  0.00    +0.000 C 
ATOM     27  O   UNL     1      -0.545  10.958  17.876  0.00  0.00    +0.000 OA
ATOM     28  H   UNL     1      -0.284  12.645  20.554  0.00  0.00    +0.000 HD
BRANCH  25  29
ATOM     29  C   UNL     1      -1.954  12.944  19.267  0.00  0.00    +0.000 C 
BRANCH  29  30
ATOM     30  C   UNL     1      -3.063  12.520  20.227  0.00  0.00    +0.000 C 
BRANCH  30  31
ATOM     31  C   UNL     1      -2.573  12.510  21.671  0.00  0.00    +0.000 C 
BRANCH  31  32
ATOM     32  O   UNL     1      -3.681  12.274  22.534  0.00  0.00    +0.000 OA
BRANCH  32  34
ATOM     33  C   UNL     1      -4.607  12.345  24.727  0.00  0.00    +0.000 C 
ATOM     34  C   UNL     1      -3.331  12.371  23.910  0.00  0.00    +0.000 C 
ENDBRANCH  32  34
ENDBRANCH  31  32
ENDBRANCH  30  31
ENDBRANCH  29  30
ENDBRANCH  25  29
ENDBRANCH   1  26
TORSDOF 7
ENDMDL
MODEL 6
REMARK VINA RESULT:      -6.6      1.408      1.792
REMARK  Name = 
REMARK  10 active torsions:
REMARK  status: ('A' for Active; 'I' for Inactive)
REMARK    1  A    between atoms: C_1  and  C_2
REMARK    2  A    between atoms: C_2  and  O_3
REMARK    3  A    between atoms: O_3  and  C_4
REMARK    4  A    between atoms: C_4  and  C_5
REMARK    5  A    between atoms: C_5  and  C_6
REMARK    6  A    between atoms: C_6  and  N_7
REMARK    7  A    between atoms: C_8  and  C_10
REMARK    8  A    between atoms: C_17  and  C_18
REMARK    9  A    between atoms: C_20  and  C_21
REMARK   10  A    between atoms: N_22  and  C_23
REMARK                            x       y       z     vdW  Elec       q    Type
REMARK                         _______ _______ _______ _____ _____    ______ ____
ROOT
ATOM      1  C   UNL     1       1.480  10.951  19.347  0.00  0.00    +0.000 C 
ATOM      2  C   UNL     1       2.242  10.061  18.345  0.00  0.00    +0.000 C 
ATOM      3  C   UNL     1       1.655   8.651  18.261  0.00  0.00    +0.000 C 
ATOM      4  N   UNL     1       1.627   8.116  19.611  0.00  0.00    +0.000 N 
ATOM      5  C   UNL     1       1.947   6.794  19.878  0.00  0.00    +0.000 A 
ATOM      6  N   UNL     1       1.364   6.141  20.937  0.00  0.00    +0.000 NA
ATOM      7  N   UNL     1       1.662   4.787  21.378  0.00  0.00    +0.000 NA
ATOM      8  C   UNL     1       2.581   3.984  20.781  0.00  0.00    +0.000 A 
ATOM      9  C   UNL     1       2.788   2.631  21.365  0.00  0.00    +0.000 C 
ATOM     10  C   UNL     1       3.202   4.614  19.688  0.00  0.00    +0.000 A 
ATOM     11  C   UNL     1       4.195   4.093  18.882  0.00  0.00    +0.000 A 
ATOM     12  C   UNL     1       4.944   2.810  18.961  0.00  0.00    +0.000 C 
ATOM     13  N   UNL     1       4.437   5.078  17.925  0.00  0.00    +0.000 N 
ATOM     14  N   UNL     1       3.780   6.235  18.208  0.00  0.00    +0.000 NA
ATOM     15  C   UNL     1       2.935   5.966  19.227  0.00  0.00    +0.000 A 
ATOM     16  C   UNL     1       0.729   8.815  20.527  0.00  0.00    +0.000 C 
ATOM     17  C   UNL     1       1.267  10.240  20.697  0.00  0.00    +0.000 C 
ENDROOT
BRANCH  13  18
ATOM     18  C   UNL     1       5.239   5.017  16.734  0.00  0.00    +0.000 A 
ATOM     19  C   UNL     1       4.805   4.348  15.580  0.00  0.00    +0.000 A 
ATOM     20  C   UNL     1       5.580   4.344  14.415  0.00  0.00    +0.000 A 
ATOM     21  C   UNL     1       6.796   5.017  14.387  0.00  0.00    +0.000 A 
ATOM     22 CL   UNL     1       7.718   5.047  12.937  0.00  0.00    +0.000 Cl
ATOM     23  C   UNL     1       7.249   5.684  15.522  0.00  0.00    +0.000 A 
ATOM     24  C   UNL     1       6.472   5.691  16.690  0.00  0.00    +0.000 A 
ENDBRANCH  13  18
BRANCH   1  26
ATOM     25  N   UNL     1      -0.416  12.478  19.471  0.00  0.00    +0.000 N 
ATOM     26  C   UNL     1       0.148  11.431  18.776  0.00  0.00    +0.000 C 
ATOM     27  O   UNL     1      -0.378  10.921  17.793  0.00  0.00    +0.000 OA
ATOM     28  H   UNL     1      -0.016  12.765  20.354  0.00  0.00    +0.000 HD
BRANCH  25  29
ATOM     29  C   UNL     1      -1.678  13.060  19.058  0.00  0.00    +0.000 C 
BRANCH  29  30
ATOM     30  C   UNL     1      -2.872  12.303  19.635  0.00  0.00    +0.000 C 
BRANCH  30  31
ATOM     31  C   UNL     1      -3.693  11.640  18.534  0.00  0.00    +0.000 C 
BRANCH  31  32
ATOM     32  O   UNL     1      -5.007  12.188  18.544  0.00  0.00    +0.000 OA
BRANCH  32  34
ATOM     33  C   UNL     1      -6.606  13.221  17.112  0.00  0.00    +0.000 C 
ATOM     34  C   UNL     1      -5.668  12.044  17.292  0.00  0.00    +0.000 C 
ENDBRANCH  32  34
ENDBRANCH  31  32
ENDBRANCH  30  31
ENDBRANCH  29  30
ENDBRANCH  25  29
ENDBRANCH   1  26
TORSDOF 7
ENDMDL
MODEL 7
REMARK VINA RESULT:      -6.6      2.028      3.089
REMARK  Name = 
REMARK  10 active torsions:
REMARK  status: ('A' for Active; 'I' for Inactive)
REMARK    1  A    between atoms: C_1  and  C_2
REMARK    2  A    between atoms: C_2  and  O_3
REMARK    3  A    between atoms: O_3  and  C_4
REMARK    4  A    between atoms: C_4  and  C_5
REMARK    5  A    between atoms: C_5  and  C_6
REMARK    6  A    between atoms: C_6  and  N_7
REMARK    7  A    between atoms: C_8  and  C_10
REMARK    8  A    between atoms: C_17  and  C_18
REMARK    9  A    between atoms: C_20  and  C_21
REMARK   10  A    between atoms: N_22  and  C_23
REMARK                            x       y       z     vdW  Elec       q    Type
REMARK                         _______ _______ _______ _____ _____    ______ ____
ROOT
ATOM      1  C   UNL     1       1.290  10.819  19.535  0.00  0.00    +0.000 C 
ATOM      2  C   UNL     1       2.077   9.967  18.519  0.00  0.00    +0.000 C 
ATOM      3  C   UNL     1       1.531   8.542  18.413  0.00  0.00    +0.000 C 
ATOM      4  N   UNL     1       1.519   7.986  19.755  0.00  0.00    +0.000 N 
ATOM      5  C   UNL     1       1.877   6.670  20.002  0.00  0.00    +0.000 A 
ATOM      6  N   UNL     1       1.313   5.984  21.051  0.00  0.00    +0.000 NA
ATOM      7  N   UNL     1       1.651   4.633  21.471  0.00  0.00    +0.000 NA
ATOM      8  C   UNL     1       2.592   3.866  20.862  0.00  0.00    +0.000 A 
ATOM      9  C   UNL     1       2.838   2.511  21.425  0.00  0.00    +0.000 C 
ATOM     10  C   UNL     1       3.194   4.530  19.778  0.00  0.00    +0.000 A 
ATOM     11  C   UNL     1       4.202   4.050  18.965  0.00  0.00    +0.000 A 
ATOM     12  C   UNL     1       4.987   2.788  19.024  0.00  0.00    +0.000 C 
ATOM     13  N   UNL     1       4.415   5.057  18.023  0.00  0.00    +0.000 N 
ATOM     14  N   UNL     1       3.725   6.189  18.324  0.00  0.00    +0.000 NA
ATOM     15  C   UNL     1       2.888   5.880  19.338  0.00  0.00    +0.000 A 
ATOM     16  C   UNL     1       0.601   8.645  20.682  0.00  0.00    +0.000 C 
ATOM     17  C   UNL     1       1.099  10.082  20.873  0.00  0.00    +0.000 C 
ENDROOT
BRANCH  13  18
ATOM     18  C   UNL     1       5.218   5.036  16.831  0.00  0.00    +0.000 A 
ATOM     19  C   UNL     1       4.787   4.401  15.656  0.00  0.00    +0.000 A 
ATOM     20  C   UNL     1       5.563   4.438  14.493  0.00  0.00    +0.000 A 
ATOM     21  C   UNL     1       6.776   5.117  14.486  0.00  0.00    +0.000 A 
ATOM     22 CL   UNL     1       7.698   5.198  13.038  0.00  0.00    +0.000 Cl
ATOM     23  C   UNL     1       7.225   5.752  15.642  0.00  0.00    +0.000 A 
ATOM     24  C   UNL     1       6.447   5.718  16.809  0.00  0.00    +0.000 A 
ENDBRANCH  13  18
BRANCH   1  26
ATOM     25  N   UNL     1      -0.966  11.653  19.931  0.00  0.00    +0.000 N 
ATOM     26  C   UNL     1      -0.055  11.269  18.971  0.00  0.00    +0.000 C 
ATOM     27  O   UNL     1      -0.306  11.277  17.771  0.00  0.00    +0.000 OA
ATOM     28  H   UNL     1      -0.760  11.491  20.907  0.00  0.00    +0.000 HD
BRANCH  25  29
ATOM     29  C   UNL     1      -2.291  12.116  19.566  0.00  0.00    +0.000 C 
BRANCH  29  30
ATOM     30  C   UNL     1      -2.777  13.233  20.486  0.00  0.00    +0.000 C 
BRANCH  30  31
ATOM     31  C   UNL     1      -4.194  12.964  20.983  0.00  0.00    +0.000 C 
BRANCH  31  32
ATOM     32  O   UNL     1      -4.124  12.332  22.258  0.00  0.00    +0.000 OA
BRANCH  32  34
ATOM     33  C   UNL     1      -4.439  12.469  24.615  0.00  0.00    +0.000 C 
ATOM     34  C   UNL     1      -4.796  13.072  23.271  0.00  0.00    +0.000 C 
ENDBRANCH  32  34
ENDBRANCH  31  32
ENDBRANCH  30  31
ENDBRANCH  29  30
ENDBRANCH  25  29
ENDBRANCH   1  26
TORSDOF 7
ENDMDL
MODEL 8
REMARK VINA RESULT:      -6.5      1.907      2.526
REMARK  Name = 
REMARK  10 active torsions:
REMARK  status: ('A' for Active; 'I' for Inactive)
REMARK    1  A    between atoms: C_1  and  C_2
REMARK    2  A    between atoms: C_2  and  O_3
REMARK    3  A    between atoms: O_3  and  C_4
REMARK    4  A    between atoms: C_4  and  C_5
REMARK    5  A    between atoms: C_5  and  C_6
REMARK    6  A    between atoms: C_6  and  N_7
REMARK    7  A    between atoms: C_8  and  C_10
REMARK    8  A    between atoms: C_17  and  C_18
REMARK    9  A    between atoms: C_20  and  C_21
REMARK   10  A    between atoms: N_22  and  C_23
REMARK                            x       y       z     vdW  Elec       q    Type
REMARK                         _______ _______ _______ _____ _____    ______ ____
ROOT
ATOM      1  C   UNL     1       1.222  10.870  19.567  0.00  0.00    +0.000 C 
ATOM      2  C   UNL     1       2.001  10.040  18.526  0.00  0.00    +0.000 C 
ATOM      3  C   UNL     1       1.472   8.609  18.414  0.00  0.00    +0.000 C 
ATOM      4  N   UNL     1       1.493   8.037  19.749  0.00  0.00    +0.000 N 
ATOM      5  C   UNL     1       1.873   6.724  19.973  0.00  0.00    +0.000 A 
ATOM      6  N   UNL     1       1.339   6.017  21.024  0.00  0.00    +0.000 NA
ATOM      7  N   UNL     1       1.702   4.666  21.421  0.00  0.00    +0.000 NA
ATOM      8  C   UNL     1       2.642   3.919  20.786  0.00  0.00    +0.000 A 
ATOM      9  C   UNL     1       2.917   2.561  21.327  0.00  0.00    +0.000 C 
ATOM     10  C   UNL     1       3.215   4.605  19.699  0.00  0.00    +0.000 A 
ATOM     11  C   UNL     1       4.213   4.148  18.861  0.00  0.00    +0.000 A 
ATOM     12  C   UNL     1       5.016   2.896  18.889  0.00  0.00    +0.000 C 
ATOM     13  N   UNL     1       4.395   5.169  17.927  0.00  0.00    +0.000 N 
ATOM     14  N   UNL     1       3.695   6.288  18.255  0.00  0.00    +0.000 NA
ATOM     15  C   UNL     1       2.882   5.956  19.281  0.00  0.00    +0.000 A 
ATOM     16  C   UNL     1       0.584   8.672  20.701  0.00  0.00    +0.000 C 
ATOM     17  C   UNL     1       1.066  10.113  20.900  0.00  0.00    +0.000 C 
ENDROOT
BRANCH  13  18
ATOM     18  C   UNL     1       5.175   5.174  16.720  0.00  0.00    +0.000 A 
ATOM     19  C   UNL     1       6.371   5.900  16.613  0.00  0.00    +0.000 A 
ATOM     20  C   UNL     1       7.140   5.850  15.445  0.00  0.00    +0.000 A 
ATOM     21  C   UNL     1       6.728   5.066  14.373  0.00  0.00    +0.000 A 
ATOM     22 CL   UNL     1       7.705   4.973  12.962  0.00  0.00    +0.000 Cl
ATOM     23  C   UNL     1       5.543   4.340  14.457  0.00  0.00    +0.000 A 
ATOM     24  C   UNL     1       4.771   4.388  15.628  0.00  0.00    +0.000 A 
ENDBRANCH  13  18
BRANCH   1  26
ATOM     25  N   UNL     1      -0.884  12.042  19.932  0.00  0.00    +0.000 N 
ATOM     26  C   UNL     1      -0.140  11.308  19.035  0.00  0.00    +0.000 C 
ATOM     27  O   UNL     1      -0.540  11.021  17.912  0.00  0.00    +0.000 OA
ATOM     28  H   UNL     1      -0.570  12.127  20.889  0.00  0.00    +0.000 HD
BRANCH  25  29
ATOM     29  C   UNL     1      -2.199  12.544  19.584  0.00  0.00    +0.000 C 
BRANCH  29  30
ATOM     30  C   UNL     1      -3.041  12.844  20.822  0.00  0.00    +0.000 C 
BRANCH  30  31
ATOM     31  C   UNL     1      -4.516  12.549  20.573  0.00  0.00    +0.000 C 
BRANCH  31  32
ATOM     32  O   UNL     1      -5.160  12.325  21.824  0.00  0.00    +0.000 OA
BRANCH  32  34
ATOM     33  C   UNL     1      -6.989  12.737  20.353  0.00  0.00    +0.000 C 
ATOM     34  C   UNL     1      -6.538  12.680  21.799  0.00  0.00    +0.000 C 
ENDBRANCH  32  34
ENDBRANCH  31  32
ENDBRANCH  30  31
ENDBRANCH  29  30
ENDBRANCH  25  29
ENDBRANCH   1  26
TORSDOF 7
ENDMDL
MODEL 9
REMARK VINA RESULT:      -6.5      1.341      1.522
REMARK  Name = 
REMARK  10 active torsions:
REMARK  status: ('A' for Active; 'I' for Inactive)
REMARK    1  A    between atoms: C_1  and  C_2
REMARK    2  A    between atoms: C_2  and  O_3
REMARK    3  A    between atoms: O_3  and  C_4
REMARK    4  A    between atoms: C_4  and  C_5
REMARK    5  A    between atoms: C_5  and  C_6
REMARK    6  A    between atoms: C_6  and  N_7
REMARK    7  A    between atoms: C_8  and  C_10
REMARK    8  A    between atoms: C_17  and  C_18
REMARK    9  A    between atoms: C_20  and  C_21
REMARK   10  A    between atoms: N_22  and  C_23
REMARK                            x       y       z     vdW  Elec       q    Type
REMARK                         _______ _______ _______ _____ _____    ______ ____
ROOT
ATOM      1  C   UNL     1       1.400  11.321  19.347  0.00  0.00    +0.000 C 
ATOM      2  C   UNL     1       2.155  10.429  18.341  0.00  0.00    +0.000 C 
ATOM      3  C   UNL     1       1.555   9.024  18.250  0.00  0.00    +0.000 C 
ATOM      4  N   UNL     1       1.520   8.483  19.598  0.00  0.00    +0.000 N 
ATOM      5  C   UNL     1       1.827   7.158  19.860  0.00  0.00    +0.000 A 
ATOM      6  N   UNL     1       1.237   6.505  20.915  0.00  0.00    +0.000 NA
ATOM      7  N   UNL     1       1.522   5.147  21.350  0.00  0.00    +0.000 NA
ATOM      8  C   UNL     1       2.434   4.338  20.751  0.00  0.00    +0.000 A 
ATOM      9  C   UNL     1       2.627   2.980  21.328  0.00  0.00    +0.000 C 
ATOM     10  C   UNL     1       3.062   4.967  19.661  0.00  0.00    +0.000 A 
ATOM     11  C   UNL     1       4.051   4.440  18.854  0.00  0.00    +0.000 A 
ATOM     12  C   UNL     1       4.788   3.150  18.927  0.00  0.00    +0.000 C 
ATOM     13  N   UNL     1       4.304   5.428  17.902  0.00  0.00    +0.000 N 
ATOM     14  N   UNL     1       3.657   6.589  18.189  0.00  0.00    +0.000 NA
ATOM     15  C   UNL     1       2.808   6.323  19.206  0.00  0.00    +0.000 A 
ATOM     16  C   UNL     1       0.627   9.187  20.517  0.00  0.00    +0.000 C 
ATOM     17  C   UNL     1       1.179  10.606  20.693  0.00  0.00    +0.000 C 
ENDROOT
BRANCH  13  18
ATOM     18  C   UNL     1       5.106   5.364  16.711  0.00  0.00    +0.000 A 
ATOM     19  C   UNL     1       6.320   6.059  16.596  0.00  0.00    +0.000 A 
ATOM     20  C   UNL     1       7.110   5.942  15.447  0.00  0.00    +0.000 A 
ATOM     21  C   UNL     1       6.700   5.122  14.402  0.00  0.00    +0.000 A 
ATOM     22 CL   UNL     1       7.701   4.947  13.015  0.00  0.00    +0.000 Cl
ATOM     23  C   UNL     1       5.498   4.425  14.493  0.00  0.00    +0.000 A 
ATOM     24  C   UNL     1       4.705   4.540  15.645  0.00  0.00    +0.000 A 
ENDBRANCH  13  18
BRANCH   1  26
ATOM     25  N   UNL     1      -1.037  11.272  19.384  0.00  0.00    +0.000 N 
ATOM     26  C   UNL     1       0.074  11.816  18.777  0.00  0.00    +0.000 C 
ATOM     27  O   UNL     1       0.003  12.618  17.852  0.00  0.00    +0.000 OA
ATOM     28  H   UNL     1      -0.924  10.511  20.040  0.00  0.00    +0.000 HD
BRANCH  25  29
ATOM     29  C   UNL     1      -2.377  11.640  18.969  0.00  0.00    +0.000 C 
BRANCH  29  30
ATOM     30  C   UNL     1      -3.088  12.484  20.024  0.00  0.00    +0.000 C 
BRANCH  30  31
ATOM     31  C   UNL     1      -4.568  12.649  19.696  0.00  0.00    +0.000 C 
BRANCH  31  32
ATOM     32  O   UNL     1      -5.077  11.409  19.215  0.00  0.00    +0.000 OA
BRANCH  32  34
ATOM     33  C   UNL     1      -5.603  12.354  17.093  0.00  0.00    +0.000 C 
ATOM     34  C   UNL     1      -6.137  11.579  18.281  0.00  0.00    +0.000 C 
ENDBRANCH  32  34
ENDBRANCH  31  32
ENDBRANCH  30  31
ENDBRANCH  29  30
ENDBRANCH  25  29
ENDBRANCH   1  26
TORSDOF 7
ENDMDL
