MODEL 1
REMARK VINA RESULT:      -7.6      0.000      0.000
REMARK  Name = 
REMARK  6 active torsions:
REMARK  status: ('A' for Active; 'I' for Inactive)
REMARK    1  A    between atoms: C_1  and  C_2
REMARK    2  A    between atoms: C_4  and  C_5
REMARK    3  A    between atoms: N_7  and  C_8
REMARK    4  A    between atoms: C_8  and  C_9
REMARK    5  A    between atoms: N_12  and  C_13
REMARK    6  A    between atoms: N_12  and  C_14
REMARK                            x       y       z     vdW  Elec       q    Type
REMARK                         _______ _______ _______ _____ _____    ______ ____
ROOT
ATOM      1  C   UNL     1       6.962   5.264  16.139  0.00  0.00    +0.000 C 
ATOM      2  O   UNL     1       7.507   6.307  16.500  0.00  0.00    +0.000 OA
ATOM      3  N   UNL     1       6.352   4.419  17.048  0.00  0.00    +0.000 N 
ATOM      4  H   UNL     1       5.917   3.560  16.725  0.00  0.00    +0.000 HD
ENDROOT
BRANCH   1   8
ATOM      5  C   UNL     1       5.831   2.926  11.913  0.00  0.00    +0.000 C 
ATOM      6  C   UNL     1       6.362   3.776  12.993  0.00  0.00    +0.000 A 
ATOM      7  N   UNL     1       6.059   3.822  14.272  0.00  0.00    +0.000 NA
ATOM      8  C   UNL     1       6.907   4.819  14.738  0.00  0.00    +0.000 A 
ATOM      9  N   UNL     1       7.689   5.355  13.783  0.00  0.00    +0.000 NA
ATOM     10  O   UNL     1       7.329   4.665  12.632  0.00  0.00    +0.000 OA
ENDBRANCH   1   8
BRANCH   3  11
ATOM     11  C   UNL     1       6.352   4.763  18.453  0.00  0.00    +0.000 C 
BRANCH  11  12
ATOM     12  C   UNL     1       5.153   4.249  19.154  0.00  0.00    +0.000 A 
ATOM     13  N   UNL     1       4.053   4.852  19.544  0.00  0.00    +0.000 NA
ATOM     14  C   UNL     1       3.339   3.831  20.128  0.00  0.00    +0.000 A 
ATOM     15  N   UNL     1       2.118   4.079  20.657  0.00  0.00    +0.000 N 
ATOM     16  C   UNL     1       1.339   3.022  21.278  0.00  0.00    +0.000 C 
ATOM     17  C   UNL     1       1.519   5.398  20.628  0.00  0.00    +0.000 C 
ATOM     18  N   UNL     1       3.974   2.649  20.098  0.00  0.00    +0.000 NA
ATOM     19  O   UNL     1       5.174   2.922  19.456  0.00  0.00    +0.000 OA
ENDBRANCH  11  12
ENDBRANCH   3  11
TORSDOF 3
ENDMDL
MODEL 2
REMARK VINA RESULT:      -7.3      1.091      1.418
REMARK  Name = 
REMARK  6 active torsions:
REMARK  status: ('A' for Active; 'I' for Inactive)
REMARK    1  A    between atoms: C_1  and  C_2
REMARK    2  A    between atoms: C_4  and  C_5
REMARK    3  A    between atoms: N_7  and  C_8
REMARK    4  A    between atoms: C_8  and  C_9
REMARK    5  A    between atoms: N_12  and  C_13
REMARK    6  A    between atoms: N_12  and  C_14
REMARK                            x       y       z     vdW  Elec       q    Type
REMARK                         _______ _______ _______ _____ _____    ______ ____
ROOT
ATOM      1  C   UNL     1       6.746   5.282  16.034  0.00  0.00    +0.000 C 
ATOM      2  O   UNL     1       6.764   6.468  16.359  0.00  0.00    +0.000 OA
ATOM      3  N   UNL     1       6.648   4.278  16.980  0.00  0.00    +0.000 N 
ATOM      4  H   UNL     1       6.646   3.306  16.686  0.00  0.00    +0.000 HD
ENDROOT
BRANCH   1   8
ATOM      5  C   UNL     1       6.054   2.874  11.754  0.00  0.00    +0.000 C 
ATOM      6  C   UNL     1       6.467   3.747  12.866  0.00  0.00    +0.000 A 
ATOM      7  N   UNL     1       6.047   3.800  14.111  0.00  0.00    +0.000 NA
ATOM      8  C   UNL     1       6.828   4.820  14.640  0.00  0.00    +0.000 A 
ATOM      9  N   UNL     1       7.682   5.363  13.752  0.00  0.00    +0.000 NA
ATOM     10  O   UNL     1       7.443   4.652  12.583  0.00  0.00    +0.000 OA
ENDBRANCH   1   8
BRANCH   3  11
ATOM     11  C   UNL     1       6.565   4.624  18.382  0.00  0.00    +0.000 C 
BRANCH  11  12
ATOM     12  C   UNL     1       5.181   4.529  18.900  0.00  0.00    +0.000 A 
ATOM     13  N   UNL     1       4.304   3.551  18.852  0.00  0.00    +0.000 NA
ATOM     14  C   UNL     1       3.221   4.084  19.511  0.00  0.00    +0.000 A 
ATOM     15  N   UNL     1       2.095   3.347  19.665  0.00  0.00    +0.000 N 
ATOM     16  C   UNL     1       0.936   3.882  20.358  0.00  0.00    +0.000 C 
ATOM     17  C   UNL     1       1.986   1.994  19.161  0.00  0.00    +0.000 C 
ATOM     18  N   UNL     1       3.423   5.338  19.946  0.00  0.00    +0.000 NA
ATOM     19  O   UNL     1       4.717   5.634  19.543  0.00  0.00    +0.000 OA
ENDBRANCH  11  12
ENDBRANCH   3  11
TORSDOF 3
ENDMDL
MODEL 3
REMARK VINA RESULT:      -7.0      1.068      1.068
REMARK  Name = 
REMARK  6 active torsions:
REMARK  status: ('A' for Active; 'I' for Inactive)
REMARK    1  A    between atoms: C_1  and  C_2
REMARK    2  A    between atoms: C_4  and  C_5
REMARK    3  A    between atoms: N_7  and  C_8
REMARK    4  A    between atoms: C_8  and  C_9
REMARK    5  A    between atoms: N_12  and  C_13
REMARK    6  A    between atoms: N_12  and  C_14
REMARK                            x       y       z     vdW  Elec       q    Type
REMARK                         _______ _______ _______ _____ _____    ______ ____
ROOT
ATOM      1  C   UNL     1       6.608   5.498  15.512  0.00  0.00    +0.000 C 
ATOM      2  O   UNL     1       7.590   5.954  16.096  0.00  0.00    +0.000 OA
ATOM      3  N   UNL     1       5.342   5.574  16.064  0.00  0.00    +0.000 N 
ATOM      4  H   UNL     1       4.550   5.180  15.565  0.00  0.00    +0.000 HD
ENDROOT
BRANCH   1   8
ATOM      5  C   UNL     1       5.843   2.523  11.617  0.00  0.00    +0.000 C 
ATOM      6  C   UNL     1       6.284   3.532  12.596  0.00  0.00    +0.000 A 
ATOM      7  N   UNL     1       5.862   3.780  13.816  0.00  0.00    +0.000 NA
ATOM      8  C   UNL     1       6.678   4.837  14.199  0.00  0.00    +0.000 A 
ATOM      9  N   UNL     1       7.556   5.214  13.251  0.00  0.00    +0.000 NA
ATOM     10  O   UNL     1       7.295   4.351  12.194  0.00  0.00    +0.000 OA
ENDBRANCH   1   8
BRANCH   3  11
ATOM     11  C   UNL     1       5.163   6.203  17.353  0.00  0.00    +0.000 C 
BRANCH  11  12
ATOM     12  C   UNL     1       4.616   5.266  18.361  0.00  0.00    +0.000 A 
ATOM     13  N   UNL     1       3.447   5.227  18.961  0.00  0.00    +0.000 NA
ATOM     14  C   UNL     1       3.562   4.123  19.774  0.00  0.00    +0.000 A 
ATOM     15  N   UNL     1       2.526   3.756  20.564  0.00  0.00    +0.000 N 
ATOM     16  C   UNL     1       2.616   2.595  21.432  0.00  0.00    +0.000 C 
ATOM     17  C   UNL     1       1.276   4.489  20.585  0.00  0.00    +0.000 C 
ATOM     18  N   UNL     1       4.752   3.510  19.678  0.00  0.00    +0.000 NA
ATOM     19  O   UNL     1       5.451   4.263  18.746  0.00  0.00    +0.000 OA
ENDBRANCH  11  12
ENDBRANCH   3  11
TORSDOF 3
ENDMDL
MODEL 4
REMARK VINA RESULT:      -7.0      1.093      1.375
REMARK  Name = 
REMARK  6 active torsions:
REMARK  status: ('A' for Active; 'I' for Inactive)
REMARK    1  A    between atoms: C_1  and  C_2
REMARK    2  A    between atoms: C_4  and  C_5
REMARK    3  A    between atoms: N_7  and  C_8
REMARK    4  A    between atoms: C_8  and  C_9
REMARK    5  A    between atoms: N_12  and  C_13
REMARK    6  A    between atoms: N_12  and  C_14
REMARK                            x       y       z     vdW  Elec       q    Type
REMARK                         _______ _______ _______ _____ _____    ______ ____
ROOT
ATOM      1  C   UNL     1       7.155   4.705  16.543  0.00  0.00    +0.000 C 
ATOM      2  O   UNL     1       8.058   4.183  17.196  0.00  0.00    +0.000 OA
ATOM      3  N   UNL     1       6.136   5.408  17.159  0.00  0.00    +0.000 N 
ATOM      4  H   UNL     1       5.397   5.821  16.597  0.00  0.00    +0.000 HD
ENDROOT
BRANCH   1   8
ATOM      5  C   UNL     1       7.746   5.499  11.683  0.00  0.00    +0.000 C 
ATOM      6  C   UNL     1       7.382   5.042  13.035  0.00  0.00    +0.000 A 
ATOM      7  N   UNL     1       7.773   5.469  14.216  0.00  0.00    +0.000 NA
ATOM      8  C   UNL     1       7.069   4.636  15.076  0.00  0.00    +0.000 A 
ATOM      9  N   UNL     1       6.286   3.742  14.444  0.00  0.00    +0.000 NA
ATOM     10  O   UNL     1       6.493   4.012  13.097  0.00  0.00    +0.000 OA
ENDBRANCH   1   8
BRANCH   3  11
ATOM     11  C   UNL     1       6.124   5.534  18.599  0.00  0.00    +0.000 C 
BRANCH  11  12
ATOM     12  C   UNL     1       5.053   4.724  19.223  0.00  0.00    +0.000 A 
ATOM     13  N   UNL     1       3.839   5.046  19.609  0.00  0.00    +0.000 NA
ATOM     14  C   UNL     1       3.354   3.856  20.102  0.00  0.00    +0.000 A 
ATOM     15  N   UNL     1       2.096   3.795  20.601  0.00  0.00    +0.000 N 
ATOM     16  C   UNL     1       1.555   2.554  21.126  0.00  0.00    +0.000 C 
ATOM     17  C   UNL     1       1.223   4.951  20.631  0.00  0.00    +0.000 C 
ATOM     18  N   UNL     1       4.234   2.846  20.023  0.00  0.00    +0.000 NA
ATOM     19  O   UNL     1       5.358   3.417  19.444  0.00  0.00    +0.000 OA
ENDBRANCH  11  12
ENDBRANCH   3  11
TORSDOF 3
ENDMDL
MODEL 5
REMARK VINA RESULT:      -7.0      1.093      1.093
REMARK  Name = 
REMARK  6 active torsions:
REMARK  status: ('A' for Active; 'I' for Inactive)
REMARK    1  A    between atoms: C_1  and  C_2
REMARK    2  A    between atoms: C_4  and  C_5
REMARK    3  A    between atoms: N_7  and  C_8
REMARK    4  A    between atoms: C_8  and  C_9
REMARK    5  A    between atoms: N_12  and  C_13
REMARK    6  A    between atoms: N_12  and  C_14
REMARK                            x       y       z     vdW  Elec       q    Type
REMARK                         _______ _______ _______ _____ _____    ______ ____
ROOT
ATOM      1  C   UNL     1       6.689   5.237  15.688  0.00  0.00    +0.000 C 
ATOM      2  O   UNL     1       6.483   6.409  16.000  0.00  0.00    +0.000 OA
ATOM      3  N   UNL     1       6.769   4.241  16.645  0.00  0.00    +0.000 N 
ATOM      4  H   UNL     1       6.949   3.283  16.362  0.00  0.00    +0.000 HD
ENDROOT
BRANCH   1   8
ATOM      5  C   UNL     1       6.441   2.738  11.411  0.00  0.00    +0.000 C 
ATOM      6  C   UNL     1       6.703   3.664  12.527  0.00  0.00    +0.000 A 
ATOM      7  N   UNL     1       6.248   3.665  13.760  0.00  0.00    +0.000 NA
ATOM      8  C   UNL     1       6.869   4.784  14.300  0.00  0.00    +0.000 A 
ATOM      9  N   UNL     1       7.664   5.435  13.430  0.00  0.00    +0.000 NA
ATOM     10  O   UNL     1       7.554   4.692  12.261  0.00  0.00    +0.000 OA
ENDBRANCH   1   8
BRANCH   3  11
ATOM     11  C   UNL     1       6.609   4.580  18.042  0.00  0.00    +0.000 C 
BRANCH  11  12
ATOM     12  C   UNL     1       5.320   4.098  18.590  0.00  0.00    +0.000 A 
ATOM     13  N   UNL     1       4.084   4.282  18.184  0.00  0.00    +0.000 NA
ATOM     14  C   UNL     1       3.353   3.577  19.112  0.00  0.00    +0.000 A 
ATOM     15  N   UNL     1       2.003   3.535  19.016  0.00  0.00    +0.000 N 
ATOM     16  C   UNL     1       1.204   2.797  19.979  0.00  0.00    +0.000 C 
ATOM     17  C   UNL     1       1.285   4.207  17.953  0.00  0.00    +0.000 C 
ATOM     18  N   UNL     1       4.109   2.986  20.050  0.00  0.00    +0.000 NA
ATOM     19  O   UNL     1       5.409   3.329  19.708  0.00  0.00    +0.000 OA
ENDBRANCH  11  12
ENDBRANCH   3  11
TORSDOF 3
ENDMDL
MODEL 6
REMARK VINA RESULT:      -6.9      1.367      1.692
REMARK  Name = 
REMARK  6 active torsions:
REMARK  status: ('A' for Active; 'I' for Inactive)
REMARK    1  A    between atoms: C_1  and  C_2
REMARK    2  A    between atoms: C_4  and  C_5
REMARK    3  A    between atoms: N_7  and  C_8
REMARK    4  A    between atoms: C_8  and  C_9
REMARK    5  A    between atoms: N_12  and  C_13
REMARK    6  A    between atoms: N_12  and  C_14
REMARK                            x       y       z     vdW  Elec       q    Type
REMARK                         _______ _______ _______ _____ _____    ______ ____
ROOT
ATOM      1  C   UNL     1       7.030   4.977  16.299  0.00  0.00    +0.000 C 
ATOM      2  O   UNL     1       7.875   4.513  17.064  0.00  0.00    +0.000 OA
ATOM      3  N   UNL     1       6.022   5.805  16.758  0.00  0.00    +0.000 N 
ATOM      4  H   UNL     1       5.331   6.167  16.108  0.00  0.00    +0.000 HD
ENDROOT
BRANCH   1   8
ATOM      5  C   UNL     1       6.025   3.133  11.806  0.00  0.00    +0.000 C 
ATOM      6  C   UNL     1       6.515   3.863  12.988  0.00  0.00    +0.000 A 
ATOM      7  N   UNL     1       6.197   3.742  14.258  0.00  0.00    +0.000 NA
ATOM      8  C   UNL     1       7.005   4.704  14.854  0.00  0.00    +0.000 A 
ATOM      9  N   UNL     1       7.777   5.379  13.982  0.00  0.00    +0.000 NA
ATOM     10  O   UNL     1       7.452   4.821  12.751  0.00  0.00    +0.000 OA
ENDBRANCH   1   8
BRANCH   3  11
ATOM     11  C   UNL     1       5.954   6.135  18.164  0.00  0.00    +0.000 C 
BRANCH  11  12
ATOM     12  C   UNL     1       4.732   5.599  18.807  0.00  0.00    +0.000 A 
ATOM     13  N   UNL     1       4.519   4.480  19.463  0.00  0.00    +0.000 NA
ATOM     14  C   UNL     1       3.190   4.579  19.804  0.00  0.00    +0.000 A 
ATOM     15  N   UNL     1       2.599   3.584  20.508  0.00  0.00    +0.000 N 
ATOM     16  C   UNL     1       1.198   3.660  20.884  0.00  0.00    +0.000 C 
ATOM     17  C   UNL     1       3.323   2.403  20.930  0.00  0.00    +0.000 C 
ATOM     18  N   UNL     1       2.610   5.710  19.374  0.00  0.00    +0.000 NA
ATOM     19  O   UNL     1       3.627   6.386  18.714  0.00  0.00    +0.000 OA
ENDBRANCH  11  12
ENDBRANCH   3  11
TORSDOF 3
ENDMDL
MODEL 7
REMARK VINA RESULT:      -6.9      1.991      2.492
REMARK  Name = 
REMARK  6 active torsions:
REMARK  status: ('A' for Active; 'I' for Inactive)
REMARK    1  A    between atoms: C_1  and  C_2
REMARK    2  A    between atoms: C_4  and  C_5
REMARK    3  A    between atoms: N_7  and  C_8
REMARK    4  A    between atoms: C_8  and  C_9
REMARK    5  A    between atoms: N_12  and  C_13
REMARK    6  A    between atoms: N_12  and  C_14
REMARK                            x       y       z     vdW  Elec       q    Type
REMARK                         _______ _______ _______ _____ _____    ______ ____
ROOT
ATOM      1  C   UNL     1       6.070   4.139  16.992  0.00  0.00    +0.000 C 
ATOM      2  O   UNL     1       6.681   4.392  18.030  0.00  0.00    +0.000 OA
ATOM      3  N   UNL     1       4.824   3.541  17.017  0.00  0.00    +0.000 N 
ATOM      4  H   UNL     1       4.346   3.335  16.145  0.00  0.00    +0.000 HD
ENDROOT
BRANCH   1   8
ATOM      5  C   UNL     1       6.961   4.168  12.113  0.00  0.00    +0.000 C 
ATOM      6  C   UNL     1       6.905   4.382  13.569  0.00  0.00    +0.000 A 
ATOM      7  N   UNL     1       6.176   3.793  14.492  0.00  0.00    +0.000 NA
ATOM      8  C   UNL     1       6.593   4.438  15.650  0.00  0.00    +0.000 A 
ATOM      9  N   UNL     1       7.532   5.379  15.437  0.00  0.00    +0.000 NA
ATOM     10  O   UNL     1       7.737   5.340  14.063  0.00  0.00    +0.000 OA
ENDBRANCH   1   8
BRANCH   3  11
ATOM     11  C   UNL     1       4.221   3.203  18.287  0.00  0.00    +0.000 C 
BRANCH  11  12
ATOM     12  C   UNL     1       3.528   4.358  18.903  0.00  0.00    +0.000 A 
ATOM     13  N   UNL     1       3.305   5.573  18.454  0.00  0.00    +0.000 NA
ATOM     14  C   UNL     1       2.616   6.157  19.493  0.00  0.00    +0.000 A 
ATOM     15  N   UNL     1       2.205   7.442  19.390  0.00  0.00    +0.000 N 
ATOM     16  C   UNL     1       1.475   8.086  20.469  0.00  0.00    +0.000 C 
ATOM     17  C   UNL     1       2.458   8.241  18.209  0.00  0.00    +0.000 C 
ATOM     18  N   UNL     1       2.426   5.335  20.537  0.00  0.00    +0.000 NA
ATOM     19  O   UNL     1       3.028   4.146  20.150  0.00  0.00    +0.000 OA
ENDBRANCH  11  12
ENDBRANCH   3  11
TORSDOF 3
ENDMDL
MODEL 8
REMARK VINA RESULT:      -6.8      2.644      3.988
REMARK  Name = 
REMARK  6 active torsions:
REMARK  status: ('A' for Active; 'I' for Inactive)
REMARK    1  A    between atoms: C_1  and  C_2
REMARK    2  A    between atoms: C_4  and  C_5
REMARK    3  A    between atoms: N_7  and  C_8
REMARK    4  A    between atoms: C_8  and  C_9
REMARK    5  A    between atoms: N_12  and  C_13
REMARK    6  A    between atoms: N_12  and  C_14
REMARK                            x       y       z     vdW  Elec       q    Type
REMARK                         _______ _______ _______ _____ _____    ______ ____
ROOT
ATOM      1  C   UNL     1       6.906   5.290  17.584  0.00  0.00    +0.000 C 
ATOM      2  O   UNL     1       7.548   4.353  18.058  0.00  0.00    +0.000 OA
ATOM      3  N   UNL     1       5.710   5.081  16.923  0.00  0.00    +0.000 N 
ATOM      4  H   UNL     1       5.205   5.871  16.532  0.00  0.00    +0.000 HD
ENDROOT
BRANCH   1   8
ATOM      5  C   UNL     1       9.066   9.550  18.919  0.00  0.00    +0.000 C 
ATOM      6  C   UNL     1       8.299   8.455  18.302  0.00  0.00    +0.000 A 
ATOM      7  N   UNL     1       8.220   7.182  18.622  0.00  0.00    +0.000 NA
ATOM      8  C   UNL     1       7.338   6.694  17.666  0.00  0.00    +0.000 A 
ATOM      9  N   UNL     1       6.902   7.631  16.804  0.00  0.00    +0.000 NA
ATOM     10  O   UNL     1       7.536   8.793  17.226  0.00  0.00    +0.000 OA
ENDBRANCH   1   8
BRANCH   3  11
ATOM     11  C   UNL     1       5.197   3.736  16.784  0.00  0.00    +0.000 C 
BRANCH  11  12
ATOM     12  C   UNL     1       4.227   3.394  17.849  0.00  0.00    +0.000 A 
ATOM     13  N   UNL     1       3.667   4.135  18.780  0.00  0.00    +0.000 NA
ATOM     14  C   UNL     1       2.868   3.232  19.444  0.00  0.00    +0.000 A 
ATOM     15  N   UNL     1       2.116   3.641  20.493  0.00  0.00    +0.000 N 
ATOM     16  C   UNL     1       1.261   2.713  21.212  0.00  0.00    +0.000 C 
ATOM     17  C   UNL     1       2.113   5.016  20.949  0.00  0.00    +0.000 C 
ATOM     18  N   UNL     1       2.935   1.989  18.942  0.00  0.00    +0.000 NA
ATOM     19  O   UNL     1       3.832   2.093  17.889  0.00  0.00    +0.000 OA
ENDBRANCH  11  12
ENDBRANCH   3  11
TORSDOF 3
ENDMDL
MODEL 9
REMARK VINA RESULT:      -6.8      1.511      6.949
REMARK  Name = 
REMARK  6 active torsions:
REMARK  status: ('A' for Active; 'I' for Inactive)
REMARK    1  A    between atoms: C_1  and  C_2
REMARK    2  A    between atoms: C_4  and  C_5
REMARK    3  A    between atoms: N_7  and  C_8
REMARK    4  A    between atoms: C_8  and  C_9
REMARK    5  A    between atoms: N_12  and  C_13
REMARK    6  A    between atoms: N_12  and  C_14
REMARK                            x       y       z     vdW  Elec       q    Type
REMARK                         _______ _______ _______ _____ _____    ______ ____
ROOT
ATOM      1  C   UNL     1       5.065   4.373  18.691  0.00  0.00    +0.000 C 
ATOM      2  O   UNL     1       6.248   4.202  18.984  0.00  0.00    +0.000 OA
ATOM      3  N   UNL     1       4.681   5.344  17.784  0.00  0.00    +0.000 N 
ATOM      4  H   UNL     1       3.697   5.471  17.567  0.00  0.00    +0.000 HD
ENDROOT
BRANCH   1   8
ATOM      5  C   UNL     1       1.301   2.752  21.485  0.00  0.00    +0.000 C 
ATOM      6  C   UNL     1       2.374   2.974  20.500  0.00  0.00    +0.000 A 
ATOM      7  N   UNL     1       3.215   3.976  20.366  0.00  0.00    +0.000 NA
ATOM      8  C   UNL     1       3.964   3.582  19.263  0.00  0.00    +0.000 A 
ATOM      9  N   UNL     1       3.591   2.395  18.751  0.00  0.00    +0.000 NA
ATOM     10  O   UNL     1       2.542   1.995  19.570  0.00  0.00    +0.000 OA
ENDBRANCH   1   8
BRANCH   3  11
ATOM     11  C   UNL     1       5.686   6.179  17.165  0.00  0.00    +0.000 C 
BRANCH  11  12
ATOM     12  C   UNL     1       6.170   5.615  15.884  0.00  0.00    +0.000 A 
ATOM     13  N   UNL     1       5.558   4.897  14.969  0.00  0.00    +0.000 NA
ATOM     14  C   UNL     1       6.546   4.698  14.032  0.00  0.00    +0.000 A 
ATOM     15  N   UNL     1       6.280   3.982  12.914  0.00  0.00    +0.000 N 
ATOM     16  C   UNL     1       7.301   3.757  11.905  0.00  0.00    +0.000 C 
ATOM     17  C   UNL     1       4.973   3.412  12.657  0.00  0.00    +0.000 C 
ATOM     18  N   UNL     1       7.715   5.270  14.358  0.00  0.00    +0.000 NA
ATOM     19  O   UNL     1       7.470   5.877  15.581  0.00  0.00    +0.000 OA
ENDBRANCH  11  12
ENDBRANCH   3  11
TORSDOF 3
ENDMDL
