MODEL 1
REMARK VINA RESULT:      -9.4      0.000      0.000
REMARK  Name = 
REMARK  4 active torsions:
REMARK  status: ('A' for Active; 'I' for Inactive)
REMARK    1  A    between atoms: C_2  and  C_3
REMARK    2  A    between atoms: C_14  and  O_15
REMARK    3  A    between atoms: O_15  and  C_16
REMARK    4  A    between atoms: C_19  and  C_20
REMARK                            x       y       z     vdW  Elec       q    Type
REMARK                         _______ _______ _______ _____ _____    ______ ____
ROOT
ATOM      1  C   UNL     1      -4.603  11.559  17.080  0.00  0.00    +0.000 C 
ATOM      2  C   UNL     1      -3.659  11.509  18.002  0.00  0.00    +0.000 C 
ATOM      3  C   UNL     1      -4.108  12.250  19.156  0.00  0.00    +0.000 C 
ATOM      4  N   UNL     1      -5.288  12.754  18.977  0.00  0.00    +0.000 NA
ATOM      5  C   UNL     1      -5.666  12.364  17.668  0.00  0.00    +0.000 C 
ATOM      6  O   UNL     1      -6.706  12.645  17.099  0.00  0.00    +0.000 OA
ATOM      7  C   UNL     1      -3.005  12.118  20.084  0.00  0.00    +0.000 A 
ATOM      8  C   UNL     1      -2.815  12.593  21.381  0.00  0.00    +0.000 A 
ATOM      9  C   UNL     1      -1.592  12.266  22.006  0.00  0.00    +0.000 A 
ATOM     10  C   UNL     1      -0.589  11.484  21.382  0.00  0.00    +0.000 A 
ATOM     11  C   UNL     1      -0.769  11.002  20.072  0.00  0.00    +0.000 A 
ATOM     12  C   UNL     1       0.115  10.205  19.282  0.00  0.00    +0.000 A 
ATOM     13  C   UNL     1      -0.220   9.887  17.953  0.00  0.00    +0.000 A 
ATOM     14  C   UNL     1      -1.455  10.223  17.413  0.00  0.00    +0.000 A 
ATOM     15  C   UNL     1      -2.314  10.960  18.212  0.00  0.00    +0.000 A 
ATOM     16  C   UNL     1      -1.967  11.350  19.498  0.00  0.00    +0.000 A 
ENDROOT
BRANCH   1  18
ATOM     17  N   UNL     1      -3.665  10.146  14.876  0.00  0.00    +0.000 NA
ATOM     18  C   UNL     1      -4.091  10.787  15.876  0.00  0.00    +0.000 C 
ENDBRANCH   1  18
BRANCH  12  19
ATOM     19  O   UNL     1       1.314   9.769  19.828  0.00  0.00    +0.000 OA
BRANCH  19  20
ATOM     20  C   UNL     1       1.695   8.460  19.577  0.00  0.00    +0.000 A 
ATOM     21  C   UNL     1       1.473   7.511  20.572  0.00  0.00    +0.000 A 
ATOM     22  C   UNL     1       1.859   6.172  20.374  0.00  0.00    +0.000 A 
ATOM     23  C   UNL     1       2.470   5.748  19.177  0.00  0.00    +0.000 A 
ATOM     24  C   UNL     1       2.662   6.727  18.185  0.00  0.00    +0.000 A 
ATOM     25  C   UNL     1       2.266   8.055  18.370  0.00  0.00    +0.000 A 
BRANCH  23  26
ATOM     26  C   UNL     1       2.873   4.338  18.934  0.00  0.00    +0.000 A 
ATOM     27  C   UNL     1       3.793   3.672  19.765  0.00  0.00    +0.000 A 
ATOM     28  C   UNL     1       4.114   2.322  19.569  0.00  0.00    +0.000 A 
ATOM     29  C   UNL     1       3.517   1.601  18.539  0.00  0.00    +0.000 A 
ATOM     30  C   UNL     1       2.618   2.235  17.691  0.00  0.00    +0.000 A 
ATOM     31  C   UNL     1       2.312   3.588  17.880  0.00  0.00    +0.000 A 
ENDBRANCH  23  26
ENDBRANCH  19  20
ENDBRANCH  12  19
TORSDOF 4
ENDMDL
MODEL 2
REMARK VINA RESULT:      -9.3      1.701      3.442
REMARK  Name = 
REMARK  4 active torsions:
REMARK  status: ('A' for Active; 'I' for Inactive)
REMARK    1  A    between atoms: C_2  and  C_3
REMARK    2  A    between atoms: C_14  and  O_15
REMARK    3  A    between atoms: O_15  and  C_16
REMARK    4  A    between atoms: C_19  and  C_20
REMARK                            x       y       z     vdW  Elec       q    Type
REMARK                         _______ _______ _______ _____ _____    ______ ____
ROOT
ATOM      1  C   UNL     1      -4.486  13.557  20.945  0.00  0.00    +0.000 C 
ATOM      2  C   UNL     1      -3.748  12.788  20.164  0.00  0.00    +0.000 C 
ATOM      3  C   UNL     1      -4.612  12.162  19.193  0.00  0.00    +0.000 C 
ATOM      4  N   UNL     1      -5.849  12.513  19.349  0.00  0.00    +0.000 NA
ATOM      5  C   UNL     1      -5.849  13.396  20.457  0.00  0.00    +0.000 C 
ATOM      6  O   UNL     1      -6.821  13.945  20.946  0.00  0.00    +0.000 OA
ATOM      7  C   UNL     1      -3.697  11.362  18.405  0.00  0.00    +0.000 A 
ATOM      8  C   UNL     1      -3.897  10.526  17.307  0.00  0.00    +0.000 A 
ATOM      9  C   UNL     1      -2.755   9.890  16.775  0.00  0.00    +0.000 A 
ATOM     10  C   UNL     1      -1.452  10.079  17.296  0.00  0.00    +0.000 A 
ATOM     11  C   UNL     1      -1.238  10.918  18.406  0.00  0.00    +0.000 A 
ATOM     12  C   UNL     1      -0.013  11.233  19.067  0.00  0.00    +0.000 A 
ATOM     13  C   UNL     1      -0.020  12.042  20.219  0.00  0.00    +0.000 A 
ATOM     14  C   UNL     1      -1.183  12.654  20.670  0.00  0.00    +0.000 A 
ATOM     15  C   UNL     1      -2.353  12.367  19.988  0.00  0.00    +0.000 A 
ATOM     16  C   UNL     1      -2.376  11.509  18.898  0.00  0.00    +0.000 A 
ENDROOT
BRANCH   1  18
ATOM     17  N   UNL     1      -2.774  14.706  22.811  0.00  0.00    +0.000 NA
ATOM     18  C   UNL     1      -3.550  14.185  21.965  0.00  0.00    +0.000 C 
ENDBRANCH   1  18
BRANCH  12  19
ATOM     19  O   UNL     1       1.180  10.716  18.580  0.00  0.00    +0.000 OA
BRANCH  19  20
ATOM     20  C   UNL     1       1.502   9.412  18.922  0.00  0.00    +0.000 A 
ATOM     21  C   UNL     1       2.117   8.615  17.959  0.00  0.00    +0.000 A 
ATOM     22  C   UNL     1       2.447   7.278  18.251  0.00  0.00    +0.000 A 
ATOM     23  C   UNL     1       2.177   6.708  19.511  0.00  0.00    +0.000 A 
ATOM     24  C   UNL     1       1.573   7.545  20.467  0.00  0.00    +0.000 A 
ATOM     25  C   UNL     1       1.258   8.878  20.188  0.00  0.00    +0.000 A 
BRANCH  23  26
ATOM     26  C   UNL     1       2.529   5.304  19.852  0.00  0.00    +0.000 A 
ATOM     27  C   UNL     1       3.518   4.591  19.149  0.00  0.00    +0.000 A 
ATOM     28  C   UNL     1       3.891   3.294  19.523  0.00  0.00    +0.000 A 
ATOM     29  C   UNL     1       3.289   2.677  20.616  0.00  0.00    +0.000 A 
ATOM     30  C   UNL     1       2.297   3.348  21.320  0.00  0.00    +0.000 A 
ATOM     31  C   UNL     1       1.916   4.638  20.933  0.00  0.00    +0.000 A 
ENDBRANCH  23  26
ENDBRANCH  19  20
ENDBRANCH  12  19
TORSDOF 4
ENDMDL
MODEL 3
REMARK VINA RESULT:      -9.2      1.798      3.390
REMARK  Name = 
REMARK  4 active torsions:
REMARK  status: ('A' for Active; 'I' for Inactive)
REMARK    1  A    between atoms: C_2  and  C_3
REMARK    2  A    between atoms: C_14  and  O_15
REMARK    3  A    between atoms: O_15  and  C_16
REMARK    4  A    between atoms: C_19  and  C_20
REMARK                            x       y       z     vdW  Elec       q    Type
REMARK                         _______ _______ _______ _____ _____    ______ ____
ROOT
ATOM      1  C   UNL     1      -4.071  13.609  21.226  0.00  0.00    +0.000 C 
ATOM      2  C   UNL     1      -3.438  12.824  20.373  0.00  0.00    +0.000 C 
ATOM      3  C   UNL     1      -4.409  12.264  19.463  0.00  0.00    +0.000 C 
ATOM      4  N   UNL     1      -5.609  12.671  19.727  0.00  0.00    +0.000 NA
ATOM      5  C   UNL     1      -5.476  13.527  20.848  0.00  0.00    +0.000 C 
ATOM      6  O   UNL     1      -6.376  14.111  21.426  0.00  0.00    +0.000 OA
ATOM      7  C   UNL     1      -3.602  11.440  18.587  0.00  0.00    +0.000 A 
ATOM      8  C   UNL     1      -3.932  10.642  17.493  0.00  0.00    +0.000 A 
ATOM      9  C   UNL     1      -2.870   9.964  16.856  0.00  0.00    +0.000 A 
ATOM     10  C   UNL     1      -1.521  10.075  17.273  0.00  0.00    +0.000 A 
ATOM     11  C   UNL     1      -1.176  10.875  18.378  0.00  0.00    +0.000 A 
ATOM     12  C   UNL     1       0.112  11.114  18.943  0.00  0.00    +0.000 A 
ATOM     13  C   UNL     1       0.239  11.895  20.108  0.00  0.00    +0.000 A 
ATOM     14  C   UNL     1      -0.851  12.551  20.665  0.00  0.00    +0.000 A 
ATOM     15  C   UNL     1      -2.086  12.339  20.075  0.00  0.00    +0.000 A 
ATOM     16  C   UNL     1      -2.239  11.509  18.973  0.00  0.00    +0.000 A 
ENDROOT
BRANCH   1  18
ATOM     17  N   UNL     1      -2.158  14.627  22.969  0.00  0.00    +0.000 NA
ATOM     18  C   UNL     1      -3.026  14.165  22.179  0.00  0.00    +0.000 C 
ENDBRANCH   1  18
BRANCH  12  19
ATOM     19  O   UNL     1       1.234  10.552  18.351  0.00  0.00    +0.000 OA
BRANCH  19  20
ATOM     20  C   UNL     1       1.573   9.259  18.716  0.00  0.00    +0.000 A 
ATOM     21  C   UNL     1       1.303   8.854  20.021  0.00  0.00    +0.000 A 
ATOM     22  C   UNL     1       1.647   7.557  20.447  0.00  0.00    +0.000 A 
ATOM     23  C   UNL     1       2.261   6.632  19.579  0.00  0.00    +0.000 A 
ATOM     24  C   UNL     1       2.502   7.065  18.262  0.00  0.00    +0.000 A 
ATOM     25  C   UNL     1       2.149   8.347  17.830  0.00  0.00    +0.000 A 
BRANCH  23  26
ATOM     26  C   UNL     1       2.619   5.251  19.997  0.00  0.00    +0.000 A 
ATOM     27  C   UNL     1       1.939   4.585  21.033  0.00  0.00    +0.000 A 
ATOM     28  C   UNL     1       2.237   3.258  21.372  0.00  0.00    +0.000 A 
ATOM     29  C   UNL     1       3.222   2.560  20.677  0.00  0.00    +0.000 A 
ATOM     30  C   UNL     1       3.923   3.196  19.660  0.00  0.00    +0.000 A 
ATOM     31  C   UNL     1       3.633   4.526  19.336  0.00  0.00    +0.000 A 
ENDBRANCH  23  26
ENDBRANCH  19  20
ENDBRANCH  12  19
TORSDOF 4
ENDMDL
MODEL 4
REMARK VINA RESULT:      -9.1      1.568      3.233
REMARK  Name = 
REMARK  4 active torsions:
REMARK  status: ('A' for Active; 'I' for Inactive)
REMARK    1  A    between atoms: C_2  and  C_3
REMARK    2  A    between atoms: C_14  and  O_15
REMARK    3  A    between atoms: O_15  and  C_16
REMARK    4  A    between atoms: C_19  and  C_20
REMARK                            x       y       z     vdW  Elec       q    Type
REMARK                         _______ _______ _______ _____ _____    ______ ____
ROOT
ATOM      1  C   UNL     1      -5.297  13.127  20.152  0.00  0.00    +0.000 C 
ATOM      2  C   UNL     1      -4.340  12.454  19.538  0.00  0.00    +0.000 C 
ATOM      3  C   UNL     1      -4.922  11.755  18.417  0.00  0.00    +0.000 C 
ATOM      4  N   UNL     1      -6.196  11.969  18.323  0.00  0.00    +0.000 NA
ATOM      5  C   UNL     1      -6.511  12.829  19.404  0.00  0.00    +0.000 C 
ATOM      6  O   UNL     1      -7.614  13.263  19.688  0.00  0.00    +0.000 OA
ATOM      7  C   UNL     1      -3.789  11.070  17.831  0.00  0.00    +0.000 A 
ATOM      8  C   UNL     1      -3.676  10.236  16.720  0.00  0.00    +0.000 A 
ATOM      9  C   UNL     1      -2.389   9.735  16.427  0.00  0.00    +0.000 A 
ATOM     10  C   UNL     1      -1.243  10.054  17.196  0.00  0.00    +0.000 A 
ATOM     11  C   UNL     1      -1.345  10.892  18.322  0.00  0.00    +0.000 A 
ATOM     12  C   UNL     1      -0.316  11.326  19.211  0.00  0.00    +0.000 A 
ATOM     13  C   UNL     1      -0.638  12.111  20.335  0.00  0.00    +0.000 A 
ATOM     14  C   UNL     1      -1.926  12.587  20.543  0.00  0.00    +0.000 A 
ATOM     15  C   UNL     1      -2.901  12.188  19.643  0.00  0.00    +0.000 A 
ATOM     16  C   UNL     1      -2.615  11.350  18.575  0.00  0.00    +0.000 A 
ENDROOT
BRANCH   1  18
ATOM     17  N   UNL     1      -4.122  14.422  22.315  0.00  0.00    +0.000 NA
ATOM     18  C   UNL     1      -4.655  13.835  21.334  0.00  0.00    +0.000 C 
ENDBRANCH   1  18
BRANCH  12  19
ATOM     19  O   UNL     1       0.998  10.948  18.974  0.00  0.00    +0.000 OA
BRANCH  19  20
ATOM     20  C   UNL     1       1.336   9.623  19.200  0.00  0.00    +0.000 A 
ATOM     21  C   UNL     1       1.030   9.071  20.442  0.00  0.00    +0.000 A 
ATOM     22  C   UNL     1       1.370   7.736  20.727  0.00  0.00    +0.000 A 
ATOM     23  C   UNL     1       2.018   6.918  19.780  0.00  0.00    +0.000 A 
ATOM     24  C   UNL     1       2.296   7.500  18.529  0.00  0.00    +0.000 A 
ATOM     25  C   UNL     1       1.946   8.821  18.234  0.00  0.00    +0.000 A 
BRANCH  23  26
ATOM     26  C   UNL     1       2.374   5.500  20.049  0.00  0.00    +0.000 A 
ATOM     27  C   UNL     1       1.503   4.628  20.726  0.00  0.00    +0.000 A 
ATOM     28  C   UNL     1       1.818   3.275  20.912  0.00  0.00    +0.000 A 
ATOM     29  C   UNL     1       3.013   2.758  20.420  0.00  0.00    +0.000 A 
ATOM     30  C   UNL     1       3.902   3.599  19.762  0.00  0.00    +0.000 A 
ATOM     31  C   UNL     1       3.591   4.952  19.592  0.00  0.00    +0.000 A 
ENDBRANCH  23  26
ENDBRANCH  19  20
ENDBRANCH  12  19
TORSDOF 4
ENDMDL
MODEL 5
REMARK VINA RESULT:      -8.9      2.001      3.725
REMARK  Name = 
REMARK  4 active torsions:
REMARK  status: ('A' for Active; 'I' for Inactive)
REMARK    1  A    between atoms: C_2  and  C_3
REMARK    2  A    between atoms: C_14  and  O_15
REMARK    3  A    between atoms: O_15  and  C_16
REMARK    4  A    between atoms: C_19  and  C_20
REMARK                            x       y       z     vdW  Elec       q    Type
REMARK                         _______ _______ _______ _____ _____    ______ ____
ROOT
ATOM      1  C   UNL     1      -3.195  13.725  22.076  0.00  0.00    +0.000 C 
ATOM      2  C   UNL     1      -2.747  12.951  21.104  0.00  0.00    +0.000 C 
ATOM      3  C   UNL     1      -3.845  12.655  20.214  0.00  0.00    +0.000 C 
ATOM      4  N   UNL     1      -4.946  13.213  20.605  0.00  0.00    +0.000 NA
ATOM      5  C   UNL     1      -4.613  13.906  21.795  0.00  0.00    +0.000 C 
ATOM      6  O   UNL     1      -5.372  14.555  22.494  0.00  0.00    +0.000 OA
ATOM      7  C   UNL     1      -3.234  11.818  19.203  0.00  0.00    +0.000 A 
ATOM      8  C   UNL     1      -3.750  11.209  18.060  0.00  0.00    +0.000 A 
ATOM      9  C   UNL     1      -2.850  10.449  17.282  0.00  0.00    +0.000 A 
ATOM     10  C   UNL     1      -1.480  10.302  17.609  0.00  0.00    +0.000 A 
ATOM     11  C   UNL     1      -0.948  10.909  18.762  0.00  0.00    +0.000 A 
ATOM     12  C   UNL     1       0.392  10.878  19.253  0.00  0.00    +0.000 A 
ATOM     13  C   UNL     1       0.709  11.494  20.479  0.00  0.00    +0.000 A 
ATOM     14  C   UNL     1      -0.227  12.247  21.177  0.00  0.00    +0.000 A 
ATOM     15  C   UNL     1      -1.511  12.298  20.660  0.00  0.00    +0.000 A 
ATOM     16  C   UNL     1      -1.859  11.631  19.494  0.00  0.00    +0.000 A 
ENDROOT
BRANCH   1  18
ATOM     17  N   UNL     1      -1.048  14.230  23.770  0.00  0.00    +0.000 NA
ATOM     18  C   UNL     1      -2.021  14.001  23.002  0.00  0.00    +0.000 C 
ENDBRANCH   1  18
BRANCH  12  19
ATOM     19  O   UNL     1       1.372  10.218  18.526  0.00  0.00    +0.000 OA
BRANCH  19  20
ATOM     20  C   UNL     1       1.701   8.929  18.915  0.00  0.00    +0.000 A 
ATOM     21  C   UNL     1       2.327   8.103  17.984  0.00  0.00    +0.000 A 
ATOM     22  C   UNL     1       2.664   6.779  18.324  0.00  0.00    +0.000 A 
ATOM     23  C   UNL     1       2.391   6.251  19.601  0.00  0.00    +0.000 A 
ATOM     24  C   UNL     1       1.776   7.117  20.524  0.00  0.00    +0.000 A 
ATOM     25  C   UNL     1       1.453   8.437  20.198  0.00  0.00    +0.000 A 
BRANCH  23  26
ATOM     26  C   UNL     1       2.750   4.863  19.993  0.00  0.00    +0.000 A 
ATOM     27  C   UNL     1       3.801   4.161  19.374  0.00  0.00    +0.000 A 
ATOM     28  C   UNL     1       4.177   2.880  19.797  0.00  0.00    +0.000 A 
ATOM     29  C   UNL     1       3.515   2.268  20.858  0.00  0.00    +0.000 A 
ATOM     30  C   UNL     1       2.461   2.928  21.479  0.00  0.00    +0.000 A 
ATOM     31  C   UNL     1       2.079   4.201  21.042  0.00  0.00    +0.000 A 
ENDBRANCH  23  26
ENDBRANCH  19  20
ENDBRANCH  12  19
TORSDOF 4
ENDMDL
MODEL 6
REMARK VINA RESULT:      -8.8      1.747      2.414
REMARK  Name = 
REMARK  4 active torsions:
REMARK  status: ('A' for Active; 'I' for Inactive)
REMARK    1  A    between atoms: C_2  and  C_3
REMARK    2  A    between atoms: C_14  and  O_15
REMARK    3  A    between atoms: O_15  and  C_16
REMARK    4  A    between atoms: C_19  and  C_20
REMARK                            x       y       z     vdW  Elec       q    Type
REMARK                         _______ _______ _______ _____ _____    ______ ____
ROOT
ATOM      1  C   UNL     1      -5.788  12.456  19.586  0.00  0.00    +0.000 C 
ATOM      2  C   UNL     1      -4.568  12.427  20.092  0.00  0.00    +0.000 C 
ATOM      3  C   UNL     1      -4.649  12.755  21.495  0.00  0.00    +0.000 C 
ATOM      4  N   UNL     1      -5.867  12.987  21.867  0.00  0.00    +0.000 NA
ATOM      5  C   UNL     1      -6.652  12.826  20.699  0.00  0.00    +0.000 C 
ATOM      6  O   UNL     1      -7.859  12.970  20.610  0.00  0.00    +0.000 OA
ATOM      7  C   UNL     1      -3.270  12.685  21.931  0.00  0.00    +0.000 A 
ATOM      8  C   UNL     1      -2.674  12.883  23.175  0.00  0.00    +0.000 A 
ATOM      9  C   UNL     1      -1.272  12.727  23.242  0.00  0.00    +0.000 A 
ATOM     10  C   UNL     1      -0.480  12.374  22.122  0.00  0.00    +0.000 A 
ATOM     11  C   UNL     1      -1.070  12.174  20.860  0.00  0.00    +0.000 A 
ATOM     12  C   UNL     1      -0.447  11.815  19.627  0.00  0.00    +0.000 A 
ATOM     13  C   UNL     1      -1.210  11.737  18.447  0.00  0.00    +0.000 A 
ATOM     14  C   UNL     1      -2.592  11.880  18.464  0.00  0.00    +0.000 A 
ATOM     15  C   UNL     1      -3.181  12.185  19.680  0.00  0.00    +0.000 A 
ATOM     16  C   UNL     1      -2.433  12.344  20.838  0.00  0.00    +0.000 A 
ENDROOT
BRANCH   1  18
ATOM     17  N   UNL     1      -5.562  11.852  16.880  0.00  0.00    +0.000 NA
ATOM     18  C   UNL     1      -5.664  12.126  18.107  0.00  0.00    +0.000 C 
ENDBRANCH   1  18
BRANCH  12  19
ATOM     19  O   UNL     1       0.919  11.569  19.597  0.00  0.00    +0.000 OA
BRANCH  19  20
ATOM     20  C   UNL     1       1.334  10.300  19.224  0.00  0.00    +0.000 A 
ATOM     21  C   UNL     1       1.172   9.262  20.138  0.00  0.00    +0.000 A 
ATOM     22  C   UNL     1       1.595   7.959  19.813  0.00  0.00    +0.000 A 
ATOM     23  C   UNL     1       2.184   7.661  18.569  0.00  0.00    +0.000 A 
ATOM     24  C   UNL     1       2.316   8.728  17.661  0.00  0.00    +0.000 A 
ATOM     25  C   UNL     1       1.883  10.020  17.971  0.00  0.00    +0.000 A 
BRANCH  23  26
ATOM     26  C   UNL     1       2.625   6.292  18.193  0.00  0.00    +0.000 A 
ATOM     27  C   UNL     1       1.724   5.214  18.111  0.00  0.00    +0.000 A 
ATOM     28  C   UNL     1       2.137   3.944  17.689  0.00  0.00    +0.000 A 
ATOM     29  C   UNL     1       3.464   3.720  17.330  0.00  0.00    +0.000 A 
ATOM     30  C   UNL     1       4.381   4.760  17.417  0.00  0.00    +0.000 A 
ATOM     31  C   UNL     1       3.967   6.023  17.855  0.00  0.00    +0.000 A 
ENDBRANCH  23  26
ENDBRANCH  19  20
ENDBRANCH  12  19
TORSDOF 4
ENDMDL
MODEL 7
REMARK VINA RESULT:      -8.7      1.244      1.764
REMARK  Name = 
REMARK  4 active torsions:
REMARK  status: ('A' for Active; 'I' for Inactive)
REMARK    1  A    between atoms: C_2  and  C_3
REMARK    2  A    between atoms: C_14  and  O_15
REMARK    3  A    between atoms: O_15  and  C_16
REMARK    4  A    between atoms: C_19  and  C_20
REMARK                            x       y       z     vdW  Elec       q    Type
REMARK                         _______ _______ _______ _____ _____    ______ ____
ROOT
ATOM      1  C   UNL     1      -4.961  11.797  17.139  0.00  0.00    +0.000 C 
ATOM      2  C   UNL     1      -4.051  11.788  18.096  0.00  0.00    +0.000 C 
ATOM      3  C   UNL     1      -4.557  12.550  19.213  0.00  0.00    +0.000 C 
ATOM      4  N   UNL     1      -5.737  13.028  18.976  0.00  0.00    +0.000 NA
ATOM      5  C   UNL     1      -6.059  12.598  17.665  0.00  0.00    +0.000 C 
ATOM      6  O   UNL     1      -7.082  12.846  17.051  0.00  0.00    +0.000 OA
ATOM      7  C   UNL     1      -3.487  12.461  20.185  0.00  0.00    +0.000 A 
ATOM      8  C   UNL     1      -3.354  12.972  21.475  0.00  0.00    +0.000 A 
ATOM      9  C   UNL     1      -2.150  12.683  22.153  0.00  0.00    +0.000 A 
ATOM     10  C   UNL     1      -1.112  11.904  21.587  0.00  0.00    +0.000 A 
ATOM     11  C   UNL     1      -1.233  11.385  20.284  0.00  0.00    +0.000 A 
ATOM     12  C   UNL     1      -0.308  10.585  19.549  0.00  0.00    +0.000 A 
ATOM     13  C   UNL     1      -0.587  10.227  18.217  0.00  0.00    +0.000 A 
ATOM     14  C   UNL     1      -1.806  10.528  17.623  0.00  0.00    +0.000 A 
ATOM     15  C   UNL     1      -2.707  11.269  18.370  0.00  0.00    +0.000 A 
ATOM     16  C   UNL     1      -2.415  11.697  19.657  0.00  0.00    +0.000 A 
ENDROOT
BRANCH   1  18
ATOM     17  N   UNL     1      -3.917  10.347  15.008  0.00  0.00    +0.000 NA
ATOM     18  C   UNL     1      -4.390  11.005  15.974  0.00  0.00    +0.000 C 
ENDBRANCH   1  18
BRANCH  12  19
ATOM     19  O   UNL     1       0.878  10.184  20.150  0.00  0.00    +0.000 OA
BRANCH  19  20
ATOM     20  C   UNL     1       1.556   9.117  19.583  0.00  0.00    +0.000 A 
ATOM     21  C   UNL     1       2.052   9.268  18.290  0.00  0.00    +0.000 A 
ATOM     22  C   UNL     1       2.731   8.207  17.663  0.00  0.00    +0.000 A 
ATOM     23  C   UNL     1       2.937   6.974  18.312  0.00  0.00    +0.000 A 
ATOM     24  C   UNL     1       2.441   6.860  19.624  0.00  0.00    +0.000 A 
ATOM     25  C   UNL     1       1.780   7.916  20.258  0.00  0.00    +0.000 A 
BRANCH  23  26
ATOM     26  C   UNL     1       3.665   5.842  17.680  0.00  0.00    +0.000 A 
ATOM     27  C   UNL     1       3.155   4.530  17.688  0.00  0.00    +0.000 A 
ATOM     28  C   UNL     1       3.813   3.484  17.029  0.00  0.00    +0.000 A 
ATOM     29  C   UNL     1       4.999   3.723  16.340  0.00  0.00    +0.000 A 
ATOM     30  C   UNL     1       5.537   5.004  16.328  0.00  0.00    +0.000 A 
ATOM     31  C   UNL     1       4.884   6.043  17.001  0.00  0.00    +0.000 A 
ENDBRANCH  23  26
ENDBRANCH  19  20
ENDBRANCH  12  19
TORSDOF 4
ENDMDL
MODEL 8
REMARK VINA RESULT:      -8.7      3.591      9.537
REMARK  Name = 
REMARK  4 active torsions:
REMARK  status: ('A' for Active; 'I' for Inactive)
REMARK    1  A    between atoms: C_2  and  C_3
REMARK    2  A    between atoms: C_14  and  O_15
REMARK    3  A    between atoms: O_15  and  C_16
REMARK    4  A    between atoms: C_19  and  C_20
REMARK                            x       y       z     vdW  Elec       q    Type
REMARK                         _______ _______ _______ _____ _____    ______ ____
ROOT
ATOM      1  C   UNL     1       2.726   2.643  19.603  0.00  0.00    +0.000 C 
ATOM      2  C   UNL     1       2.904   3.881  19.180  0.00  0.00    +0.000 C 
ATOM      3  C   UNL     1       3.731   3.844  17.997  0.00  0.00    +0.000 C 
ATOM      4  N   UNL     1       4.069   2.635  17.682  0.00  0.00    +0.000 NA
ATOM      5  C   UNL     1       3.472   1.811  18.669  0.00  0.00    +0.000 C 
ATOM      6  O   UNL     1       3.557   0.597  18.748  0.00  0.00    +0.000 OA
ATOM      7  C   UNL     1       3.847   5.241  17.632  0.00  0.00    +0.000 A 
ATOM      8  C   UNL     1       4.503   5.878  16.580  0.00  0.00    +0.000 A 
ATOM      9  C   UNL     1       4.402   7.285  16.526  0.00  0.00    +0.000 A 
ATOM     10  C   UNL     1       3.667   8.044  17.469  0.00  0.00    +0.000 A 
ATOM     11  C   UNL     1       3.002   7.412  18.536  0.00  0.00    +0.000 A 
ATOM     12  C   UNL     1       2.218   7.998  19.575  0.00  0.00    +0.000 A 
ATOM     13  C   UNL     1       1.695   7.193  20.604  0.00  0.00    +0.000 A 
ATOM     14  C   UNL     1       1.815   5.809  20.577  0.00  0.00    +0.000 A 
ATOM     15  C   UNL     1       2.545   5.259  19.536  0.00  0.00    +0.000 A 
ATOM     16  C   UNL     1       3.134   6.045  18.557  0.00  0.00    +0.000 A 
ENDROOT
BRANCH   1  18
ATOM     17  N   UNL     1       1.159   2.783  21.896  0.00  0.00    +0.000 NA
ATOM     18  C   UNL     1       1.869   2.719  20.857  0.00  0.00    +0.000 C 
ENDBRANCH   1  18
BRANCH  12  19
ATOM     19  O   UNL     1       1.996   9.368  19.575  0.00  0.00    +0.000 OA
BRANCH  19  20
ATOM     20  C   UNL     1       0.738   9.815  19.205  0.00  0.00    +0.000 A 
ATOM     21  C   UNL     1       0.037  10.618  20.102  0.00  0.00    +0.000 A 
ATOM     22  C   UNL     1      -1.253  11.081  19.780  0.00  0.00    +0.000 A 
ATOM     23  C   UNL     1      -1.870  10.760  18.555  0.00  0.00    +0.000 A 
ATOM     24  C   UNL     1      -1.129   9.963  17.664  0.00  0.00    +0.000 A 
ATOM     25  C   UNL     1       0.159   9.513  17.970  0.00  0.00    +0.000 A 
BRANCH  23  26
ATOM     26  C   UNL     1      -3.225  11.248  18.183  0.00  0.00    +0.000 A 
ATOM     27  C   UNL     1      -3.765  11.041  16.900  0.00  0.00    +0.000 A 
ATOM     28  C   UNL     1      -5.069  11.443  16.581  0.00  0.00    +0.000 A 
ATOM     29  C   UNL     1      -5.869  12.058  17.539  0.00  0.00    +0.000 A 
ATOM     30  C   UNL     1      -5.358  12.292  18.810  0.00  0.00    +0.000 A 
ATOM     31  C   UNL     1      -4.049  11.904  19.120  0.00  0.00    +0.000 A 
ENDBRANCH  23  26
ENDBRANCH  19  20
ENDBRANCH  12  19
TORSDOF 4
ENDMDL
MODEL 9
REMARK VINA RESULT:      -8.7      1.587      2.148
REMARK  Name = 
REMARK  4 active torsions:
REMARK  status: ('A' for Active; 'I' for Inactive)
REMARK    1  A    between atoms: C_2  and  C_3
REMARK    2  A    between atoms: C_14  and  O_15
REMARK    3  A    between atoms: O_15  and  C_16
REMARK    4  A    between atoms: C_19  and  C_20
REMARK                            x       y       z     vdW  Elec       q    Type
REMARK                         _______ _______ _______ _____ _____    ______ ____
ROOT
ATOM      1  C   UNL     1      -5.657  12.581  19.347  0.00  0.00    +0.000 C 
ATOM      2  C   UNL     1      -4.460  12.501  19.900  0.00  0.00    +0.000 C 
ATOM      3  C   UNL     1      -4.564  12.932  21.274  0.00  0.00    +0.000 C 
ATOM      4  N   UNL     1      -5.773  13.276  21.582  0.00  0.00    +0.000 NA
ATOM      5  C   UNL     1      -6.528  13.089  20.398  0.00  0.00    +0.000 C 
ATOM      6  O   UNL     1      -7.718  13.313  20.253  0.00  0.00    +0.000 OA
ATOM      7  C   UNL     1      -3.209  12.794  21.766  0.00  0.00    +0.000 A 
ATOM      8  C   UNL     1      -2.641  13.038  23.016  0.00  0.00    +0.000 A 
ATOM      9  C   UNL     1      -1.258  12.787  23.147  0.00  0.00    +0.000 A 
ATOM     10  C   UNL     1      -0.457  12.299  22.085  0.00  0.00    +0.000 A 
ATOM     11  C   UNL     1      -1.018  12.053  20.818  0.00  0.00    +0.000 A 
ATOM     12  C   UNL     1      -0.382  11.564  19.637  0.00  0.00    +0.000 A 
ATOM     13  C   UNL     1      -1.110  11.457  18.437  0.00  0.00    +0.000 A 
ATOM     14  C   UNL     1      -2.477  11.700  18.391  0.00  0.00    +0.000 A 
ATOM     15  C   UNL     1      -3.082  12.132  19.559  0.00  0.00    +0.000 A 
ATOM     16  C   UNL     1      -2.363  12.318  20.732  0.00  0.00    +0.000 A 
ENDROOT
BRANCH   1  18
ATOM     17  N   UNL     1      -5.386  11.772  16.700  0.00  0.00    +0.000 NA
ATOM     18  C   UNL     1      -5.509  12.139  17.900  0.00  0.00    +0.000 C 
ENDBRANCH   1  18
BRANCH  12  19
ATOM     19  O   UNL     1       0.961  11.219  19.676  0.00  0.00    +0.000 OA
BRANCH  19  20
ATOM     20  C   UNL     1       1.276   9.871  19.732  0.00  0.00    +0.000 A 
ATOM     21  C   UNL     1       0.952   9.169  20.891  0.00  0.00    +0.000 A 
ATOM     22  C   UNL     1       1.269   7.802  21.004  0.00  0.00    +0.000 A 
ATOM     23  C   UNL     1       1.910   7.103  19.962  0.00  0.00    +0.000 A 
ATOM     24  C   UNL     1       2.206   7.836  18.798  0.00  0.00    +0.000 A 
ATOM     25  C   UNL     1       1.880   9.189  18.673  0.00  0.00    +0.000 A 
BRANCH  23  26
ATOM     26  C   UNL     1       2.242   5.656  20.047  0.00  0.00    +0.000 A 
ATOM     27  C   UNL     1       1.370   4.725  20.642  0.00  0.00    +0.000 A 
ATOM     28  C   UNL     1       1.660   3.354  20.656  0.00  0.00    +0.000 A 
ATOM     29  C   UNL     1       2.828   2.878  20.067  0.00  0.00    +0.000 A 
ATOM     30  C   UNL     1       3.717   3.774  19.487  0.00  0.00    +0.000 A 
ATOM     31  C   UNL     1       3.431   5.144  19.490  0.00  0.00    +0.000 A 
ENDBRANCH  23  26
ENDBRANCH  19  20
ENDBRANCH  12  19
TORSDOF 4
ENDMDL
