MODEL 1
REMARK VINA RESULT:      -7.4      0.000      0.000
REMARK  Name = 
REMARK  7 active torsions:
REMARK  status: ('A' for Active; 'I' for Inactive)
REMARK    1  A    between atoms: C_1  and  C_2
REMARK    2  A    between atoms: CA_3  and  C_4
REMARK    3  A    between atoms: C_4  and  OXT_6
REMARK    4  A    between atoms: CA_10  and  N_11
REMARK    5  A    between atoms: C_12  and  CA_14
REMARK    6  A    between atoms: CA_14  and  N_15
REMARK    7  A    between atoms: CA_14  and  C_16
REMARK                            x       y       z     vdW  Elec       q    Type
REMARK                         _______ _______ _______ _____ _____    ______ ____
ROOT
ATOM      1  N   UNL     1       1.559   6.024  21.225  0.00  0.00    +0.000 N 
ATOM      2  C   UNL     1       1.785   7.324  20.818  0.00  0.00    +0.000 C 
ATOM      3  O   UNL     1       2.465   7.583  19.825  0.00  0.00    +0.000 OA
ATOM      4  H   UNL     1       1.304   5.876  22.198  0.00  0.00    +0.000 HD
ENDROOT
BRANCH   1  11
ATOM      5  C   UNL     1       5.613   4.076  18.244  0.00  0.00    +0.000 C 
ATOM      6  C   UNL     1       4.155   3.748  18.429  0.00  0.00    +0.000 C 
ATOM      7  CA  UNL     1       3.664   2.877  19.369  0.00  0.00    +0.000 C 
ATOM      8  N   UNL     1       2.358   2.963  19.899  0.00  0.00    +0.000 N 
ATOM      9  C   UNL     1       2.312   3.529  21.171  0.00  0.00    +0.000 C 
ATOM     10  O   UNL     1       2.299   3.011  22.260  0.00  0.00    +0.000 OA
ATOM     11  CA  UNL     1       2.266   4.957  20.507  0.00  0.00    +0.000 C 
ATOM     12  C   UNL     1       1.495   4.117  19.441  0.00  0.00    +0.000 C 
ATOM     13  S   UNL     1       1.571   4.447  17.695  0.00  0.00    +0.000 S 
ATOM     14  C   UNL     1       3.321   4.661  17.563  0.00  0.00    +0.000 C 
BRANCH   7  15
ATOM     15  C   UNL     1       4.590   1.885  20.063  0.00  0.00    +0.000 C 
ATOM     16  O   UNL     1       5.164   2.082  21.121  0.00  0.00    +0.000 OA
BRANCH  15  17
ATOM     17  OXT UNL     1       4.790   0.741  19.361  0.00  0.00    +0.000 OA
ATOM     18  HXT UNL     1       5.629   0.273  19.544  0.00  0.00    +0.000 HD
ENDBRANCH  15  17
ENDBRANCH   7  15
ENDBRANCH   1  11
BRANCH   2  19
ATOM     19  CA  UNL     1       1.142   8.406  21.705  0.00  0.00    +0.000 C 
BRANCH  19  20
ATOM     20  C   UNL     1       0.260   9.257  20.834  0.00  0.00    +0.000 A 
ATOM     21  C   UNL     1      -0.164   9.021  19.541  0.00  0.00    +0.000 A 
ATOM     22  C   UNL     1      -0.990  10.064  19.011  0.00  0.00    +0.000 A 
ATOM     23  C   UNL     1      -1.589  10.201  17.735  0.00  0.00    +0.000 A 
ATOM     24  C   UNL     1      -2.367  11.322  17.444  0.00  0.00    +0.000 A 
ATOM     25 CL   UNL     1      -3.088  11.469  15.888  0.00  0.00    +0.000 Cl
ATOM     26  C   UNL     1      -2.565  12.315  18.393  0.00  0.00    +0.000 A 
ATOM     27  C   UNL     1      -1.982  12.207  19.659  0.00  0.00    +0.000 A 
ATOM     28  C   UNL     1      -1.196  11.075  19.953  0.00  0.00    +0.000 A 
ATOM     29  S   UNL     1      -0.382  10.725  21.431  0.00  0.00    +0.000 S 
ENDBRANCH  19  20
BRANCH  19  30
ATOM     30  N   UNL     1       2.202   9.211  22.339  0.00  0.00    +0.000 NA
ATOM     31  H1  UNL     1       2.541   9.880  21.642  0.00  0.00    +0.000 HD
ATOM     32  H2  UNL     1       3.010   8.606  22.498  0.00  0.00    +0.000 HD
ENDBRANCH  19  30
ENDBRANCH   2  19
TORSDOF 6
ENDMDL
MODEL 2
REMARK VINA RESULT:      -7.3      1.845      2.081
REMARK  Name = 
REMARK  7 active torsions:
REMARK  status: ('A' for Active; 'I' for Inactive)
REMARK    1  A    between atoms: C_1  and  C_2
REMARK    2  A    between atoms: CA_3  and  C_4
REMARK    3  A    between atoms: C_4  and  OXT_6
REMARK    4  A    between atoms: CA_10  and  N_11
REMARK    5  A    between atoms: C_12  and  CA_14
REMARK    6  A    between atoms: CA_14  and  N_15
REMARK    7  A    between atoms: CA_14  and  C_16
REMARK                            x       y       z     vdW  Elec       q    Type
REMARK                         _______ _______ _______ _____ _____    ______ ____
ROOT
ATOM      1  N   UNL     1       1.542   6.304  21.290  0.00  0.00    +0.000 N 
ATOM      2  C   UNL     1       1.625   7.600  20.820  0.00  0.00    +0.000 C 
ATOM      3  O   UNL     1       2.166   7.866  19.745  0.00  0.00    +0.000 OA
ATOM      4  H   UNL     1       1.413   6.178  22.290  0.00  0.00    +0.000 HD
ENDROOT
BRANCH   1  11
ATOM      5  C   UNL     1       5.612   4.415  18.294  0.00  0.00    +0.000 C 
ATOM      6  C   UNL     1       4.141   4.121  18.424  0.00  0.00    +0.000 C 
ATOM      7  CA  UNL     1       3.603   3.210  19.300  0.00  0.00    +0.000 C 
ATOM      8  N   UNL     1       2.287   3.304  19.804  0.00  0.00    +0.000 N 
ATOM      9  C   UNL     1       2.225   3.796  21.106  0.00  0.00    +0.000 C 
ATOM     10  O   UNL     1       2.171   3.215  22.161  0.00  0.00    +0.000 OA
ATOM     11  CA  UNL     1       2.236   5.261  20.527  0.00  0.00    +0.000 C 
ATOM     12  C   UNL     1       1.469   4.508  19.395  0.00  0.00    +0.000 C 
ATOM     13  S   UNL     1       1.597   4.937  17.674  0.00  0.00    +0.000 S 
ATOM     14  C   UNL     1       3.356   5.107  17.595  0.00  0.00    +0.000 C 
BRANCH   7  15
ATOM     15  C   UNL     1       4.483   2.153  19.955  0.00  0.00    +0.000 C 
ATOM     16  O   UNL     1       5.062   2.283  21.020  0.00  0.00    +0.000 OA
BRANCH  15  17
ATOM     17  OXT UNL     1       4.633   1.029  19.209  0.00  0.00    +0.000 OA
ATOM     18  HXT UNL     1       5.418   1.009  18.625  0.00  0.00    +0.000 HD
ENDBRANCH  15  17
ENDBRANCH   7  15
ENDBRANCH   1  11
BRANCH   2  19
ATOM     19  CA  UNL     1       1.013   8.670  21.743  0.00  0.00    +0.000 C 
BRANCH  19  20
ATOM     20  C   UNL     1       0.767   9.905  20.923  0.00  0.00    +0.000 A 
ATOM     21  C   UNL     1       1.457  11.101  20.933  0.00  0.00    +0.000 A 
ATOM     22  C   UNL     1       0.930  12.074  20.022  0.00  0.00    +0.000 A 
ATOM     23  C   UNL     1       1.338  13.405  19.765  0.00  0.00    +0.000 A 
ATOM     24  C   UNL     1       0.661  14.173  18.816  0.00  0.00    +0.000 A 
ATOM     25 CL   UNL     1       1.173  15.789  18.515  0.00  0.00    +0.000 Cl
ATOM     26  C   UNL     1      -0.414  13.648  18.114  0.00  0.00    +0.000 A 
ATOM     27  C   UNL     1      -0.840  12.338  18.351  0.00  0.00    +0.000 A 
ATOM     28  C   UNL     1      -0.158  11.562  19.310  0.00  0.00    +0.000 A 
ATOM     29  S   UNL     1      -0.498   9.938  19.772  0.00  0.00    +0.000 S 
ENDBRANCH  19  20
BRANCH  19  30
ATOM     30  N   UNL     1       1.941   8.944  22.855  0.00  0.00    +0.000 NA
ATOM     31  H1  UNL     1       1.826   8.196  23.544  0.00  0.00    +0.000 HD
ATOM     32  H2  UNL     1       1.607   9.774  23.350  0.00  0.00    +0.000 HD
ENDBRANCH  19  30
ENDBRANCH   2  19
TORSDOF 6
ENDMDL
MODEL 3
REMARK VINA RESULT:      -6.8      2.316      3.094
REMARK  Name = 
REMARK  7 active torsions:
REMARK  status: ('A' for Active; 'I' for Inactive)
REMARK    1  A    between atoms: C_1  and  C_2
REMARK    2  A    between atoms: CA_3  and  C_4
REMARK    3  A    between atoms: C_4  and  OXT_6
REMARK    4  A    between atoms: CA_10  and  N_11
REMARK    5  A    between atoms: C_12  and  CA_14
REMARK    6  A    between atoms: CA_14  and  N_15
REMARK    7  A    between atoms: CA_14  and  C_16
REMARK                            x       y       z     vdW  Elec       q    Type
REMARK                         _______ _______ _______ _____ _____    ______ ____
ROOT
ATOM      1  N   UNL     1       2.760   7.546  18.269  0.00  0.00    +0.000 N 
ATOM      2  C   UNL     1       1.941   8.348  19.038  0.00  0.00    +0.000 C 
ATOM      3  O   UNL     1       1.284   7.894  19.975  0.00  0.00    +0.000 OA
ATOM      4  H   UNL     1       2.995   7.876  17.336  0.00  0.00    +0.000 HD
ENDROOT
BRANCH   1  11
ATOM      5  C   UNL     1       0.253   2.798  18.809  0.00  0.00    +0.000 C 
ATOM      6  C   UNL     1       1.501   3.430  19.368  0.00  0.00    +0.000 C 
ATOM      7  CA  UNL     1       2.740   3.360  18.780  0.00  0.00    +0.000 C 
ATOM      8  N   UNL     1       3.744   4.336  18.970  0.00  0.00    +0.000 N 
ATOM      9  C   UNL     1       3.871   5.217  17.899  0.00  0.00    +0.000 C 
ATOM     10  O   UNL     1       4.616   5.197  16.952  0.00  0.00    +0.000 OA
ATOM     11  CA  UNL     1       2.726   6.101  18.522  0.00  0.00    +0.000 C 
ATOM     12  C   UNL     1       3.395   5.539  19.816  0.00  0.00    +0.000 C 
ATOM     13  S   UNL     1       2.489   5.161  21.299  0.00  0.00    +0.000 S 
ATOM     14  C   UNL     1       1.141   4.297  20.549  0.00  0.00    +0.000 C 
BRANCH   7  15
ATOM     15  C   UNL     1       3.028   2.324  17.701  0.00  0.00    +0.000 C 
ATOM     16  O   UNL     1       2.499   2.287  16.603  0.00  0.00    +0.000 OA
BRANCH  15  17
ATOM     17  OXT UNL     1       3.908   1.365  18.086  0.00  0.00    +0.000 OA
ATOM     18  HXT UNL     1       4.697   1.261  17.517  0.00  0.00    +0.000 HD
ENDBRANCH  15  17
ENDBRANCH   7  15
ENDBRANCH   1  11
BRANCH   2  19
ATOM     19  CA  UNL     1       1.902   9.830  18.623  0.00  0.00    +0.000 C 
BRANCH  19  20
ATOM     20  C   UNL     1       0.478  10.301  18.715  0.00  0.00    +0.000 A 
ATOM     21  C   UNL     1      -0.608   9.926  17.949  0.00  0.00    +0.000 A 
ATOM     22  C   UNL     1      -1.822  10.597  18.309  0.00  0.00    +0.000 A 
ATOM     23  C   UNL     1      -3.120  10.505  17.752  0.00  0.00    +0.000 A 
ATOM     24  C   UNL     1      -4.164  11.267  18.281  0.00  0.00    +0.000 A 
ATOM     25 CL   UNL     1      -5.736  11.140  17.591  0.00  0.00    +0.000 Cl
ATOM     26  C   UNL     1      -3.947  12.121  19.352  0.00  0.00    +0.000 A 
ATOM     27  C   UNL     1      -2.674  12.234  19.918  0.00  0.00    +0.000 A 
ATOM     28  C   UNL     1      -1.620  11.465  19.384  0.00  0.00    +0.000 A 
ATOM     29  S   UNL     1       0.021  11.437  19.910  0.00  0.00    +0.000 S 
ENDBRANCH  19  20
BRANCH  19  30
ATOM     30  N   UNL     1       2.421   9.968  17.250  0.00  0.00    +0.000 NA
ATOM     31  H1  UNL     1       2.010   9.218  16.688  0.00  0.00    +0.000 HD
ATOM     32  H2  UNL     1       3.417   9.737  17.262  0.00  0.00    +0.000 HD
ENDBRANCH  19  30
ENDBRANCH   2  19
TORSDOF 6
ENDMDL
MODEL 4
REMARK VINA RESULT:      -6.7      5.945      9.762
REMARK  Name = 
REMARK  7 active torsions:
REMARK  status: ('A' for Active; 'I' for Inactive)
REMARK    1  A    between atoms: C_1  and  C_2
REMARK    2  A    between atoms: CA_3  and  C_4
REMARK    3  A    between atoms: C_4  and  OXT_6
REMARK    4  A    between atoms: CA_10  and  N_11
REMARK    5  A    between atoms: C_12  and  CA_14
REMARK    6  A    between atoms: CA_14  and  N_15
REMARK    7  A    between atoms: CA_14  and  C_16
REMARK                            x       y       z     vdW  Elec       q    Type
REMARK                         _______ _______ _______ _____ _____    ______ ____
ROOT
ATOM      1  N   UNL     1       1.594  13.301  19.038  0.00  0.00    +0.000 N 
ATOM      2  C   UNL     1       1.226  12.327  19.945  0.00  0.00    +0.000 C 
ATOM      3  O   UNL     1       1.666  12.314  21.096  0.00  0.00    +0.000 OA
ATOM      4  H   UNL     1       1.492  13.082  18.051  0.00  0.00    +0.000 HD
ENDROOT
BRANCH   1  11
ATOM      5  C   UNL     1       6.180  14.664  21.534  0.00  0.00    +0.000 C 
ATOM      6  C   UNL     1       4.893  15.363  21.183  0.00  0.00    +0.000 C 
ATOM      7  CA  UNL     1       4.663  16.027  20.004  0.00  0.00    +0.000 C 
ATOM      8  N   UNL     1       3.374  16.203  19.452  0.00  0.00    +0.000 N 
ATOM      9  C   UNL     1       3.097  15.332  18.401  0.00  0.00    +0.000 C 
ATOM     10  O   UNL     1       3.202  15.484  17.209  0.00  0.00    +0.000 OA
ATOM     11  CA  UNL     1       2.631  14.253  19.450  0.00  0.00    +0.000 C 
ATOM     12  C   UNL     1       2.212  15.567  20.180  0.00  0.00    +0.000 C 
ATOM     13  S   UNL     1       2.255  15.759  21.948  0.00  0.00    +0.000 S 
ATOM     14  C   UNL     1       3.852  15.055  22.232  0.00  0.00    +0.000 C 
BRANCH   7  15
ATOM     15  C   UNL     1       5.823  16.427  19.102  0.00  0.00    +0.000 C 
ATOM     16  O   UNL     1       6.525  15.652  18.474  0.00  0.00    +0.000 OA
BRANCH  15  17
ATOM     17  OXT UNL     1       6.072  17.761  19.092  0.00  0.00    +0.000 OA
ATOM     18  HXT UNL     1       5.321  18.331  18.831  0.00  0.00    +0.000 HD
ENDBRANCH  15  17
ENDBRANCH   7  15
ENDBRANCH   1  11
BRANCH   2  19
ATOM     19  CA  UNL     1       0.252  11.264  19.404  0.00  0.00    +0.000 C 
BRANCH  19  20
ATOM     20  C   UNL     1       1.015   9.980  19.232  0.00  0.00    +0.000 A 
ATOM     21  C   UNL     1       1.791   9.572  18.165  0.00  0.00    +0.000 A 
ATOM     22  C   UNL     1       2.360   8.269  18.337  0.00  0.00    +0.000 A 
ATOM     23  C   UNL     1       3.179   7.505  17.471  0.00  0.00    +0.000 A 
ATOM     24  C   UNL     1       3.622   6.240  17.863  0.00  0.00    +0.000 A 
ATOM     25 CL   UNL     1       4.618   5.326  16.797  0.00  0.00    +0.000 Cl
ATOM     26  C   UNL     1       3.269   5.715  19.097  0.00  0.00    +0.000 A 
ATOM     27  C   UNL     1       2.458   6.447  19.969  0.00  0.00    +0.000 A 
ATOM     28  C   UNL     1       2.010   7.724  19.575  0.00  0.00    +0.000 A 
ATOM     29  S   UNL     1       1.009   8.802  20.472  0.00  0.00    +0.000 S 
ENDBRANCH  19  20
BRANCH  19  30
ATOM     30  N   UNL     1      -0.312  11.725  18.123  0.00  0.00    +0.000 NA
ATOM     31  H1  UNL     1      -0.331  10.923  17.488  0.00  0.00    +0.000 HD
ATOM     32  H2  UNL     1       0.362  12.357  17.687  0.00  0.00    +0.000 HD
ENDBRANCH  19  30
ENDBRANCH   2  19
TORSDOF 6
ENDMDL
MODEL 5
REMARK VINA RESULT:      -6.7      5.558      9.841
REMARK  Name = 
REMARK  7 active torsions:
REMARK  status: ('A' for Active; 'I' for Inactive)
REMARK    1  A    between atoms: C_1  and  C_2
REMARK    2  A    between atoms: CA_3  and  C_4
REMARK    3  A    between atoms: C_4  and  OXT_6
REMARK    4  A    between atoms: CA_10  and  N_11
REMARK    5  A    between atoms: C_12  and  CA_14
REMARK    6  A    between atoms: CA_14  and  N_15
REMARK    7  A    between atoms: CA_14  and  C_16
REMARK                            x       y       z     vdW  Elec       q    Type
REMARK                         _______ _______ _______ _____ _____    ______ ____
ROOT
ATOM      1  N   UNL     1       0.090  13.458  20.592  0.00  0.00    +0.000 N 
ATOM      2  C   UNL     1      -0.275  12.637  19.544  0.00  0.00    +0.000 C 
ATOM      3  O   UNL     1      -1.435  12.249  19.398  0.00  0.00    +0.000 OA
ATOM      4  H   UNL     1       1.070  13.463  20.862  0.00  0.00    +0.000 HD
ENDROOT
BRANCH   1  11
ATOM      5  C   UNL     1      -4.850  14.922  22.192  0.00  0.00    +0.000 C 
ATOM      6  C   UNL     1      -3.458  15.029  22.755  0.00  0.00    +0.000 C 
ATOM      7  CA  UNL     1      -2.859  14.076  23.541  0.00  0.00    +0.000 C 
ATOM      8  N   UNL     1      -1.459  13.903  23.619  0.00  0.00    +0.000 N 
ATOM      9  C   UNL     1      -0.992  12.821  22.876  0.00  0.00    +0.000 C 
ATOM     10  O   UNL     1      -0.760  11.685  23.206  0.00  0.00    +0.000 OA
ATOM     11  CA  UNL     1      -0.927  13.753  21.607  0.00  0.00    +0.000 C 
ATOM     12  C   UNL     1      -0.599  14.779  22.737  0.00  0.00    +0.000 C 
ATOM     13  S   UNL     1      -1.096  16.485  22.683  0.00  0.00    +0.000 S 
ATOM     14  C   UNL     1      -2.769  16.236  22.167  0.00  0.00    +0.000 C 
BRANCH   7  15
ATOM     15  C   UNL     1      -3.693  12.995  24.216  0.00  0.00    +0.000 C 
ATOM     16  O   UNL     1      -4.087  11.973  23.679  0.00  0.00    +0.000 OA
BRANCH  15  17
ATOM     17  OXT UNL     1      -4.034  13.287  25.497  0.00  0.00    +0.000 OA
ATOM     18  HXT UNL     1      -3.399  12.997  26.182  0.00  0.00    +0.000 HD
ENDBRANCH  15  17
ENDBRANCH   7  15
ENDBRANCH   1  11
BRANCH   2  19
ATOM     19  CA  UNL     1       0.872  12.235  18.598  0.00  0.00    +0.000 C 
BRANCH  19  20
ATOM     20  C   UNL     1       1.208  10.794  18.861  0.00  0.00    +0.000 A 
ATOM     21  C   UNL     1       1.798   9.876  18.015  0.00  0.00    +0.000 A 
ATOM     22  C   UNL     1       1.954   8.577  18.600  0.00  0.00    +0.000 A 
ATOM     23  C   UNL     1       2.482   7.383  18.053  0.00  0.00    +0.000 A 
ATOM     24  C   UNL     1       2.534   6.222  18.827  0.00  0.00    +0.000 A 
ATOM     25 CL   UNL     1       3.182   4.780  18.145  0.00  0.00    +0.000 Cl
ATOM     26  C   UNL     1       2.072   6.220  20.135  0.00  0.00    +0.000 A 
ATOM     27  C   UNL     1       1.542   7.384  20.698  0.00  0.00    +0.000 A 
ATOM     28  C   UNL     1       1.488   8.556  19.917  0.00  0.00    +0.000 A 
ATOM     29  S   UNL     1       0.881  10.098  20.389  0.00  0.00    +0.000 S 
ENDBRANCH  19  20
BRANCH  19  30
ATOM     30  N   UNL     1       2.035  13.108  18.841  0.00  0.00    +0.000 NA
ATOM     31  H1  UNL     1       2.606  13.105  17.992  0.00  0.00    +0.000 HD
ATOM     32  H2  UNL     1       2.635  12.653  19.532  0.00  0.00    +0.000 HD
ENDBRANCH  19  30
ENDBRANCH   2  19
TORSDOF 6
ENDMDL
MODEL 6
REMARK VINA RESULT:      -6.6      5.884     10.345
REMARK  Name = 
REMARK  7 active torsions:
REMARK  status: ('A' for Active; 'I' for Inactive)
REMARK    1  A    between atoms: C_1  and  C_2
REMARK    2  A    between atoms: CA_3  and  C_4
REMARK    3  A    between atoms: C_4  and  OXT_6
REMARK    4  A    between atoms: CA_10  and  N_11
REMARK    5  A    between atoms: C_12  and  CA_14
REMARK    6  A    between atoms: CA_14  and  N_15
REMARK    7  A    between atoms: CA_14  and  C_16
REMARK                            x       y       z     vdW  Elec       q    Type
REMARK                         _______ _______ _______ _____ _____    ______ ____
ROOT
ATOM      1  N   UNL     1      -2.538  13.786  20.274  0.00  0.00    +0.000 N 
ATOM      2  C   UNL     1      -1.872  12.745  19.659  0.00  0.00    +0.000 C 
ATOM      3  O   UNL     1      -2.472  11.767  19.211  0.00  0.00    +0.000 OA
ATOM      4  H   UNL     1      -2.003  14.372  20.910  0.00  0.00    +0.000 HD
ENDROOT
BRANCH   1  11
ATOM      5  C   UNL     1      -7.560  12.584  18.710  0.00  0.00    +0.000 C 
ATOM      6  C   UNL     1      -6.938  13.501  19.730  0.00  0.00    +0.000 C 
ATOM      7  CA  UNL     1      -6.638  13.141  21.020  0.00  0.00    +0.000 C 
ATOM      8  N   UNL     1      -5.619  13.759  21.780  0.00  0.00    +0.000 N 
ATOM      9  C   UNL     1      -4.451  13.003  21.860  0.00  0.00    +0.000 C 
ATOM     10  O   UNL     1      -4.075  12.230  22.706  0.00  0.00    +0.000 OA
ATOM     11  CA  UNL     1      -3.980  13.632  20.495  0.00  0.00    +0.000 C 
ATOM     12  C   UNL     1      -4.790  14.822  21.099  0.00  0.00    +0.000 C 
ATOM     13  S   UNL     1      -5.725  15.968  20.111  0.00  0.00    +0.000 S 
ATOM     14  C   UNL     1      -6.526  14.790  19.063  0.00  0.00    +0.000 C 
BRANCH   7  15
ATOM     15  C   UNL     1      -7.251  11.891  21.638  0.00  0.00    +0.000 C 
ATOM     16  O   UNL     1      -7.916  11.865  22.659  0.00  0.00    +0.000 OA
BRANCH  15  17
ATOM     17  OXT UNL     1      -6.941  10.747  20.977  0.00  0.00    +0.000 OA
ATOM     18  HXT UNL     1      -7.552   9.996  21.118  0.00  0.00    +0.000 HD
ENDBRANCH  15  17
ENDBRANCH   7  15
ENDBRANCH   1  11
BRANCH   2  19
ATOM     19  CA  UNL     1      -0.341  12.895  19.596  0.00  0.00    +0.000 C 
BRANCH  19  20
ATOM     20  C   UNL     1       0.262  11.519  19.616  0.00  0.00    +0.000 A 
ATOM     21  C   UNL     1       0.892  10.836  18.594  0.00  0.00    +0.000 A 
ATOM     22  C   UNL     1       1.333   9.525  18.968  0.00  0.00    +0.000 A 
ATOM     23  C   UNL     1       1.984   8.525  18.207  0.00  0.00    +0.000 A 
ATOM     24  C   UNL     1       2.324   7.306  18.798  0.00  0.00    +0.000 A 
ATOM     25 CL   UNL     1       3.118   6.103  17.857  0.00  0.00    +0.000 Cl
ATOM     26  C   UNL     1       2.029   7.057  20.130  0.00  0.00    +0.000 A 
ATOM     27  C   UNL     1       1.382   8.026  20.903  0.00  0.00    +0.000 A 
ATOM     28  C   UNL     1       1.039   9.256  20.307  0.00  0.00    +0.000 A 
ATOM     29  S   UNL     1       0.243  10.591  21.052  0.00  0.00    +0.000 S 
ENDBRANCH  19  20
BRANCH  19  30
ATOM     30  N   UNL     1       0.120  13.697  20.744  0.00  0.00    +0.000 NA
ATOM     31  H1  UNL     1      -0.539  14.471  20.864  0.00  0.00    +0.000 HD
ATOM     32  H2  UNL     1       0.989  14.164  20.477  0.00  0.00    +0.000 HD
ENDBRANCH  19  30
ENDBRANCH   2  19
TORSDOF 6
ENDMDL
MODEL 7
REMARK VINA RESULT:      -6.6      3.679      8.522
REMARK  Name = 
REMARK  7 active torsions:
REMARK  status: ('A' for Active; 'I' for Inactive)
REMARK    1  A    between atoms: C_1  and  C_2
REMARK    2  A    between atoms: CA_3  and  C_4
REMARK    3  A    between atoms: C_4  and  OXT_6
REMARK    4  A    between atoms: CA_10  and  N_11
REMARK    5  A    between atoms: C_12  and  CA_14
REMARK    6  A    between atoms: CA_14  and  N_15
REMARK    7  A    between atoms: CA_14  and  C_16
REMARK                            x       y       z     vdW  Elec       q    Type
REMARK                         _______ _______ _______ _____ _____    ______ ____
ROOT
ATOM      1  N   UNL     1       1.755   7.559  20.898  0.00  0.00    +0.000 N 
ATOM      2  C   UNL     1       2.126   6.874  19.758  0.00  0.00    +0.000 C 
ATOM      3  O   UNL     1       1.955   7.347  18.633  0.00  0.00    +0.000 OA
ATOM      4  H   UNL     1       1.596   7.012  21.740  0.00  0.00    +0.000 HD
ENDROOT
BRANCH   1  11
ATOM      5  C   UNL     1      -2.312  10.571  19.027  0.00  0.00    +0.000 C 
ATOM      6  C   UNL     1      -0.865  10.806  19.373  0.00  0.00    +0.000 C 
ATOM      7  CA  UNL     1      -0.410  11.166  20.617  0.00  0.00    +0.000 C 
ATOM      8  N   UNL     1       0.892  10.873  21.080  0.00  0.00    +0.000 N 
ATOM      9  C   UNL     1       0.938   9.794  21.960  0.00  0.00    +0.000 C 
ATOM     10  O   UNL     1       0.923   9.764  23.165  0.00  0.00    +0.000 OA
ATOM     11  CA  UNL     1       1.030   8.822  20.724  0.00  0.00    +0.000 C 
ATOM     12  C   UNL     1       1.791  10.068  20.170  0.00  0.00    +0.000 C 
ATOM     13  S   UNL     1       1.745  10.562  18.462  0.00  0.00    +0.000 S 
ATOM     14  C   UNL     1       0.003  10.399  18.207  0.00  0.00    +0.000 C 
BRANCH   7  15
ATOM     15  C   UNL     1      -1.370  11.720  21.662  0.00  0.00    +0.000 C 
ATOM     16  O   UNL     1      -1.913  12.810  21.609  0.00  0.00    +0.000 OA
BRANCH  15  17
ATOM     17  OXT UNL     1      -1.540  10.905  22.733  0.00  0.00    +0.000 OA
ATOM     18  HXT UNL     1      -2.161  10.160  22.605  0.00  0.00    +0.000 HD
ENDBRANCH  15  17
ENDBRANCH   7  15
ENDBRANCH   1  11
BRANCH   2  19
ATOM     19  CA  UNL     1       2.742   5.484  20.002  0.00  0.00    +0.000 C 
BRANCH  19  20
ATOM     20  C   UNL     1       3.736   5.218  18.906  0.00  0.00    +0.000 A 
ATOM     21  C   UNL     1       3.499   4.897  17.584  0.00  0.00    +0.000 A 
ATOM     22  C   UNL     1       4.695   4.693  16.821  0.00  0.00    +0.000 A 
ATOM     23  C   UNL     1       4.866   4.332  15.464  0.00  0.00    +0.000 A 
ATOM     24  C   UNL     1       6.150   4.192  14.933  0.00  0.00    +0.000 A 
ATOM     25 CL   UNL     1       6.338   3.754  13.279  0.00  0.00    +0.000 Cl
ATOM     26  C   UNL     1       7.271   4.404  15.722  0.00  0.00    +0.000 A 
ATOM     27  C   UNL     1       7.130   4.757  17.067  0.00  0.00    +0.000 A 
ATOM     28  C   UNL     1       5.834   4.898  17.604  0.00  0.00    +0.000 A 
ATOM     29  S   UNL     1       5.414   5.321  19.220  0.00  0.00    +0.000 S 
ENDBRANCH  19  20
BRANCH  19  30
ATOM     30  N   UNL     1       1.673   4.470  20.011  0.00  0.00    +0.000 NA
ATOM     31  H1  UNL     1       1.610   4.079  19.067  0.00  0.00    +0.000 HD
ATOM     32  H2  UNL     1       0.779   4.951  20.128  0.00  0.00    +0.000 HD
ENDBRANCH  19  30
ENDBRANCH   2  19
TORSDOF 6
ENDMDL
MODEL 8
REMARK VINA RESULT:      -6.6      6.555      9.365
REMARK  Name = 
REMARK  7 active torsions:
REMARK  status: ('A' for Active; 'I' for Inactive)
REMARK    1  A    between atoms: C_1  and  C_2
REMARK    2  A    between atoms: CA_3  and  C_4
REMARK    3  A    between atoms: C_4  and  OXT_6
REMARK    4  A    between atoms: CA_10  and  N_11
REMARK    5  A    between atoms: C_12  and  CA_14
REMARK    6  A    between atoms: CA_14  and  N_15
REMARK    7  A    between atoms: CA_14  and  C_16
REMARK                            x       y       z     vdW  Elec       q    Type
REMARK                         _______ _______ _______ _____ _____    ______ ____
ROOT
ATOM      1  N   UNL     1       1.941  13.041  19.551  0.00  0.00    +0.000 N 
ATOM      2  C   UNL     1       1.275  12.607  20.680  0.00  0.00    +0.000 C 
ATOM      3  O   UNL     1       1.125  13.333  21.664  0.00  0.00    +0.000 OA
ATOM      4  H   UNL     1       2.331  12.331  18.937  0.00  0.00    +0.000 HD
ENDROOT
BRANCH   1  11
ATOM      5  C   UNL     1       3.945  17.328  22.143  0.00  0.00    +0.000 C 
ATOM      6  C   UNL     1       3.303  17.079  20.804  0.00  0.00    +0.000 C 
ATOM      7  CA  UNL     1       3.985  16.727  19.666  0.00  0.00    +0.000 C 
ATOM      8  N   UNL     1       3.400  15.997  18.607  0.00  0.00    +0.000 N 
ATOM      9  C   UNL     1       3.756  14.650  18.599  0.00  0.00    +0.000 C 
ATOM     10  O   UNL     1       4.628  14.074  17.998  0.00  0.00    +0.000 OA
ATOM     11  CA  UNL     1       2.581  14.360  19.607  0.00  0.00    +0.000 C 
ATOM     12  C   UNL     1       1.972  15.537  18.783  0.00  0.00    +0.000 C 
ATOM     13  S   UNL     1       0.884  16.759  19.482  0.00  0.00    +0.000 S 
ATOM     14  C   UNL     1       1.802  17.088  20.957  0.00  0.00    +0.000 C 
BRANCH   7  15
ATOM     15  C   UNL     1       5.494  16.919  19.577  0.00  0.00    +0.000 C 
ATOM     16  O   UNL     1       6.051  17.888  19.089  0.00  0.00    +0.000 OA
BRANCH  15  17
ATOM     17  OXT UNL     1       6.207  15.864  20.044  0.00  0.00    +0.000 OA
ATOM     18  HXT UNL     1       6.992  15.615  19.515  0.00  0.00    +0.000 HD
ENDBRANCH  15  17
ENDBRANCH   7  15
ENDBRANCH   1  11
BRANCH   2  19
ATOM     19  CA  UNL     1       0.761  11.157  20.618  0.00  0.00    +0.000 C 
BRANCH  19  20
ATOM     20  C   UNL     1      -0.383  11.111  19.645  0.00  0.00    +0.000 A 
ATOM     21  C   UNL     1      -0.453  10.470  18.423  0.00  0.00    +0.000 A 
ATOM     22  C   UNL     1      -1.705  10.656  17.751  0.00  0.00    +0.000 A 
ATOM     23  C   UNL     1      -2.146  10.189  16.489  0.00  0.00    +0.000 A 
ATOM     24  C   UNL     1      -3.429  10.501  16.037  0.00  0.00    +0.000 A 
ATOM     25 CL   UNL     1      -3.948   9.922  14.501  0.00  0.00    +0.000 Cl
ATOM     26  C   UNL     1      -4.287  11.269  16.811  0.00  0.00    +0.000 A 
ATOM     27  C   UNL     1      -3.875  11.746  18.059  0.00  0.00    +0.000 A 
ATOM     28  C   UNL     1      -2.579  11.432  18.515  0.00  0.00    +0.000 A 
ATOM     29  S   UNL     1      -1.854  11.905  20.005  0.00  0.00    +0.000 S 
ENDBRANCH  19  20
BRANCH  19  30
ATOM     30  N   UNL     1       0.334  10.731  21.964  0.00  0.00    +0.000 NA
ATOM     31  H1  UNL     1      -0.199  11.501  22.376  0.00  0.00    +0.000 HD
ATOM     32  H2  UNL     1       1.164  10.673  22.557  0.00  0.00    +0.000 HD
ENDBRANCH  19  30
ENDBRANCH   2  19
TORSDOF 6
ENDMDL
MODEL 9
REMARK VINA RESULT:      -6.6      7.921      9.684
REMARK  Name = 
REMARK  7 active torsions:
REMARK  status: ('A' for Active; 'I' for Inactive)
REMARK    1  A    between atoms: C_1  and  C_2
REMARK    2  A    between atoms: CA_3  and  C_4
REMARK    3  A    between atoms: C_4  and  OXT_6
REMARK    4  A    between atoms: CA_10  and  N_11
REMARK    5  A    between atoms: C_12  and  CA_14
REMARK    6  A    between atoms: CA_14  and  N_15
REMARK    7  A    between atoms: CA_14  and  C_16
REMARK                            x       y       z     vdW  Elec       q    Type
REMARK                         _______ _______ _______ _____ _____    ______ ____
ROOT
ATOM      1  N   UNL     1       6.611  15.065  20.057  0.00  0.00    +0.000 N 
ATOM      2  C   UNL     1       5.667  15.089  19.049  0.00  0.00    +0.000 C 
ATOM      3  O   UNL     1       5.838  14.491  17.986  0.00  0.00    +0.000 OA
ATOM      4  H   UNL     1       6.588  15.821  20.736  0.00  0.00    +0.000 HD
ENDROOT
BRANCH   1  11
ATOM      5  C   UNL     1       9.643  10.904  18.443  0.00  0.00    +0.000 C 
ATOM      6  C   UNL     1       9.815  12.061  19.392  0.00  0.00    +0.000 C 
ATOM      7  CA  UNL     1      10.300  13.295  19.037  0.00  0.00    +0.000 C 
ATOM      8  N   UNL     1       9.975  14.484  19.728  0.00  0.00    +0.000 N 
ATOM      9  C   UNL     1       9.018  15.260  19.078  0.00  0.00    +0.000 C 
ATOM     10  O   UNL     1       9.146  16.194  18.326  0.00  0.00    +0.000 OA
ATOM     11  CA  UNL     1       7.890  14.406  19.771  0.00  0.00    +0.000 C 
ATOM     12  C   UNL     1       8.994  14.377  20.874  0.00  0.00    +0.000 C 
ATOM     13  S   UNL     1       9.265  12.987  21.949  0.00  0.00    +0.000 S 
ATOM     14  C   UNL     1       9.198  11.713  20.724  0.00  0.00    +0.000 C 
BRANCH   7  15
ATOM     15  C   UNL     1      11.052  13.483  17.726  0.00  0.00    +0.000 C 
ATOM     16  O   UNL     1      12.265  13.442  17.600  0.00  0.00    +0.000 OA
BRANCH  15  17
ATOM     17  OXT UNL     1      10.249  13.773  16.671  0.00  0.00    +0.000 OA
ATOM     18  HXT UNL     1      10.421  13.264  15.854  0.00  0.00    +0.000 HD
ENDBRANCH  15  17
ENDBRANCH   7  15
ENDBRANCH   1  11
BRANCH   2  19
ATOM     19  CA  UNL     1       4.411  15.927  19.351  0.00  0.00    +0.000 C 
BRANCH  19  20
ATOM     20  C   UNL     1       3.240  14.990  19.454  0.00  0.00    +0.000 A 
ATOM     21  C   UNL     1       2.205  14.798  18.559  0.00  0.00    +0.000 A 
ATOM     22  C   UNL     1       1.246  13.827  18.994  0.00  0.00    +0.000 A 
ATOM     23  C   UNL     1       0.052  13.379  18.380  0.00  0.00    +0.000 A 
ATOM     24  C   UNL     1      -0.733  12.406  19.002  0.00  0.00    +0.000 A 
ATOM     25 CL   UNL     1      -2.180  11.873  18.238  0.00  0.00    +0.000 Cl
ATOM     26  C   UNL     1      -0.358  11.867  20.224  0.00  0.00    +0.000 A 
ATOM     27  C   UNL     1       0.813  12.295  20.855  0.00  0.00    +0.000 A 
ATOM     28  C   UNL     1       1.606  13.278  20.227  0.00  0.00    +0.000 A 
ATOM     29  S   UNL     1       3.079  13.957  20.807  0.00  0.00    +0.000 S 
ENDBRANCH  19  20
BRANCH  19  30
ATOM     30  N   UNL     1       4.211  16.914  18.274  0.00  0.00    +0.000 NA
ATOM     31  H1  UNL     1       3.284  16.750  17.873  0.00  0.00    +0.000 HD
ATOM     32  H2  UNL     1       4.845  16.681  17.507  0.00  0.00    +0.000 HD
ENDBRANCH  19  30
ENDBRANCH   2  19
TORSDOF 6
ENDMDL
