MODEL 1
REMARK VINA RESULT:      -6.2      0.000      0.000
REMARK  Name = 
REMARK  1 active torsions:
REMARK  status: ('A' for Active; 'I' for Inactive)
REMARK    1  A    between atoms: C_1  and  C_2
REMARK                            x       y       z     vdW  Elec       q    Type
REMARK                         _______ _______ _______ _____ _____    ______ ____
ROOT
ATOM      1  C   UNL     1       3.132   3.433  19.814  0.00  0.00    +0.000 C 
ATOM      2  C   UNL     1       4.100   3.808  18.752  0.00  0.00    +0.000 A 
ATOM      3  C   UNL     1       3.833   4.013  17.372  0.00  0.00    +0.000 A 
ATOM      4  C   UNL     1       5.050   4.334  16.848  0.00  0.00    +0.000 A 
ATOM      5  N   UNL     1       5.389   4.636  15.554  0.00  0.00    +0.000 N 
ATOM      6  C   UNL     1       6.744   4.941  15.263  0.00  0.00    +0.000 A 
ATOM      7  O   UNL     1       7.041   5.208  14.116  0.00  0.00    +0.000 OA
ATOM      8  N   UNL     1       7.594   4.899  16.337  0.00  0.00    +0.000 N 
ATOM      9  C   UNL     1       7.317   4.603  17.662  0.00  0.00    +0.000 A 
ATOM     10  O   UNL     1       8.136   4.589  18.567  0.00  0.00    +0.000 OA
ATOM     11  N   UNL     1       5.963   4.316  17.864  0.00  0.00    +0.000 N 
ATOM     12  N   UNL     1       5.397   3.992  19.048  0.00  0.00    +0.000 NA
ATOM     13  H   UNL     1       4.709   4.649  14.803  0.00  0.00    +0.000 HD
ATOM     14  H   UNL     1       8.560   5.115  16.134  0.00  0.00    +0.000 HD
ENDROOT
TORSDOF 0
ENDMDL
MODEL 2
REMARK VINA RESULT:      -6.2      2.468      4.042
REMARK  Name = 
REMARK  1 active torsions:
REMARK  status: ('A' for Active; 'I' for Inactive)
REMARK    1  A    between atoms: C_1  and  C_2
REMARK                            x       y       z     vdW  Elec       q    Type
REMARK                         _______ _______ _______ _____ _____    ______ ____
ROOT
ATOM      1  C   UNL     1       5.561   4.402  13.877  0.00  0.00    +0.000 C 
ATOM      2  C   UNL     1       6.109   4.757  15.211  0.00  0.00    +0.000 A 
ATOM      3  C   UNL     1       6.252   3.907  16.341  0.00  0.00    +0.000 A 
ATOM      4  C   UNL     1       6.798   4.719  17.292  0.00  0.00    +0.000 A 
ATOM      5  N   UNL     1       7.153   4.428  18.584  0.00  0.00    +0.000 N 
ATOM      6  C   UNL     1       7.709   5.462  19.381  0.00  0.00    +0.000 A 
ATOM      7  O   UNL     1       8.022   5.202  20.526  0.00  0.00    +0.000 OA
ATOM      8  N   UNL     1       7.836   6.675  18.756  0.00  0.00    +0.000 N 
ATOM      9  C   UNL     1       7.500   7.031  17.461  0.00  0.00    +0.000 A 
ATOM     10  O   UNL     1       7.648   8.142  16.975  0.00  0.00    +0.000 OA
ATOM     11  N   UNL     1       6.959   5.959  16.744  0.00  0.00    +0.000 N 
ATOM     12  N   UNL     1       6.540   6.005  15.460  0.00  0.00    +0.000 NA
ATOM     13  H   UNL     1       7.032   3.506  18.987  0.00  0.00    +0.000 HD
ATOM     14  H   UNL     1       8.233   7.414  19.321  0.00  0.00    +0.000 HD
ENDROOT
TORSDOF 0
ENDMDL
MODEL 3
REMARK VINA RESULT:      -6.1      1.748      3.975
REMARK  Name = 
REMARK  1 active torsions:
REMARK  status: ('A' for Active; 'I' for Inactive)
REMARK    1  A    between atoms: C_1  and  C_2
REMARK                            x       y       z     vdW  Elec       q    Type
REMARK                         _______ _______ _______ _____ _____    ______ ____
ROOT
ATOM      1  C   UNL     1       7.566   5.079  13.174  0.00  0.00    +0.000 C 
ATOM      2  C   UNL     1       6.904   4.766  14.466  0.00  0.00    +0.000 A 
ATOM      3  C   UNL     1       5.561   4.349  14.671  0.00  0.00    +0.000 A 
ATOM      4  C   UNL     1       5.469   4.200  16.023  0.00  0.00    +0.000 A 
ATOM      5  N   UNL     1       4.396   3.813  16.785  0.00  0.00    +0.000 N 
ATOM      6  C   UNL     1       4.559   3.733  18.192  0.00  0.00    +0.000 A 
ATOM      7  O   UNL     1       3.607   3.390  18.864  0.00  0.00    +0.000 OA
ATOM      8  N   UNL     1       5.807   4.063  18.653  0.00  0.00    +0.000 N 
ATOM      9  C   UNL     1       6.927   4.459  17.941  0.00  0.00    +0.000 A 
ATOM     10  O   UNL     1       8.011   4.735  18.430  0.00  0.00    +0.000 OA
ATOM     11  N   UNL     1       6.683   4.511  16.565  0.00  0.00    +0.000 N 
ATOM     12  N   UNL     1       7.584   4.864  15.621  0.00  0.00    +0.000 NA
ATOM     13  H   UNL     1       3.497   3.582  16.379  0.00  0.00    +0.000 HD
ATOM     14  H   UNL     1       5.927   4.007  19.656  0.00  0.00    +0.000 HD
ENDROOT
TORSDOF 0
ENDMDL
MODEL 4
REMARK VINA RESULT:      -6.1      2.170      4.115
REMARK  Name = 
REMARK  1 active torsions:
REMARK  status: ('A' for Active; 'I' for Inactive)
REMARK    1  A    between atoms: C_1  and  C_2
REMARK                            x       y       z     vdW  Elec       q    Type
REMARK                         _______ _______ _______ _____ _____    ______ ____
ROOT
ATOM      1  C   UNL     1       6.752   4.099  12.808  0.00  0.00    +0.000 C 
ATOM      2  C   UNL     1       6.655   4.399  14.259  0.00  0.00    +0.000 A 
ATOM      3  C   UNL     1       6.034   3.611  15.264  0.00  0.00    +0.000 A 
ATOM      4  C   UNL     1       6.225   4.331  16.407  0.00  0.00    +0.000 A 
ATOM      5  N   UNL     1       5.834   4.047  17.690  0.00  0.00    +0.000 N 
ATOM      6  C   UNL     1       6.161   4.970  18.717  0.00  0.00    +0.000 A 
ATOM      7  O   UNL     1       5.813   4.716  19.853  0.00  0.00    +0.000 OA
ATOM      8  N   UNL     1       6.851   6.080  18.304  0.00  0.00    +0.000 N 
ATOM      9  C   UNL     1       7.275   6.424  17.031  0.00  0.00    +0.000 A 
ATOM     10  O   UNL     1       7.892   7.438  16.744  0.00  0.00    +0.000 OA
ATOM     11  N   UNL     1       6.914   5.464  16.080  0.00  0.00    +0.000 N 
ATOM     12  N   UNL     1       7.189   5.526  14.758  0.00  0.00    +0.000 NA
ATOM     13  H   UNL     1       5.324   3.205  17.929  0.00  0.00    +0.000 HD
ATOM     14  H   UNL     1       7.086   6.740  19.033  0.00  0.00    +0.000 HD
ENDROOT
TORSDOF 0
ENDMDL
MODEL 5
REMARK VINA RESULT:      -6.0      3.044      4.144
REMARK  Name = 
REMARK  1 active torsions:
REMARK  status: ('A' for Active; 'I' for Inactive)
REMARK    1  A    between atoms: C_1  and  C_2
REMARK                            x       y       z     vdW  Elec       q    Type
REMARK                         _______ _______ _______ _____ _____    ______ ____
ROOT
ATOM      1  C   UNL     1       7.717   6.285  18.605  0.00  0.00    +0.000 C 
ATOM      2  C   UNL     1       6.420   5.564  18.544  0.00  0.00    +0.000 A 
ATOM      3  C   UNL     1       5.262   5.930  17.808  0.00  0.00    +0.000 A 
ATOM      4  C   UNL     1       4.367   4.942  18.098  0.00  0.00    +0.000 A 
ATOM      5  N   UNL     1       3.077   4.781  17.660  0.00  0.00    +0.000 N 
ATOM      6  C   UNL     1       2.344   3.653  18.113  0.00  0.00    +0.000 A 
ATOM      7  O   UNL     1       1.202   3.513  17.725  0.00  0.00    +0.000 OA
ATOM      8  N   UNL     1       3.024   2.822  18.965  0.00  0.00    +0.000 N 
ATOM      9  C   UNL     1       4.320   2.926  19.441  0.00  0.00    +0.000 A 
ATOM     10  O   UNL     1       4.858   2.136  20.202  0.00  0.00    +0.000 OA
ATOM     11  N   UNL     1       4.972   4.062  18.949  0.00  0.00    +0.000 N 
ATOM     12  N   UNL     1       6.240   4.428  19.238  0.00  0.00    +0.000 NA
ATOM     13  H   UNL     1       2.631   5.436  17.028  0.00  0.00    +0.000 HD
ATOM     14  H   UNL     1       2.506   2.017  19.289  0.00  0.00    +0.000 HD
ENDROOT
TORSDOF 0
ENDMDL
MODEL 6
REMARK VINA RESULT:      -6.0      2.172      2.426
REMARK  Name = 
REMARK  1 active torsions:
REMARK  status: ('A' for Active; 'I' for Inactive)
REMARK    1  A    between atoms: C_1  and  C_2
REMARK                            x       y       z     vdW  Elec       q    Type
REMARK                         _______ _______ _______ _____ _____    ______ ____
ROOT
ATOM      1  C   UNL     1       3.675   2.915  17.926  0.00  0.00    +0.000 C 
ATOM      2  C   UNL     1       4.670   4.018  17.924  0.00  0.00    +0.000 A 
ATOM      3  C   UNL     1       4.793   5.068  16.976  0.00  0.00    +0.000 A 
ATOM      4  C   UNL     1       5.851   5.798  17.434  0.00  0.00    +0.000 A 
ATOM      5  N   UNL     1       6.418   6.931  16.910  0.00  0.00    +0.000 N 
ATOM      6  C   UNL     1       7.526   7.507  17.584  0.00  0.00    +0.000 A 
ATOM      7  O   UNL     1       8.026   8.511  17.118  0.00  0.00    +0.000 OA
ATOM      8  N   UNL     1       7.923   6.849  18.719  0.00  0.00    +0.000 N 
ATOM      9  C   UNL     1       7.395   5.707  19.298  0.00  0.00    +0.000 A 
ATOM     10  O   UNL     1       7.808   5.180  20.320  0.00  0.00    +0.000 OA
ATOM     11  N   UNL     1       6.309   5.203  18.574  0.00  0.00    +0.000 N 
ATOM     12  N   UNL     1       5.594   4.102  18.895  0.00  0.00    +0.000 NA
ATOM     13  H   UNL     1       6.074   7.369  16.063  0.00  0.00    +0.000 HD
ATOM     14  H   UNL     1       8.712   7.256  19.202  0.00  0.00    +0.000 HD
ENDROOT
TORSDOF 0
ENDMDL
MODEL 7
REMARK VINA RESULT:      -5.8      1.282      1.293
REMARK  Name = 
REMARK  1 active torsions:
REMARK  status: ('A' for Active; 'I' for Inactive)
REMARK    1  A    between atoms: C_1  and  C_2
REMARK                            x       y       z     vdW  Elec       q    Type
REMARK                         _______ _______ _______ _____ _____    ______ ____
ROOT
ATOM      1  C   UNL     1       1.855   4.445  19.564  0.00  0.00    +0.000 C 
ATOM      2  C   UNL     1       3.156   4.556  18.858  0.00  0.00    +0.000 A 
ATOM      3  C   UNL     1       3.405   4.379  17.471  0.00  0.00    +0.000 A 
ATOM      4  C   UNL     1       4.747   4.590  17.351  0.00  0.00    +0.000 A 
ATOM      5  N   UNL     1       5.538   4.549  16.231  0.00  0.00    +0.000 N 
ATOM      6  C   UNL     1       6.925   4.811  16.372  0.00  0.00    +0.000 A 
ATOM      7  O   UNL     1       7.623   4.773  15.379  0.00  0.00    +0.000 OA
ATOM      8  N   UNL     1       7.339   5.084  17.650  0.00  0.00    +0.000 N 
ATOM      9  C   UNL     1       6.595   5.142  18.817  0.00  0.00    +0.000 A 
ATOM     10  O   UNL     1       7.041   5.396  19.925  0.00  0.00    +0.000 OA
ATOM     11  N   UNL     1       5.241   4.873  18.592  0.00  0.00    +0.000 N 
ATOM     12  N   UNL     1       4.276   4.857  19.538  0.00  0.00    +0.000 NA
ATOM     13  H   UNL     1       5.167   4.339  15.311  0.00  0.00    +0.000 HD
ATOM     14  H   UNL     1       8.327   5.271  17.755  0.00  0.00    +0.000 HD
ENDROOT
TORSDOF 0
ENDMDL
MODEL 8
REMARK VINA RESULT:      -5.8      2.080      4.070
REMARK  Name = 
REMARK  1 active torsions:
REMARK  status: ('A' for Active; 'I' for Inactive)
REMARK    1  A    between atoms: C_1  and  C_2
REMARK                            x       y       z     vdW  Elec       q    Type
REMARK                         _______ _______ _______ _____ _____    ______ ____
ROOT
ATOM      1  C   UNL     1       5.897   3.866  13.490  0.00  0.00    +0.000 C 
ATOM      2  C   UNL     1       6.082   4.148  14.936  0.00  0.00    +0.000 A 
ATOM      3  C   UNL     1       7.224   4.710  15.567  0.00  0.00    +0.000 A 
ATOM      4  C   UNL     1       6.878   4.754  16.886  0.00  0.00    +0.000 A 
ATOM      5  N   UNL     1       7.601   5.206  17.961  0.00  0.00    +0.000 N 
ATOM      6  C   UNL     1       7.009   5.144  19.249  0.00  0.00    +0.000 A 
ATOM      7  O   UNL     1       7.650   5.545  20.198  0.00  0.00    +0.000 OA
ATOM      8  N   UNL     1       5.741   4.624  19.282  0.00  0.00    +0.000 N 
ATOM      9  C   UNL     1       4.960   4.153  18.239  0.00  0.00    +0.000 A 
ATOM     10  O   UNL     1       3.830   3.704  18.352  0.00  0.00    +0.000 OA
ATOM     11  N   UNL     1       5.615   4.249  17.007  0.00  0.00    +0.000 N 
ATOM     12  N   UNL     1       5.105   3.868  15.815  0.00  0.00    +0.000 NA
ATOM     13  H   UNL     1       8.538   5.580  17.867  0.00  0.00    +0.000 HD
ATOM     14  H   UNL     1       5.315   4.579  20.198  0.00  0.00    +0.000 HD
ENDROOT
TORSDOF 0
ENDMDL
MODEL 9
REMARK VINA RESULT:      -5.8      2.539      3.107
REMARK  Name = 
REMARK  1 active torsions:
REMARK  status: ('A' for Active; 'I' for Inactive)
REMARK    1  A    between atoms: C_1  and  C_2
REMARK                            x       y       z     vdW  Elec       q    Type
REMARK                         _______ _______ _______ _____ _____    ______ ____
ROOT
ATOM      1  C   UNL     1       2.173   8.073  17.938  0.00  0.00    +0.000 C 
ATOM      2  C   UNL     1       3.334   7.148  17.887  0.00  0.00    +0.000 A 
ATOM      3  C   UNL     1       4.505   7.274  17.092  0.00  0.00    +0.000 A 
ATOM      4  C   UNL     1       5.242   6.174  17.421  0.00  0.00    +0.000 A 
ATOM      5  N   UNL     1       6.471   5.779  16.957  0.00  0.00    +0.000 N 
ATOM      6  C   UNL     1       7.031   4.578  17.464  0.00  0.00    +0.000 A 
ATOM      7  O   UNL     1       8.119   4.231  17.052  0.00  0.00    +0.000 OA
ATOM      8  N   UNL     1       6.261   3.922  18.389  0.00  0.00    +0.000 N 
ATOM      9  C   UNL     1       5.020   4.266  18.897  0.00  0.00    +0.000 A 
ATOM     10  O   UNL     1       4.396   3.623  19.727  0.00  0.00    +0.000 OA
ATOM     11  N   UNL     1       4.539   5.459  18.348  0.00  0.00    +0.000 N 
ATOM     12  N   UNL     1       3.358   6.043  18.650  0.00  0.00    +0.000 NA
ATOM     13  H   UNL     1       6.989   6.313  16.270  0.00  0.00    +0.000 HD
ATOM     14  H   UNL     1       6.658   3.066  18.753  0.00  0.00    +0.000 HD
ENDROOT
TORSDOF 0
ENDMDL
