MODEL 1
REMARK VINA RESULT:      -6.3      0.000      0.000
REMARK  Name = 
REMARK  6 active torsions:
REMARK  status: ('A' for Active; 'I' for Inactive)
REMARK    1  A    between atoms: C_1  and  C_2
REMARK    2  A    between atoms: N_4  and  C_5
REMARK    3  A    between atoms: C_5  and  C_6
REMARK    4  A    between atoms: C_5  and  C_17
REMARK    5  A    between atoms: C_17  and  C_18
REMARK    6  A    between atoms: C_17  and  C_19
REMARK                            x       y       z     vdW  Elec       q    Type
REMARK                         _______ _______ _______ _____ _____    ______ ____
ROOT
ATOM      1  C   UNL     1       4.243   5.488  18.232  0.00  0.00    +0.000 C 
ATOM      2  O   UNL     1       3.979   4.312  18.504  0.00  0.00    +0.000 OA
ATOM      3  N   UNL     1       3.453   6.542  18.720  0.00  0.00    +0.000 N 
ATOM      4  C   UNL     1       2.425   6.155  19.696  0.00  0.00    +0.000 C 
ATOM      5  C   UNL     1       1.803   7.321  20.459  0.00  0.00    +0.000 C 
ATOM      6  N   UNL     1       1.568   8.439  19.585  0.00  0.00    +0.000 N 
ATOM      7  C   UNL     1       0.740   9.497  19.802  0.00  0.00    +0.000 A 
ATOM      8  N   UNL     1       0.799  10.355  18.807  0.00  0.00    +0.000 NA
ATOM      9  C   UNL     1       1.705   9.825  17.925  0.00  0.00    +0.000 A 
ATOM     10  C   UNL     1       2.197   8.626  18.389  0.00  0.00    +0.000 A 
ATOM     11  C   UNL     1       3.155   7.655  17.813  0.00  0.00    +0.000 C 
ENDROOT
BRANCH   1  12
ATOM     12  C   UNL     1       5.422   5.835  17.285  0.00  0.00    +0.000 C 
BRANCH  12  16
ATOM     13  C   UNL     1       5.981   3.711  14.157  0.00  0.00    +0.000 C 
ATOM     14  C   UNL     1       5.833   4.958  14.989  0.00  0.00    +0.000 C 
ATOM     15  O   UNL     1       5.956   6.077  14.503  0.00  0.00    +0.000 OA
ATOM     16  N   UNL     1       5.552   4.740  16.315  0.00  0.00    +0.000 N 
ATOM     17  H   UNL     1       5.476   3.794  16.671  0.00  0.00    +0.000 HD
ENDBRANCH  12  16
BRANCH  12  18
ATOM     18  C   UNL     1       6.743   6.002  18.082  0.00  0.00    +0.000 C 
ATOM     19  C   UNL     1       7.636   4.761  17.947  0.00  0.00    +0.000 C 
ATOM     20  C   UNL     1       7.541   7.227  17.615  0.00  0.00    +0.000 C 
ENDBRANCH  12  18
ENDBRANCH   1  12
TORSDOF 3
ENDMDL
MODEL 2
REMARK VINA RESULT:      -6.3      1.946      3.589
REMARK  Name = 
REMARK  6 active torsions:
REMARK  status: ('A' for Active; 'I' for Inactive)
REMARK    1  A    between atoms: C_1  and  C_2
REMARK    2  A    between atoms: N_4  and  C_5
REMARK    3  A    between atoms: C_5  and  C_6
REMARK    4  A    between atoms: C_5  and  C_17
REMARK    5  A    between atoms: C_17  and  C_18
REMARK    6  A    between atoms: C_17  and  C_19
REMARK                            x       y       z     vdW  Elec       q    Type
REMARK                         _______ _______ _______ _____ _____    ______ ____
ROOT
ATOM      1  C   UNL     1       3.245   7.023  17.901  0.00  0.00    +0.000 C 
ATOM      2  O   UNL     1       3.938   7.498  16.996  0.00  0.00    +0.000 OA
ATOM      3  N   UNL     1       2.258   7.791  18.542  0.00  0.00    +0.000 N 
ATOM      4  C   UNL     1       2.005   9.109  17.944  0.00  0.00    +0.000 C 
ATOM      5  C   UNL     1       0.729   9.792  18.427  0.00  0.00    +0.000 C 
ATOM      6  N   UNL     1       0.553   9.608  19.843  0.00  0.00    +0.000 N 
ATOM      7  C   UNL     1      -0.246  10.328  20.677  0.00  0.00    +0.000 A 
ATOM      8  N   UNL     1      -0.190   9.861  21.905  0.00  0.00    +0.000 NA
ATOM      9  C   UNL     1       0.674   8.797  21.849  0.00  0.00    +0.000 A 
ATOM     10  C   UNL     1       1.153   8.622  20.571  0.00  0.00    +0.000 A 
ATOM     11  C   UNL     1       2.118   7.657  19.995  0.00  0.00    +0.000 C 
ENDROOT
BRANCH   1  12
ATOM     12  C   UNL     1       3.487   5.576  18.407  0.00  0.00    +0.000 C 
BRANCH  12  16
ATOM     13  C   UNL     1       7.103   4.519  17.767  0.00  0.00    +0.000 C 
ATOM     14  C   UNL     1       5.928   5.087  18.517  0.00  0.00    +0.000 C 
ATOM     15  O   UNL     1       6.034   5.501  19.667  0.00  0.00    +0.000 OA
ATOM     16  N   UNL     1       4.746   5.103  17.818  0.00  0.00    +0.000 N 
ATOM     17  H   UNL     1       4.708   4.733  16.875  0.00  0.00    +0.000 HD
ENDBRANCH  12  16
BRANCH  12  18
ATOM     18  C   UNL     1       2.320   4.641  17.992  0.00  0.00    +0.000 C 
ATOM     19  C   UNL     1       2.826   3.447  17.170  0.00  0.00    +0.000 C 
ATOM     20  C   UNL     1       1.558   4.102  19.210  0.00  0.00    +0.000 C 
ENDBRANCH  12  18
ENDBRANCH   1  12
TORSDOF 3
ENDMDL
MODEL 3
REMARK VINA RESULT:      -6.3      2.936      4.688
REMARK  Name = 
REMARK  6 active torsions:
REMARK  status: ('A' for Active; 'I' for Inactive)
REMARK    1  A    between atoms: C_1  and  C_2
REMARK    2  A    between atoms: N_4  and  C_5
REMARK    3  A    between atoms: C_5  and  C_6
REMARK    4  A    between atoms: C_5  and  C_17
REMARK    5  A    between atoms: C_17  and  C_18
REMARK    6  A    between atoms: C_17  and  C_19
REMARK                            x       y       z     vdW  Elec       q    Type
REMARK                         _______ _______ _______ _____ _____    ______ ____
ROOT
ATOM      1  C   UNL     1       4.405   6.139  17.148  0.00  0.00    +0.000 C 
ATOM      2  O   UNL     1       3.889   7.225  16.867  0.00  0.00    +0.000 OA
ATOM      3  N   UNL     1       3.709   5.174  17.896  0.00  0.00    +0.000 N 
ATOM      4  C   UNL     1       2.297   5.482  18.155  0.00  0.00    +0.000 C 
ATOM      5  C   UNL     1       1.473   4.305  18.669  0.00  0.00    +0.000 C 
ATOM      6  N   UNL     1       2.221   3.536  19.628  0.00  0.00    +0.000 N 
ATOM      7  C   UNL     1       1.732   2.649  20.537  0.00  0.00    +0.000 A 
ATOM      8  N   UNL     1       2.704   2.099  21.230  0.00  0.00    +0.000 NA
ATOM      9  C   UNL     1       3.859   2.653  20.739  0.00  0.00    +0.000 A 
ATOM     10  C   UNL     1       3.581   3.556  19.738  0.00  0.00    +0.000 A 
ATOM     11  C   UNL     1       4.451   4.433  18.921  0.00  0.00    +0.000 C 
ENDROOT
BRANCH   1  12
ATOM     12  C   UNL     1       5.870   5.830  16.739  0.00  0.00    +0.000 C 
BRANCH  12  16
ATOM     13  C   UNL     1       8.285   8.578  17.844  0.00  0.00    +0.000 C 
ATOM     14  C   UNL     1       7.549   7.265  17.892  0.00  0.00    +0.000 C 
ATOM     15  O   UNL     1       7.754   6.442  18.778  0.00  0.00    +0.000 OA
ATOM     16  N   UNL     1       6.643   7.070  16.879  0.00  0.00    +0.000 N 
ATOM     17  H   UNL     1       6.523   7.776  16.162  0.00  0.00    +0.000 HD
ENDBRANCH  12  16
BRANCH  12  18
ATOM     18  C   UNL     1       5.941   5.320  15.274  0.00  0.00    +0.000 C 
ATOM     19  C   UNL     1       7.394   5.156  14.811  0.00  0.00    +0.000 C 
ATOM     20  C   UNL     1       5.221   3.976  15.102  0.00  0.00    +0.000 C 
ENDBRANCH  12  18
ENDBRANCH   1  12
TORSDOF 3
ENDMDL
MODEL 4
REMARK VINA RESULT:      -6.3      3.169      4.652
REMARK  Name = 
REMARK  6 active torsions:
REMARK  status: ('A' for Active; 'I' for Inactive)
REMARK    1  A    between atoms: C_1  and  C_2
REMARK    2  A    between atoms: N_4  and  C_5
REMARK    3  A    between atoms: C_5  and  C_6
REMARK    4  A    between atoms: C_5  and  C_17
REMARK    5  A    between atoms: C_17  and  C_18
REMARK    6  A    between atoms: C_17  and  C_19
REMARK                            x       y       z     vdW  Elec       q    Type
REMARK                         _______ _______ _______ _____ _____    ______ ____
ROOT
ATOM      1  C   UNL     1       4.672   5.434  17.270  0.00  0.00    +0.000 C 
ATOM      2  O   UNL     1       4.296   6.412  16.615  0.00  0.00    +0.000 OA
ATOM      3  N   UNL     1       3.759   4.651  17.996  0.00  0.00    +0.000 N 
ATOM      4  C   UNL     1       2.343   4.973  17.775  0.00  0.00    +0.000 C 
ATOM      5  C   UNL     1       1.363   3.926  18.297  0.00  0.00    +0.000 C 
ATOM      6  N   UNL     1       1.786   3.420  19.576  0.00  0.00    +0.000 N 
ATOM      7  C   UNL     1       1.031   2.755  20.492  0.00  0.00    +0.000 A 
ATOM      8  N   UNL     1       1.751   2.407  21.535  0.00  0.00    +0.000 NA
ATOM      9  C   UNL     1       3.018   2.862  21.269  0.00  0.00    +0.000 A 
ATOM     10  C   UNL     1       3.062   3.501  20.051  0.00  0.00    +0.000 A 
ATOM     11  C   UNL     1       4.158   4.187  19.328  0.00  0.00    +0.000 C 
ENDROOT
BRANCH   1  12
ATOM     12  C   UNL     1       6.179   5.077  17.365  0.00  0.00    +0.000 C 
BRANCH  12  16
ATOM     13  C   UNL     1       8.469   7.940  18.444  0.00  0.00    +0.000 C 
ATOM     14  C   UNL     1       7.738   6.626  18.538  0.00  0.00    +0.000 C 
ATOM     15  O   UNL     1       7.867   5.884  19.506  0.00  0.00    +0.000 OA
ATOM     16  N   UNL     1       6.929   6.334  17.468  0.00  0.00    +0.000 N 
ATOM     17  H   UNL     1       6.871   6.976  16.685  0.00  0.00    +0.000 HD
ENDBRANCH  12  16
BRANCH  12  18
ATOM     18  C   UNL     1       6.640   4.281  16.115  0.00  0.00    +0.000 C 
ATOM     19  C   UNL     1       5.502   3.421  15.549  0.00  0.00    +0.000 C 
ATOM     20  C   UNL     1       7.147   5.208  15.002  0.00  0.00    +0.000 C 
ENDBRANCH  12  18
ENDBRANCH   1  12
TORSDOF 3
ENDMDL
MODEL 5
REMARK VINA RESULT:      -6.2      2.130      4.065
REMARK  Name = 
REMARK  6 active torsions:
REMARK  status: ('A' for Active; 'I' for Inactive)
REMARK    1  A    between atoms: C_1  and  C_2
REMARK    2  A    between atoms: N_4  and  C_5
REMARK    3  A    between atoms: C_5  and  C_6
REMARK    4  A    between atoms: C_5  and  C_17
REMARK    5  A    between atoms: C_17  and  C_18
REMARK    6  A    between atoms: C_17  and  C_19
REMARK                            x       y       z     vdW  Elec       q    Type
REMARK                         _______ _______ _______ _____ _____    ______ ____
ROOT
ATOM      1  C   UNL     1       2.598   7.412  18.517  0.00  0.00    +0.000 C 
ATOM      2  O   UNL     1       3.131   7.865  17.499  0.00  0.00    +0.000 OA
ATOM      3  N   UNL     1       1.734   8.198  19.297  0.00  0.00    +0.000 N 
ATOM      4  C   UNL     1       1.386   9.505  18.723  0.00  0.00    +0.000 C 
ATOM      5  C   UNL     1       0.209  10.203  19.398  0.00  0.00    +0.000 C 
ATOM      6  N   UNL     1       0.273  10.049  20.827  0.00  0.00    +0.000 N 
ATOM      7  C   UNL     1      -0.374  10.790  21.767  0.00  0.00    +0.000 A 
ATOM      8  N   UNL     1      -0.115  10.348  22.978  0.00  0.00    +0.000 NA
ATOM      9  C   UNL     1       0.726   9.279  22.801  0.00  0.00    +0.000 A 
ATOM     10  C   UNL     1       0.984   9.076  21.465  0.00  0.00    +0.000 A 
ATOM     11  C   UNL     1       1.839   8.095  20.756  0.00  0.00    +0.000 C 
ENDROOT
BRANCH   1  12
ATOM     12  C   UNL     1       2.919   5.975  19.005  0.00  0.00    +0.000 C 
BRANCH  12  16
ATOM     13  C   UNL     1       6.168   4.580  17.553  0.00  0.00    +0.000 C 
ATOM     14  C   UNL     1       5.244   5.186  18.576  0.00  0.00    +0.000 C 
ATOM     15  O   UNL     1       5.620   5.438  19.716  0.00  0.00    +0.000 OA
ATOM     16  N   UNL     1       3.968   5.431  18.133  0.00  0.00    +0.000 N 
ATOM     17  H   UNL     1       3.704   5.190  17.184  0.00  0.00    +0.000 HD
ENDBRANCH  12  16
BRANCH  12  18
ATOM     18  C   UNL     1       1.657   5.073  18.947  0.00  0.00    +0.000 C 
ATOM     19  C   UNL     1       1.685   4.153  17.719  0.00  0.00    +0.000 C 
ATOM     20  C   UNL     1       1.518   4.203  20.203  0.00  0.00    +0.000 C 
ENDBRANCH  12  18
ENDBRANCH   1  12
TORSDOF 3
ENDMDL
MODEL 6
REMARK VINA RESULT:      -6.1      0.950      1.061
REMARK  Name = 
REMARK  6 active torsions:
REMARK  status: ('A' for Active; 'I' for Inactive)
REMARK    1  A    between atoms: C_1  and  C_2
REMARK    2  A    between atoms: N_4  and  C_5
REMARK    3  A    between atoms: C_5  and  C_6
REMARK    4  A    between atoms: C_5  and  C_17
REMARK    5  A    between atoms: C_17  and  C_18
REMARK    6  A    between atoms: C_17  and  C_19
REMARK                            x       y       z     vdW  Elec       q    Type
REMARK                         _______ _______ _______ _____ _____    ______ ____
ROOT
ATOM      1  C   UNL     1       4.250   4.780  18.085  0.00  0.00    +0.000 C 
ATOM      2  O   UNL     1       4.022   3.567  18.034  0.00  0.00    +0.000 OA
ATOM      3  N   UNL     1       3.494   5.628  18.911  0.00  0.00    +0.000 N 
ATOM      4  C   UNL     1       2.557   4.949  19.816  0.00  0.00    +0.000 C 
ATOM      5  C   UNL     1       1.991   5.832  20.924  0.00  0.00    +0.000 C 
ATOM      6  N   UNL     1       1.672   7.143  20.423  0.00  0.00    +0.000 N 
ATOM      7  C   UNL     1       0.855   8.069  20.994  0.00  0.00    +0.000 A 
ATOM      8  N   UNL     1       0.821   9.173  20.281  0.00  0.00    +0.000 NA
ATOM      9  C   UNL     1       1.654   8.942  19.216  0.00  0.00    +0.000 A 
ATOM     10  C   UNL     1       2.195   7.678  19.283  0.00  0.00    +0.000 A 
ATOM     11  C   UNL     1       3.110   6.940  18.382  0.00  0.00    +0.000 C 
ENDROOT
BRANCH   1  12
ATOM     12  C   UNL     1       5.341   5.418  17.184  0.00  0.00    +0.000 C 
BRANCH  12  16
ATOM     13  C   UNL     1       6.164   3.818  13.813  0.00  0.00    +0.000 C 
ATOM     14  C   UNL     1       5.860   4.914  14.800  0.00  0.00    +0.000 C 
ATOM     15  O   UNL     1       5.843   6.095  14.469  0.00  0.00    +0.000 OA
ATOM     16  N   UNL     1       5.608   4.488  16.080  0.00  0.00    +0.000 N 
ATOM     17  H   UNL     1       5.650   3.500  16.306  0.00  0.00    +0.000 HD
ENDBRANCH  12  16
BRANCH  12  18
ATOM     18  C   UNL     1       6.642   5.679  17.989  0.00  0.00    +0.000 C 
ATOM     19  C   UNL     1       7.667   4.557  17.772  0.00  0.00    +0.000 C 
ATOM     20  C   UNL     1       7.295   7.013  17.604  0.00  0.00    +0.000 C 
ENDBRANCH  12  18
ENDBRANCH   1  12
TORSDOF 3
ENDMDL
MODEL 7
REMARK VINA RESULT:      -6.0      0.780      1.106
REMARK  Name = 
REMARK  6 active torsions:
REMARK  status: ('A' for Active; 'I' for Inactive)
REMARK    1  A    between atoms: C_1  and  C_2
REMARK    2  A    between atoms: N_4  and  C_5
REMARK    3  A    between atoms: C_5  and  C_6
REMARK    4  A    between atoms: C_5  and  C_17
REMARK    5  A    between atoms: C_17  and  C_18
REMARK    6  A    between atoms: C_17  and  C_19
REMARK                            x       y       z     vdW  Elec       q    Type
REMARK                         _______ _______ _______ _____ _____    ______ ____
ROOT
ATOM      1  C   UNL     1       4.399   5.349  17.457  0.00  0.00    +0.000 C 
ATOM      2  O   UNL     1       4.127   4.153  17.598  0.00  0.00    +0.000 OA
ATOM      3  N   UNL     1       3.674   6.345  18.133  0.00  0.00    +0.000 N 
ATOM      4  C   UNL     1       2.712   5.853  19.128  0.00  0.00    +0.000 C 
ATOM      5  C   UNL     1       2.177   6.921  20.078  0.00  0.00    +0.000 C 
ATOM      6  N   UNL     1       1.906   8.145  19.372  0.00  0.00    +0.000 N 
ATOM      7  C   UNL     1       1.123   9.179  19.783  0.00  0.00    +0.000 A 
ATOM      8  N   UNL     1       1.130  10.156  18.903  0.00  0.00    +0.000 NA
ATOM      9  C   UNL     1       1.955   9.729  17.894  0.00  0.00    +0.000 A 
ATOM     10  C   UNL     1       2.449   8.473  18.165  0.00  0.00    +0.000 A 
ATOM     11  C   UNL     1       3.337   7.568  17.399  0.00  0.00    +0.000 C 
ENDROOT
BRANCH   1  12
ATOM     12  C   UNL     1       5.513   5.797  16.474  0.00  0.00    +0.000 C 
BRANCH  12  16
ATOM     13  C   UNL     1       6.370   3.764  13.353  0.00  0.00    +0.000 C 
ATOM     14  C   UNL     1       6.519   4.824  14.412  0.00  0.00    +0.000 C 
ATOM     15  O   UNL     1       7.476   5.591  14.427  0.00  0.00    +0.000 OA
ATOM     16  N   UNL     1       5.510   4.861  15.342  0.00  0.00    +0.000 N 
ATOM     17  H   UNL     1       4.748   4.194  15.293  0.00  0.00    +0.000 HD
ENDBRANCH  12  16
BRANCH  12  18
ATOM     18  C   UNL     1       6.901   5.790  17.168  0.00  0.00    +0.000 C 
ATOM     19  C   UNL     1       7.359   7.214  17.513  0.00  0.00    +0.000 C 
ATOM     20  C   UNL     1       6.891   4.958  18.457  0.00  0.00    +0.000 C 
ENDBRANCH  12  18
ENDBRANCH   1  12
TORSDOF 3
ENDMDL
MODEL 8
REMARK VINA RESULT:      -6.0      2.935      4.537
REMARK  Name = 
REMARK  6 active torsions:
REMARK  status: ('A' for Active; 'I' for Inactive)
REMARK    1  A    between atoms: C_1  and  C_2
REMARK    2  A    between atoms: N_4  and  C_5
REMARK    3  A    between atoms: C_5  and  C_6
REMARK    4  A    between atoms: C_5  and  C_17
REMARK    5  A    between atoms: C_17  and  C_18
REMARK    6  A    between atoms: C_17  and  C_19
REMARK                            x       y       z     vdW  Elec       q    Type
REMARK                         _______ _______ _______ _____ _____    ______ ____
ROOT
ATOM      1  C   UNL     1       4.399   6.176  17.583  0.00  0.00    +0.000 C 
ATOM      2  O   UNL     1       3.926   7.162  17.008  0.00  0.00    +0.000 OA
ATOM      3  N   UNL     1       3.567   5.206  18.167  0.00  0.00    +0.000 N 
ATOM      4  C   UNL     1       2.132   5.363  17.890  0.00  0.00    +0.000 C 
ATOM      5  C   UNL     1       1.281   4.147  18.240  0.00  0.00    +0.000 C 
ATOM      6  N   UNL     1       1.705   3.564  19.485  0.00  0.00    +0.000 N 
ATOM      7  C   UNL     1       1.003   2.711  20.280  0.00  0.00    +0.000 A 
ATOM      8  N   UNL     1       1.713   2.347  21.325  0.00  0.00    +0.000 NA
ATOM      9  C   UNL     1       2.917   2.990  21.188  0.00  0.00    +0.000 A 
ATOM     10  C   UNL     1       2.933   3.758  20.046  0.00  0.00    +0.000 A 
ATOM     11  C   UNL     1       3.960   4.656  19.467  0.00  0.00    +0.000 C 
ENDROOT
BRANCH   1  12
ATOM     12  C   UNL     1       5.934   6.010  17.736  0.00  0.00    +0.000 C 
BRANCH  12  16
ATOM     13  C   UNL     1       8.230   9.051  17.441  0.00  0.00    +0.000 C 
ATOM     14  C   UNL     1       7.709   7.743  17.975  0.00  0.00    +0.000 C 
ATOM     15  O   UNL     1       8.281   7.140  18.876  0.00  0.00    +0.000 OA
ATOM     16  N   UNL     1       6.559   7.290  17.378  0.00  0.00    +0.000 N 
ATOM     17  H   UNL     1       6.133   7.819  16.625  0.00  0.00    +0.000 HD
ENDBRANCH  12  16
BRANCH  12  18
ATOM     18  C   UNL     1       6.465   4.881  16.814  0.00  0.00    +0.000 C 
ATOM     19  C   UNL     1       6.674   5.384  15.379  0.00  0.00    +0.000 C 
ATOM     20  C   UNL     1       7.792   4.304  17.324  0.00  0.00    +0.000 C 
ENDBRANCH  12  18
ENDBRANCH   1  12
TORSDOF 3
ENDMDL
MODEL 9
REMARK VINA RESULT:      -5.9      1.870      3.098
REMARK  Name = 
REMARK  6 active torsions:
REMARK  status: ('A' for Active; 'I' for Inactive)
REMARK    1  A    between atoms: C_1  and  C_2
REMARK    2  A    between atoms: N_4  and  C_5
REMARK    3  A    between atoms: C_5  and  C_6
REMARK    4  A    between atoms: C_5  and  C_17
REMARK    5  A    between atoms: C_17  and  C_18
REMARK    6  A    between atoms: C_17  and  C_19
REMARK                            x       y       z     vdW  Elec       q    Type
REMARK                         _______ _______ _______ _____ _____    ______ ____
ROOT
ATOM      1  C   UNL     1       4.188   3.454  17.766  0.00  0.00    +0.000 C 
ATOM      2  O   UNL     1       3.755   2.320  17.540  0.00  0.00    +0.000 OA
ATOM      3  N   UNL     1       3.545   4.310  18.677  0.00  0.00    +0.000 N 
ATOM      4  C   UNL     1       2.454   3.698  19.447  0.00  0.00    +0.000 C 
ATOM      5  C   UNL     1       1.987   4.516  20.647  0.00  0.00    +0.000 C 
ATOM      6  N   UNL     1       1.930   5.917  20.323  0.00  0.00    +0.000 N 
ATOM      7  C   UNL     1       1.256   6.893  20.990  0.00  0.00    +0.000 A 
ATOM      8  N   UNL     1       1.455   8.068  20.436  0.00  0.00    +0.000 NA
ATOM      9  C   UNL     1       2.296   7.832  19.377  0.00  0.00    +0.000 A 
ATOM     10  C   UNL     1       2.603   6.494  19.286  0.00  0.00    +0.000 A 
ATOM     11  C   UNL     1       3.426   5.727  18.322  0.00  0.00    +0.000 C 
ENDROOT
BRANCH   1  12
ATOM     12  C   UNL     1       5.423   3.997  17.000  0.00  0.00    +0.000 C 
BRANCH  12  16
ATOM     13  C   UNL     1       7.964   6.119  18.910  0.00  0.00    +0.000 C 
ATOM     14  C   UNL     1       7.456   5.015  18.020  0.00  0.00    +0.000 C 
ATOM     15  O   UNL     1       8.217   4.220  17.479  0.00  0.00    +0.000 OA
ATOM     16  N   UNL     1       6.092   4.974  17.869  0.00  0.00    +0.000 N 
ATOM     17  H   UNL     1       5.508   5.666  18.326  0.00  0.00    +0.000 HD
ENDBRANCH  12  16
BRANCH  12  18
ATOM     18  C   UNL     1       4.998   4.671  15.668  0.00  0.00    +0.000 C 
ATOM     19  C   UNL     1       5.255   6.184  15.701  0.00  0.00    +0.000 C 
ATOM     20  C   UNL     1       5.743   4.078  14.465  0.00  0.00    +0.000 C 
ENDBRANCH  12  18
ENDBRANCH   1  12
TORSDOF 3
ENDMDL
