MODEL 1
REMARK VINA RESULT:      -7.8      0.000      0.000
REMARK  Name = 
REMARK  2 active torsions:
REMARK  status: ('A' for Active; 'I' for Inactive)
REMARK    1  A    between atoms: C_1  and  C_13
REMARK    2  A    between atoms: N_2  and  C_3
REMARK                            x       y       z     vdW  Elec       q    Type
REMARK                         _______ _______ _______ _____ _____    ______ ____
ROOT
ATOM      1  C   UNL     1       5.580   4.785  16.792  0.00  0.00    +0.000 A 
ATOM      2  C   UNL     1       6.748   5.530  16.669  0.00  0.00    +0.000 A 
ATOM      3  N   UNL     1       7.476   5.672  15.537  0.00  0.00    +0.000 NA
ATOM      4  C   UNL     1       7.056   5.009  14.445  0.00  0.00    +0.000 A 
ATOM      5  C   UNL     1       7.783   5.115  13.268  0.00  0.00    +0.000 A 
ATOM      6  C   UNL     1       7.404   4.436  12.105  0.00  0.00    +0.000 A 
ATOM      7  C   UNL     1       6.272   3.630  12.115  0.00  0.00    +0.000 A 
ATOM      8  C   UNL     1       5.520   3.510  13.284  0.00  0.00    +0.000 A 
ATOM      9  C   UNL     1       5.902   4.198  14.453  0.00  0.00    +0.000 A 
ATOM     10  C   UNL     1       5.168   4.100  15.649  0.00  0.00    +0.000 A 
ENDROOT
BRANCH   1  12
ATOM     11  C   UNL     1       3.853   3.799  18.008  0.00  0.00    +0.000 C 
ATOM     12  N   UNL     1       4.848   4.631  17.985  0.00  0.00    +0.000 NA
BRANCH  11  13
ATOM     13  C   UNL     1       3.021   3.612  19.210  0.00  0.00    +0.000 A 
ATOM     14  C   UNL     1       3.432   2.762  20.232  0.00  0.00    +0.000 A 
ATOM     15  C   UNL     1       2.605   2.633  21.331  0.00  0.00    +0.000 A 
ATOM     16  N   UNL     1       1.428   3.281  21.464  0.00  0.00    +0.000 NA
ATOM     17  C   UNL     1       1.059   4.100  20.456  0.00  0.00    +0.000 A 
ATOM     18  C   UNL     1       1.813   4.301  19.313  0.00  0.00    +0.000 A 
ENDBRANCH  11  13
ENDBRANCH   1  12
TORSDOF 2
ENDMDL
MODEL 2
REMARK VINA RESULT:      -7.8      0.097      1.116
REMARK  Name = 
REMARK  2 active torsions:
REMARK  status: ('A' for Active; 'I' for Inactive)
REMARK    1  A    between atoms: C_1  and  C_13
REMARK    2  A    between atoms: N_2  and  C_3
REMARK                            x       y       z     vdW  Elec       q    Type
REMARK                         _______ _______ _______ _____ _____    ______ ____
ROOT
ATOM      1  C   UNL     1       5.652   4.696  16.765  0.00  0.00    +0.000 A 
ATOM      2  C   UNL     1       6.802   5.468  16.638  0.00  0.00    +0.000 A 
ATOM      3  N   UNL     1       7.507   5.648  15.496  0.00  0.00    +0.000 NA
ATOM      4  C   UNL     1       7.082   4.999  14.398  0.00  0.00    +0.000 A 
ATOM      5  C   UNL     1       7.786   5.144  13.212  0.00  0.00    +0.000 A 
ATOM      6  C   UNL     1       7.400   4.480  12.042  0.00  0.00    +0.000 A 
ATOM      7  C   UNL     1       6.286   3.650  12.055  0.00  0.00    +0.000 A 
ATOM      8  C   UNL     1       5.558   3.490  13.233  0.00  0.00    +0.000 A 
ATOM      9  C   UNL     1       5.945   4.163  14.410  0.00  0.00    +0.000 A 
ATOM     10  C   UNL     1       5.235   4.025  15.616  0.00  0.00    +0.000 A 
ENDROOT
BRANCH   1  12
ATOM     11  C   UNL     1       3.789   3.914  17.927  0.00  0.00    +0.000 C 
ATOM     12  N   UNL     1       4.945   4.502  17.967  0.00  0.00    +0.000 NA
BRANCH  11  13
ATOM     13  C   UNL     1       2.977   3.708  19.140  0.00  0.00    +0.000 A 
ATOM     14  C   UNL     1       1.748   4.345  19.287  0.00  0.00    +0.000 A 
ATOM     15  C   UNL     1       1.037   4.109  20.448  0.00  0.00    +0.000 A 
ATOM     16  N   UNL     1       1.468   3.299  21.440  0.00  0.00    +0.000 NA
ATOM     17  C   UNL     1       2.664   2.695  21.265  0.00  0.00    +0.000 A 
ATOM     18  C   UNL     1       3.453   2.864  20.141  0.00  0.00    +0.000 A 
ENDBRANCH  11  13
ENDBRANCH   1  12
TORSDOF 2
ENDMDL
MODEL 3
REMARK VINA RESULT:      -7.3      1.568      7.344
REMARK  Name = 
REMARK  2 active torsions:
REMARK  status: ('A' for Active; 'I' for Inactive)
REMARK    1  A    between atoms: C_1  and  C_13
REMARK    2  A    between atoms: N_2  and  C_3
REMARK                            x       y       z     vdW  Elec       q    Type
REMARK                         _______ _______ _______ _____ _____    ______ ____
ROOT
ATOM      1  C   UNL     1       4.330   4.930  17.345  0.00  0.00    +0.000 A 
ATOM      2  C   UNL     1       4.612   5.646  18.504  0.00  0.00    +0.000 A 
ATOM      3  N   UNL     1       3.988   5.493  19.695  0.00  0.00    +0.000 NA
ATOM      4  C   UNL     1       2.985   4.599  19.757  0.00  0.00    +0.000 A 
ATOM      5  C   UNL     1       2.309   4.425  20.956  0.00  0.00    +0.000 A 
ATOM      6  C   UNL     1       1.248   3.521  21.076  0.00  0.00    +0.000 A 
ATOM      7  C   UNL     1       0.849   2.773  19.975  0.00  0.00    +0.000 A 
ATOM      8  C   UNL     1       1.516   2.926  18.759  0.00  0.00    +0.000 A 
ATOM      9  C   UNL     1       2.587   3.834  18.641  0.00  0.00    +0.000 A 
ATOM     10  C   UNL     1       3.282   4.014  17.432  0.00  0.00    +0.000 A 
ENDROOT
BRANCH   1  12
ATOM     11  C   UNL     1       5.451   4.084  15.484  0.00  0.00    +0.000 C 
ATOM     12  N   UNL     1       4.976   5.118  16.108  0.00  0.00    +0.000 NA
BRANCH  11  13
ATOM     13  C   UNL     1       6.169   4.209  14.203  0.00  0.00    +0.000 A 
ATOM     14  C   UNL     1       5.782   3.459  13.097  0.00  0.00    +0.000 A 
ATOM     15  C   UNL     1       6.498   3.624  11.927  0.00  0.00    +0.000 A 
ATOM     16  N   UNL     1       7.546   4.468  11.801  0.00  0.00    +0.000 NA
ATOM     17  C   UNL     1       7.895   5.182  12.893  0.00  0.00    +0.000 A 
ATOM     18  C   UNL     1       7.244   5.092  14.111  0.00  0.00    +0.000 A 
ENDBRANCH  11  13
ENDBRANCH   1  12
TORSDOF 2
ENDMDL
MODEL 4
REMARK VINA RESULT:      -7.2      1.588      7.352
REMARK  Name = 
REMARK  2 active torsions:
REMARK  status: ('A' for Active; 'I' for Inactive)
REMARK    1  A    between atoms: C_1  and  C_13
REMARK    2  A    between atoms: N_2  and  C_3
REMARK                            x       y       z     vdW  Elec       q    Type
REMARK                         _______ _______ _______ _____ _____    ______ ____
ROOT
ATOM      1  C   UNL     1       4.216   4.919  17.279  0.00  0.00    +0.000 A 
ATOM      2  C   UNL     1       4.545   5.625  18.431  0.00  0.00    +0.000 A 
ATOM      3  N   UNL     1       3.953   5.479  19.640  0.00  0.00    +0.000 NA
ATOM      4  C   UNL     1       2.938   4.601  19.729  0.00  0.00    +0.000 A 
ATOM      5  C   UNL     1       2.294   4.434  20.947  0.00  0.00    +0.000 A 
ATOM      6  C   UNL     1       1.222   3.547  21.095  0.00  0.00    +0.000 A 
ATOM      7  C   UNL     1       0.779   2.811  20.003  0.00  0.00    +0.000 A 
ATOM      8  C   UNL     1       1.411   2.958  18.769  0.00  0.00    +0.000 A 
ATOM      9  C   UNL     1       2.494   3.848  18.622  0.00  0.00    +0.000 A 
ATOM     10  C   UNL     1       3.156   4.021  17.394  0.00  0.00    +0.000 A 
ENDROOT
BRANCH   1  12
ATOM     11  C   UNL     1       5.544   4.139  15.529  0.00  0.00    +0.000 C 
ATOM     12  N   UNL     1       4.829   5.101  16.024  0.00  0.00    +0.000 NA
BRANCH  11  13
ATOM     13  C   UNL     1       6.243   4.271  14.238  0.00  0.00    +0.000 A 
ATOM     14  C   UNL     1       7.332   5.127  14.106  0.00  0.00    +0.000 A 
ATOM     15  C   UNL     1       7.941   5.203  12.868  0.00  0.00    +0.000 A 
ATOM     16  N   UNL     1       7.539   4.497  11.789  0.00  0.00    +0.000 NA
ATOM     17  C   UNL     1       6.480   3.675  11.951  0.00  0.00    +0.000 A 
ATOM     18  C   UNL     1       5.800   3.524  13.147  0.00  0.00    +0.000 A 
ENDBRANCH  11  13
ENDBRANCH   1  12
TORSDOF 2
ENDMDL
MODEL 5
REMARK VINA RESULT:      -7.1      1.534      7.460
REMARK  Name = 
REMARK  2 active torsions:
REMARK  status: ('A' for Active; 'I' for Inactive)
REMARK    1  A    between atoms: C_1  and  C_13
REMARK    2  A    between atoms: N_2  and  C_3
REMARK                            x       y       z     vdW  Elec       q    Type
REMARK                         _______ _______ _______ _____ _____    ______ ____
ROOT
ATOM      1  C   UNL     1       4.335   3.881  17.342  0.00  0.00    +0.000 A 
ATOM      2  C   UNL     1       5.154   3.655  18.443  0.00  0.00    +0.000 A 
ATOM      3  N   UNL     1       4.730   3.329  19.686  0.00  0.00    +0.000 NA
ATOM      4  C   UNL     1       3.402   3.250  19.885  0.00  0.00    +0.000 A 
ATOM      5  C   UNL     1       2.925   2.934  21.149  0.00  0.00    +0.000 A 
ATOM      6  C   UNL     1       1.555   2.853  21.419  0.00  0.00    +0.000 A 
ATOM      7  C   UNL     1       0.636   3.095  20.404  0.00  0.00    +0.000 A 
ATOM      8  C   UNL     1       1.089   3.410  19.124  0.00  0.00    +0.000 A 
ATOM      9  C   UNL     1       2.470   3.487  18.853  0.00  0.00    +0.000 A 
ATOM     10  C   UNL     1       2.963   3.802  17.574  0.00  0.00    +0.000 A 
ENDROOT
BRANCH   1  12
ATOM     11  C   UNL     1       5.896   3.718  15.619  0.00  0.00    +0.000 C 
ATOM     12  N   UNL     1       4.795   4.242  16.061  0.00  0.00    +0.000 NA
BRANCH  11  13
ATOM     13  C   UNL     1       6.456   4.074  14.302  0.00  0.00    +0.000 A 
ATOM     14  C   UNL     1       7.410   5.081  14.187  0.00  0.00    +0.000 A 
ATOM     15  C   UNL     1       7.893   5.365  12.924  0.00  0.00    +0.000 A 
ATOM     16  N   UNL     1       7.493   4.722  11.805  0.00  0.00    +0.000 NA
ATOM     17  C   UNL     1       6.568   3.749  11.953  0.00  0.00    +0.000 A 
ATOM     18  C   UNL     1       6.020   3.387  13.171  0.00  0.00    +0.000 A 
ENDBRANCH  11  13
ENDBRANCH   1  12
TORSDOF 2
ENDMDL
MODEL 6
REMARK VINA RESULT:      -7.0      1.495      7.368
REMARK  Name = 
REMARK  2 active torsions:
REMARK  status: ('A' for Active; 'I' for Inactive)
REMARK    1  A    between atoms: C_1  and  C_13
REMARK    2  A    between atoms: N_2  and  C_3
REMARK                            x       y       z     vdW  Elec       q    Type
REMARK                         _______ _______ _______ _____ _____    ______ ____
ROOT
ATOM      1  C   UNL     1       4.275   5.220  17.447  0.00  0.00    +0.000 A 
ATOM      2  C   UNL     1       3.441   6.207  17.965  0.00  0.00    +0.000 A 
ATOM      3  N   UNL     1       2.718   6.107  19.104  0.00  0.00    +0.000 NA
ATOM      4  C   UNL     1       2.780   4.945  19.777  0.00  0.00    +0.000 A 
ATOM      5  C   UNL     1       2.041   4.796  20.941  0.00  0.00    +0.000 A 
ATOM      6  C   UNL     1       2.054   3.605  21.674  0.00  0.00    +0.000 A 
ATOM      7  C   UNL     1       2.823   2.533  21.236  0.00  0.00    +0.000 A 
ATOM      8  C   UNL     1       3.579   2.658  20.070  0.00  0.00    +0.000 A 
ATOM      9  C   UNL     1       3.567   3.860  19.336  0.00  0.00    +0.000 A 
ATOM     10  C   UNL     1       4.317   4.021  18.157  0.00  0.00    +0.000 A 
ENDROOT
BRANCH   1  12
ATOM     11  C   UNL     1       5.233   4.265  15.549  0.00  0.00    +0.000 C 
ATOM     12  N   UNL     1       5.003   5.334  16.247  0.00  0.00    +0.000 NA
BRANCH  11  13
ATOM     13  C   UNL     1       6.017   4.302  14.301  0.00  0.00    +0.000 A 
ATOM     14  C   UNL     1       7.146   5.110  14.197  0.00  0.00    +0.000 A 
ATOM     15  C   UNL     1       7.835   5.097  13.000  0.00  0.00    +0.000 A 
ATOM     16  N   UNL     1       7.475   4.348  11.935  0.00  0.00    +0.000 NA
ATOM     17  C   UNL     1       6.377   3.574  12.070  0.00  0.00    +0.000 A 
ATOM     18  C   UNL     1       5.616   3.513  13.224  0.00  0.00    +0.000 A 
ENDBRANCH  11  13
ENDBRANCH   1  12
TORSDOF 2
ENDMDL
MODEL 7
REMARK VINA RESULT:      -7.0      1.492      7.376
REMARK  Name = 
REMARK  2 active torsions:
REMARK  status: ('A' for Active; 'I' for Inactive)
REMARK    1  A    between atoms: C_1  and  C_13
REMARK    2  A    between atoms: N_2  and  C_3
REMARK                            x       y       z     vdW  Elec       q    Type
REMARK                         _______ _______ _______ _____ _____    ______ ____
ROOT
ATOM      1  C   UNL     1       4.328   5.215  17.455  0.00  0.00    +0.000 A 
ATOM      2  C   UNL     1       3.520   6.219  17.978  0.00  0.00    +0.000 A 
ATOM      3  N   UNL     1       2.788   6.131  19.114  0.00  0.00    +0.000 NA
ATOM      4  C   UNL     1       2.816   4.961  19.777  0.00  0.00    +0.000 A 
ATOM      5  C   UNL     1       2.067   4.823  20.936  0.00  0.00    +0.000 A 
ATOM      6  C   UNL     1       2.044   3.626  21.659  0.00  0.00    +0.000 A 
ATOM      7  C   UNL     1       2.784   2.537  21.214  0.00  0.00    +0.000 A 
ATOM      8  C   UNL     1       3.549   2.650  20.054  0.00  0.00    +0.000 A 
ATOM      9  C   UNL     1       3.574   3.858  19.329  0.00  0.00    +0.000 A 
ATOM     10  C   UNL     1       4.334   4.009  18.155  0.00  0.00    +0.000 A 
ENDROOT
BRANCH   1  12
ATOM     11  C   UNL     1       5.205   4.265  15.517  0.00  0.00    +0.000 C 
ATOM     12  N   UNL     1       5.064   5.318  16.260  0.00  0.00    +0.000 NA
BRANCH  11  13
ATOM     13  C   UNL     1       5.992   4.290  14.270  0.00  0.00    +0.000 A 
ATOM     14  C   UNL     1       5.628   3.496  13.186  0.00  0.00    +0.000 A 
ATOM     15  C   UNL     1       6.408   3.568  12.048  0.00  0.00    +0.000 A 
ATOM     16  N   UNL     1       7.496   4.360  11.933  0.00  0.00    +0.000 NA
ATOM     17  C   UNL     1       7.821   5.119  13.002  0.00  0.00    +0.000 A 
ATOM     18  C   UNL     1       7.107   5.122  14.188  0.00  0.00    +0.000 A 
ENDBRANCH  11  13
ENDBRANCH   1  12
TORSDOF 2
ENDMDL
MODEL 8
REMARK VINA RESULT:      -6.9      4.438      5.834
REMARK  Name = 
REMARK  2 active torsions:
REMARK  status: ('A' for Active; 'I' for Inactive)
REMARK    1  A    between atoms: C_1  and  C_13
REMARK    2  A    between atoms: N_2  and  C_3
REMARK                            x       y       z     vdW  Elec       q    Type
REMARK                         _______ _______ _______ _____ _____    ______ ____
ROOT
ATOM      1  C   UNL     1       2.534   7.152  18.865  0.00  0.00    +0.000 A 
ATOM      2  C   UNL     1       2.324   5.824  19.220  0.00  0.00    +0.000 A 
ATOM      3  N   UNL     1       2.936   4.754  18.661  0.00  0.00    +0.000 NA
ATOM      4  C   UNL     1       3.794   4.989  17.653  0.00  0.00    +0.000 A 
ATOM      5  C   UNL     1       4.430   3.918  17.042  0.00  0.00    +0.000 A 
ATOM      6  C   UNL     1       5.320   4.100  15.979  0.00  0.00    +0.000 A 
ATOM      7  C   UNL     1       5.583   5.382  15.510  0.00  0.00    +0.000 A 
ATOM      8  C   UNL     1       4.960   6.477  16.110  0.00  0.00    +0.000 A 
ATOM      9  C   UNL     1       4.067   6.291  17.183  0.00  0.00    +0.000 A 
ATOM     10  C   UNL     1       3.422   7.371  17.812  0.00  0.00    +0.000 A 
ENDROOT
BRANCH   1  12
ATOM     11  C   UNL     1       1.512   8.184  20.688  0.00  0.00    +0.000 C 
ATOM     12  N   UNL     1       1.871   8.252  19.443  0.00  0.00    +0.000 NA
BRANCH  11  13
ATOM     13  C   UNL     1       0.783   9.281  21.350  0.00  0.00    +0.000 A 
ATOM     14  C   UNL     1       0.786  10.563  20.808  0.00  0.00    +0.000 A 
ATOM     15  C   UNL     1       0.084  11.545  21.479  0.00  0.00    +0.000 A 
ATOM     16  N   UNL     1      -0.601  11.329  22.624  0.00  0.00    +0.000 NA
ATOM     17  C   UNL     1      -0.585  10.074  23.122  0.00  0.00    +0.000 A 
ATOM     18  C   UNL     1       0.086   9.019  22.529  0.00  0.00    +0.000 A 
ENDBRANCH  11  13
ENDBRANCH   1  12
TORSDOF 2
ENDMDL
MODEL 9
REMARK VINA RESULT:      -6.8      4.507      5.890
REMARK  Name = 
REMARK  2 active torsions:
REMARK  status: ('A' for Active; 'I' for Inactive)
REMARK    1  A    between atoms: C_1  and  C_13
REMARK    2  A    between atoms: N_2  and  C_3
REMARK                            x       y       z     vdW  Elec       q    Type
REMARK                         _______ _______ _______ _____ _____    ______ ____
ROOT
ATOM      1  C   UNL     1       2.531   7.242  19.031  0.00  0.00    +0.000 A 
ATOM      2  C   UNL     1       2.470   5.933  19.498  0.00  0.00    +0.000 A 
ATOM      3  N   UNL     1       3.161   4.884  18.994  0.00  0.00    +0.000 NA
ATOM      4  C   UNL     1       3.949   5.117  17.929  0.00  0.00    +0.000 A 
ATOM      5  C   UNL     1       4.662   4.065  17.372  0.00  0.00    +0.000 A 
ATOM      6  C   UNL     1       5.484   4.244  16.255  0.00  0.00    +0.000 A 
ATOM      7  C   UNL     1       5.598   5.503  15.676  0.00  0.00    +0.000 A 
ATOM      8  C   UNL     1       4.895   6.578  16.219  0.00  0.00    +0.000 A 
ATOM      9  C   UNL     1       4.071   6.396  17.347  0.00  0.00    +0.000 A 
ATOM     10  C   UNL     1       3.348   7.458  17.921  0.00  0.00    +0.000 A 
ENDROOT
BRANCH   1  12
ATOM     11  C   UNL     1       1.365   8.249  20.779  0.00  0.00    +0.000 C 
ATOM     12  N   UNL     1       1.787   8.316  19.554  0.00  0.00    +0.000 NA
BRANCH  11  13
ATOM     13  C   UNL     1       0.552   9.320  21.383  0.00  0.00    +0.000 A 
ATOM     14  C   UNL     1       0.033   9.178  22.667  0.00  0.00    +0.000 A 
ATOM     15  C   UNL     1      -0.721  10.219  23.173  0.00  0.00    +0.000 A 
ATOM     16  N   UNL     1      -0.979  11.358  22.494  0.00  0.00    +0.000 NA
ATOM     17  C   UNL     1      -0.459  11.465  21.252  0.00  0.00    +0.000 A 
ATOM     18  C   UNL     1       0.309  10.482  20.652  0.00  0.00    +0.000 A 
ENDBRANCH  11  13
ENDBRANCH   1  12
TORSDOF 2
ENDMDL
