MODEL 1
REMARK VINA RESULT:      -7.0      0.000      0.000
REMARK  Name = 
REMARK  10 active torsions:
REMARK  status: ('A' for Active; 'I' for Inactive)
REMARK    1  A    between atoms: C_1  and  C_2
REMARK    2  A    between atoms: C_2  and  C_3
REMARK    3  A    between atoms: C_3  and  N_4
REMARK    4  A    between atoms: N_4  and  C_5
REMARK    5  A    between atoms: C_5  and  C_6
REMARK    6  A    between atoms: C_6  and  C_7
REMARK    7  A    between atoms: C_8  and  C_10
REMARK    8  A    between atoms: C_10  and  C_12
REMARK    9  A    between atoms: C_13  and  C_14
REMARK   10  A    between atoms: C_22  and  C_23
REMARK                            x       y       z     vdW  Elec       q    Type
REMARK                         _______ _______ _______ _____ _____    ______ ____
ROOT
ATOM      1  C   UNL     1       3.010   5.535  17.724  0.00  0.00    +0.000 A 
ATOM      2  C   UNL     1       3.163   6.850  18.171  0.00  0.00    +0.000 A 
ATOM      3  N   UNL     1       4.479   7.189  17.946  0.00  0.00    +0.000 N 
ATOM      4  C   UNL     1       5.174   6.172  17.337  0.00  0.00    +0.000 A 
ATOM      5  C   UNL     1       6.517   6.114  16.910  0.00  0.00    +0.000 A 
ATOM      6  C   UNL     1       7.512   7.227  17.075  0.00  0.00    +0.000 C 
ATOM      7  C   UNL     1       6.929   4.917  16.296  0.00  0.00    +0.000 A 
ATOM      8  C   UNL     1       6.058   3.848  16.125  0.00  0.00    +0.000 A 
ATOM      9  C   UNL     1       4.736   3.935  16.569  0.00  0.00    +0.000 A 
ATOM     10  C   UNL     1       4.276   5.114  17.191  0.00  0.00    +0.000 A 
ATOM     11  H   UNL     1       4.885   8.080  18.202  0.00  0.00    +0.000 HD
ENDROOT
BRANCH   2  12
ATOM     12  C   UNL     1       2.212   7.790  18.787  0.00  0.00    +0.000 A 
ATOM     13  C   UNL     1       1.605   8.797  18.025  0.00  0.00    +0.000 A 
ATOM     14  C   UNL     1       0.802   9.770  18.622  0.00  0.00    +0.000 A 
ATOM     15  C   UNL     1       0.546   9.715  19.988  0.00  0.00    +0.000 A 
ATOM     16  C   UNL     1       1.088   8.683  20.752  0.00  0.00    +0.000 A 
ATOM     17  C   UNL     1       1.921   7.729  20.156  0.00  0.00    +0.000 A 
ENDBRANCH   2  12
BRANCH   1  18
ATOM     18  C   UNL     1       1.761   4.762  17.764  0.00  0.00    +0.000 C 
ATOM     19  O   UNL     1       1.015   4.650  16.803  0.00  0.00    +0.000 OA
BRANCH  18  21
ATOM     20  N   UNL     1       1.657   2.758  19.315  0.00  0.00    +0.000 N 
ATOM     21  C   UNL     1       1.318   4.105  19.072  0.00  0.00    +0.000 C 
ATOM     22  O   UNL     1       0.668   4.800  19.850  0.00  0.00    +0.000 OA
BRANCH  20  23
ATOM     23  C   UNL     1       1.121   2.157  20.543  0.00  0.00    +0.000 C 
BRANCH  23  25
ATOM     24  C   UNL     1       2.554   3.828  21.897  0.00  0.00    +0.000 C 
ATOM     25  C   UNL     1       1.818   2.499  21.867  0.00  0.00    +0.000 C 
ENDBRANCH  23  25
ENDBRANCH  20  23
BRANCH  20  26
ATOM     26  C   UNL     1       2.412   1.940  18.350  0.00  0.00    +0.000 C 
BRANCH  26  27
ATOM     27  C   UNL     1       3.710   1.279  18.840  0.00  0.00    +0.000 C 
ATOM     28  C   UNL     1       4.658   2.152  19.650  0.00  0.00    +0.000 C 
ENDBRANCH  26  27
ENDBRANCH  20  26
ENDBRANCH  18  21
ENDBRANCH   1  18
TORSDOF 7
ENDMDL
MODEL 2
REMARK VINA RESULT:      -7.0      1.957      5.977
REMARK  Name = 
REMARK  10 active torsions:
REMARK  status: ('A' for Active; 'I' for Inactive)
REMARK    1  A    between atoms: C_1  and  C_2
REMARK    2  A    between atoms: C_2  and  C_3
REMARK    3  A    between atoms: C_3  and  N_4
REMARK    4  A    between atoms: N_4  and  C_5
REMARK    5  A    between atoms: C_5  and  C_6
REMARK    6  A    between atoms: C_6  and  C_7
REMARK    7  A    between atoms: C_8  and  C_10
REMARK    8  A    between atoms: C_10  and  C_12
REMARK    9  A    between atoms: C_13  and  C_14
REMARK   10  A    between atoms: C_22  and  C_23
REMARK                            x       y       z     vdW  Elec       q    Type
REMARK                         _______ _______ _______ _____ _____    ______ ____
ROOT
ATOM      1  C   UNL     1       2.610   6.574  18.863  0.00  0.00    +0.000 A 
ATOM      2  C   UNL     1       1.823   6.095  19.914  0.00  0.00    +0.000 A 
ATOM      3  N   UNL     1       1.113   7.172  20.395  0.00  0.00    +0.000 N 
ATOM      4  C   UNL     1       1.370   8.317  19.679  0.00  0.00    +0.000 A 
ATOM      5  C   UNL     1       0.840   9.617  19.816  0.00  0.00    +0.000 A 
ATOM      6  C   UNL     1      -0.160  10.022  20.861  0.00  0.00    +0.000 C 
ATOM      7  C   UNL     1       1.300  10.582  18.903  0.00  0.00    +0.000 A 
ATOM      8  C   UNL     1       2.233  10.270  17.921  0.00  0.00    +0.000 A 
ATOM      9  C   UNL     1       2.746   8.975  17.819  0.00  0.00    +0.000 A 
ATOM     10  C   UNL     1       2.316   7.973  18.712  0.00  0.00    +0.000 A 
ATOM     11  H   UNL     1       0.480   7.126  21.182  0.00  0.00    +0.000 HD
ENDROOT
BRANCH   2  12
ATOM     12  C   UNL     1       1.692   4.751  20.502  0.00  0.00    +0.000 A 
ATOM     13  C   UNL     1       2.423   4.393  21.642  0.00  0.00    +0.000 A 
ATOM     14  C   UNL     1       2.404   3.087  22.132  0.00  0.00    +0.000 A 
ATOM     15  C   UNL     1       1.604   2.128  21.520  0.00  0.00    +0.000 A 
ATOM     16  C   UNL     1       0.820   2.481  20.423  0.00  0.00    +0.000 A 
ATOM     17  C   UNL     1       0.868   3.783  19.913  0.00  0.00    +0.000 A 
ENDBRANCH   2  12
BRANCH   1  18
ATOM     18  C   UNL     1       3.530   5.767  18.051  0.00  0.00    +0.000 C 
ATOM     19  O   UNL     1       3.158   5.054  17.132  0.00  0.00    +0.000 OA
BRANCH  18  21
ATOM     20  N   UNL     1       5.960   6.004  17.363  0.00  0.00    +0.000 N 
ATOM     21  C   UNL     1       5.022   5.751  18.386  0.00  0.00    +0.000 C 
ATOM     22  O   UNL     1       5.328   5.503  19.550  0.00  0.00    +0.000 OA
BRANCH  20  23
ATOM     23  C   UNL     1       7.378   5.880  17.725  0.00  0.00    +0.000 C 
BRANCH  23  25
ATOM     24  C   UNL     1       7.886   8.414  17.689  0.00  0.00    +0.000 C 
ATOM     25  C   UNL     1       8.047   7.083  18.404  0.00  0.00    +0.000 C 
ENDBRANCH  23  25
ENDBRANCH  20  23
BRANCH  20  26
ATOM     26  C   UNL     1       5.565   6.270  15.968  0.00  0.00    +0.000 C 
BRANCH  26  27
ATOM     27  C   UNL     1       6.212   5.412  14.870  0.00  0.00    +0.000 C 
ATOM     28  C   UNL     1       5.608   4.035  14.632  0.00  0.00    +0.000 C 
ENDBRANCH  26  27
ENDBRANCH  20  26
ENDBRANCH  18  21
ENDBRANCH   1  18
TORSDOF 7
ENDMDL
MODEL 3
REMARK VINA RESULT:      -6.9      1.675      5.706
REMARK  Name = 
REMARK  10 active torsions:
REMARK  status: ('A' for Active; 'I' for Inactive)
REMARK    1  A    between atoms: C_1  and  C_2
REMARK    2  A    between atoms: C_2  and  C_3
REMARK    3  A    between atoms: C_3  and  N_4
REMARK    4  A    between atoms: N_4  and  C_5
REMARK    5  A    between atoms: C_5  and  C_6
REMARK    6  A    between atoms: C_6  and  C_7
REMARK    7  A    between atoms: C_8  and  C_10
REMARK    8  A    between atoms: C_10  and  C_12
REMARK    9  A    between atoms: C_13  and  C_14
REMARK   10  A    between atoms: C_22  and  C_23
REMARK                            x       y       z     vdW  Elec       q    Type
REMARK                         _______ _______ _______ _____ _____    ______ ____
ROOT
ATOM      1  C   UNL     1       2.199   6.916  18.918  0.00  0.00    +0.000 A 
ATOM      2  C   UNL     1       1.731   6.327  20.095  0.00  0.00    +0.000 A 
ATOM      3  N   UNL     1       1.234   7.349  20.874  0.00  0.00    +0.000 N 
ATOM      4  C   UNL     1       1.320   8.565  20.240  0.00  0.00    +0.000 A 
ATOM      5  C   UNL     1       0.906   9.845  20.664  0.00  0.00    +0.000 A 
ATOM      6  C   UNL     1       0.268  10.138  21.992  0.00  0.00    +0.000 C 
ATOM      7  C   UNL     1       1.123  10.905  19.764  0.00  0.00    +0.000 A 
ATOM      8  C   UNL     1       1.718  10.699  18.526  0.00  0.00    +0.000 A 
ATOM      9  C   UNL     1       2.127   9.419  18.142  0.00  0.00    +0.000 A 
ATOM     10  C   UNL     1       1.932   8.325  19.009  0.00  0.00    +0.000 A 
ATOM     11  H   UNL     1       0.854   7.218  21.802  0.00  0.00    +0.000 HD
ENDROOT
BRANCH   2  12
ATOM     12  C   UNL     1       1.720   4.926  20.549  0.00  0.00    +0.000 A 
ATOM     13  C   UNL     1       0.960   3.961  19.875  0.00  0.00    +0.000 A 
ATOM     14  C   UNL     1       0.841   2.661  20.369  0.00  0.00    +0.000 A 
ATOM     15  C   UNL     1       1.529   2.291  21.519  0.00  0.00    +0.000 A 
ATOM     16  C   UNL     1       2.340   3.219  22.169  0.00  0.00    +0.000 A 
ATOM     17  C   UNL     1       2.431   4.531  21.690  0.00  0.00    +0.000 A 
ENDBRANCH   2  12
BRANCH   1  18
ATOM     18  C   UNL     1       2.812   6.199  17.792  0.00  0.00    +0.000 C 
ATOM     19  O   UNL     1       2.199   5.406  17.094  0.00  0.00    +0.000 OA
BRANCH  18  21
ATOM     20  N   UNL     1       5.252   5.689  18.264  0.00  0.00    +0.000 N 
ATOM     21  C   UNL     1       4.299   6.388  17.492  0.00  0.00    +0.000 C 
ATOM     22  O   UNL     1       4.589   7.161  16.582  0.00  0.00    +0.000 OA
BRANCH  20  23
ATOM     23  C   UNL     1       6.664   5.985  17.991  0.00  0.00    +0.000 C 
BRANCH  23  25
ATOM     24  C   UNL     1       7.031   4.481  15.921  0.00  0.00    +0.000 C 
ATOM     25  C   UNL     1       7.501   4.897  17.306  0.00  0.00    +0.000 C 
ENDBRANCH  23  25
ENDBRANCH  20  23
BRANCH  20  26
ATOM     26  C   UNL     1       4.876   4.789  19.368  0.00  0.00    +0.000 C 
BRANCH  26  27
ATOM     27  C   UNL     1       4.832   3.281  19.073  0.00  0.00    +0.000 C 
ATOM     28  C   UNL     1       3.976   2.840  17.894  0.00  0.00    +0.000 C 
ENDBRANCH  26  27
ENDBRANCH  20  26
ENDBRANCH  18  21
ENDBRANCH   1  18
TORSDOF 7
ENDMDL
MODEL 4
REMARK VINA RESULT:      -6.9      2.117      5.149
REMARK  Name = 
REMARK  10 active torsions:
REMARK  status: ('A' for Active; 'I' for Inactive)
REMARK    1  A    between atoms: C_1  and  C_2
REMARK    2  A    between atoms: C_2  and  C_3
REMARK    3  A    between atoms: C_3  and  N_4
REMARK    4  A    between atoms: N_4  and  C_5
REMARK    5  A    between atoms: C_5  and  C_6
REMARK    6  A    between atoms: C_6  and  C_7
REMARK    7  A    between atoms: C_8  and  C_10
REMARK    8  A    between atoms: C_10  and  C_12
REMARK    9  A    between atoms: C_13  and  C_14
REMARK   10  A    between atoms: C_22  and  C_23
REMARK                            x       y       z     vdW  Elec       q    Type
REMARK                         _______ _______ _______ _____ _____    ______ ____
ROOT
ATOM      1  C   UNL     1       3.603   5.845  17.859  0.00  0.00    +0.000 A 
ATOM      2  C   UNL     1       2.456   6.392  18.440  0.00  0.00    +0.000 A 
ATOM      3  N   UNL     1       1.660   5.331  18.809  0.00  0.00    +0.000 N 
ATOM      4  C   UNL     1       2.255   4.123  18.533  0.00  0.00    +0.000 A 
ATOM      5  C   UNL     1       1.804   2.808  18.774  0.00  0.00    +0.000 A 
ATOM      6  C   UNL     1       0.484   2.463  19.402  0.00  0.00    +0.000 C 
ATOM      7  C   UNL     1       2.666   1.767  18.384  0.00  0.00    +0.000 A 
ATOM      8  C   UNL     1       3.895   2.024  17.788  0.00  0.00    +0.000 A 
ATOM      9  C   UNL     1       4.307   3.338  17.554  0.00  0.00    +0.000 A 
ATOM     10  C   UNL     1       3.477   4.415  17.927  0.00  0.00    +0.000 A 
ATOM     11  H   UNL     1       0.746   5.430  19.230  0.00  0.00    +0.000 HD
ENDROOT
BRANCH   2  12
ATOM     12  C   UNL     1       2.045   7.788  18.662  0.00  0.00    +0.000 A 
ATOM     13  C   UNL     1       2.146   8.737  17.636  0.00  0.00    +0.000 A 
ATOM     14  C   UNL     1       1.880  10.087  17.872  0.00  0.00    +0.000 A 
ATOM     15  C   UNL     1       1.451  10.500  19.128  0.00  0.00    +0.000 A 
ATOM     16  C   UNL     1       1.282   9.561  20.144  0.00  0.00    +0.000 A 
ATOM     17  C   UNL     1       1.582   8.214  19.915  0.00  0.00    +0.000 A 
ENDBRANCH   2  12
BRANCH   1  18
ATOM     18  C   UNL     1       4.735   6.613  17.322  0.00  0.00    +0.000 C 
ATOM     19  O   UNL     1       5.199   7.595  17.880  0.00  0.00    +0.000 OA
BRANCH  18  21
ATOM     20  N   UNL     1       6.441   5.338  15.943  0.00  0.00    +0.000 N 
ATOM     21  C   UNL     1       5.343   6.224  15.974  0.00  0.00    +0.000 C 
ATOM     22  O   UNL     1       4.838   6.724  14.971  0.00  0.00    +0.000 OA
BRANCH  20  23
ATOM     23  C   UNL     1       7.039   5.079  14.628  0.00  0.00    +0.000 C 
BRANCH  23  25
ATOM     24  C   UNL     1       6.819   3.955  12.311  0.00  0.00    +0.000 C 
ATOM     25  C   UNL     1       6.442   3.946  13.783  0.00  0.00    +0.000 C 
ENDBRANCH  23  25
ENDBRANCH  20  23
BRANCH  20  26
ATOM     26  C   UNL     1       7.045   4.776  17.164  0.00  0.00    +0.000 C 
BRANCH  26  27
ATOM     27  C   UNL     1       7.798   5.741  18.093  0.00  0.00    +0.000 C 
ATOM     28  C   UNL     1       7.558   5.578  19.588  0.00  0.00    +0.000 C 
ENDBRANCH  26  27
ENDBRANCH  20  26
ENDBRANCH  18  21
ENDBRANCH   1  18
TORSDOF 7
ENDMDL
MODEL 5
REMARK VINA RESULT:      -6.8      1.860      5.403
REMARK  Name = 
REMARK  10 active torsions:
REMARK  status: ('A' for Active; 'I' for Inactive)
REMARK    1  A    between atoms: C_1  and  C_2
REMARK    2  A    between atoms: C_2  and  C_3
REMARK    3  A    between atoms: C_3  and  N_4
REMARK    4  A    between atoms: N_4  and  C_5
REMARK    5  A    between atoms: C_5  and  C_6
REMARK    6  A    between atoms: C_6  and  C_7
REMARK    7  A    between atoms: C_8  and  C_10
REMARK    8  A    between atoms: C_10  and  C_12
REMARK    9  A    between atoms: C_13  and  C_14
REMARK   10  A    between atoms: C_22  and  C_23
REMARK                            x       y       z     vdW  Elec       q    Type
REMARK                         _______ _______ _______ _____ _____    ______ ____
ROOT
ATOM      1  C   UNL     1       3.569   5.680  18.825  0.00  0.00    +0.000 A 
ATOM      2  C   UNL     1       2.493   6.314  19.451  0.00  0.00    +0.000 A 
ATOM      3  N   UNL     1       1.961   5.402  20.335  0.00  0.00    +0.000 N 
ATOM      4  C   UNL     1       2.666   4.223  20.342  0.00  0.00    +0.000 A 
ATOM      5  C   UNL     1       2.481   3.054  21.110  0.00  0.00    +0.000 A 
ATOM      6  C   UNL     1       1.385   2.863  22.119  0.00  0.00    +0.000 C 
ATOM      7  C   UNL     1       3.396   2.008  20.891  0.00  0.00    +0.000 A 
ATOM      8  C   UNL     1       4.425   2.121  19.964  0.00  0.00    +0.000 A 
ATOM      9  C   UNL     1       4.573   3.289  19.212  0.00  0.00    +0.000 A 
ATOM     10  C   UNL     1       3.681   4.365  19.394  0.00  0.00    +0.000 A 
ATOM     11  H   UNL     1       1.147   5.579  20.908  0.00  0.00    +0.000 HD
ENDROOT
BRANCH   2  12
ATOM     12  C   UNL     1       1.925   7.663  19.288  0.00  0.00    +0.000 A 
ATOM     13  C   UNL     1       1.516   8.407  20.403  0.00  0.00    +0.000 A 
ATOM     14  C   UNL     1       0.861   9.630  20.253  0.00  0.00    +0.000 A 
ATOM     15  C   UNL     1       0.656  10.157  18.983  0.00  0.00    +0.000 A 
ATOM     16  C   UNL     1       1.112   9.462  17.865  0.00  0.00    +0.000 A 
ATOM     17  C   UNL     1       1.738   8.219  18.015  0.00  0.00    +0.000 A 
ENDBRANCH   2  12
BRANCH   1  18
ATOM     18  C   UNL     1       4.437   6.283  17.804  0.00  0.00    +0.000 C 
ATOM     19  O   UNL     1       4.582   7.489  17.680  0.00  0.00    +0.000 OA
BRANCH  18  21
ATOM     20  N   UNL     1       6.569   5.384  16.764  0.00  0.00    +0.000 N 
ATOM     21  C   UNL     1       5.159   5.386  16.797  0.00  0.00    +0.000 C 
ATOM     22  O   UNL     1       4.455   4.710  16.050  0.00  0.00    +0.000 OA
BRANCH  20  23
ATOM     23  C   UNL     1       7.201   4.575  15.714  0.00  0.00    +0.000 C 
BRANCH  23  25
ATOM     24  C   UNL     1       6.471   3.943  13.317  0.00  0.00    +0.000 C 
ATOM     25  C   UNL     1       6.998   5.014  14.258  0.00  0.00    +0.000 C 
ENDBRANCH  23  25
ENDBRANCH  20  23
BRANCH  20  26
ATOM     26  C   UNL     1       7.388   6.226  17.654  0.00  0.00    +0.000 C 
BRANCH  26  27
ATOM     27  C   UNL     1       7.776   7.625  17.150  0.00  0.00    +0.000 C 
ATOM     28  C   UNL     1       8.248   8.623  18.198  0.00  0.00    +0.000 C 
ENDBRANCH  26  27
ENDBRANCH  20  26
ENDBRANCH  18  21
ENDBRANCH   1  18
TORSDOF 7
ENDMDL
MODEL 6
REMARK VINA RESULT:      -6.8      1.829      5.891
REMARK  Name = 
REMARK  10 active torsions:
REMARK  status: ('A' for Active; 'I' for Inactive)
REMARK    1  A    between atoms: C_1  and  C_2
REMARK    2  A    between atoms: C_2  and  C_3
REMARK    3  A    between atoms: C_3  and  N_4
REMARK    4  A    between atoms: N_4  and  C_5
REMARK    5  A    between atoms: C_5  and  C_6
REMARK    6  A    between atoms: C_6  and  C_7
REMARK    7  A    between atoms: C_8  and  C_10
REMARK    8  A    between atoms: C_10  and  C_12
REMARK    9  A    between atoms: C_13  and  C_14
REMARK   10  A    between atoms: C_22  and  C_23
REMARK                            x       y       z     vdW  Elec       q    Type
REMARK                         _______ _______ _______ _____ _____    ______ ____
ROOT
ATOM      1  C   UNL     1       1.874   7.091  19.346  0.00  0.00    +0.000 A 
ATOM      2  C   UNL     1       1.582   6.277  20.443  0.00  0.00    +0.000 A 
ATOM      3  N   UNL     1       1.135   7.112  21.443  0.00  0.00    +0.000 N 
ATOM      4  C   UNL     1       1.083   8.422  21.032  0.00  0.00    +0.000 A 
ATOM      5  C   UNL     1       0.661   9.578  21.721  0.00  0.00    +0.000 A 
ATOM      6  C   UNL     1       0.177   9.593  23.143  0.00  0.00    +0.000 C 
ATOM      7  C   UNL     1       0.714  10.789  21.007  0.00  0.00    +0.000 A 
ATOM      8  C   UNL     1       1.164  10.841  19.693  0.00  0.00    +0.000 A 
ATOM      9  C   UNL     1       1.584   9.679  19.043  0.00  0.00    +0.000 A 
ATOM     10  C   UNL     1       1.550   8.441  19.717  0.00  0.00    +0.000 A 
ATOM     11  H   UNL     1       0.878   6.798  22.369  0.00  0.00    +0.000 HD
ENDROOT
BRANCH   2  12
ATOM     12  C   UNL     1       1.695   4.821  20.638  0.00  0.00    +0.000 A 
ATOM     13  C   UNL     1       0.851   3.939  19.950  0.00  0.00    +0.000 A 
ATOM     14  C   UNL     1       0.862   2.570  20.221  0.00  0.00    +0.000 A 
ATOM     15  C   UNL     1       1.763   2.053  21.145  0.00  0.00    +0.000 A 
ATOM     16  C   UNL     1       2.654   2.907  21.793  0.00  0.00    +0.000 A 
ATOM     17  C   UNL     1       2.617   4.283  21.545  0.00  0.00    +0.000 A 
ENDBRANCH   2  12
BRANCH   1  18
ATOM     18  C   UNL     1       2.378   6.622  18.048  0.00  0.00    +0.000 C 
ATOM     19  O   UNL     1       1.699   5.984  17.259  0.00  0.00    +0.000 OA
BRANCH  18  21
ATOM     20  N   UNL     1       4.781   5.842  17.814  0.00  0.00    +0.000 N 
ATOM     21  C   UNL     1       3.836   6.879  17.664  0.00  0.00    +0.000 C 
ATOM     22  O   UNL     1       4.112   8.002  17.247  0.00  0.00    +0.000 OA
BRANCH  20  23
ATOM     23  C   UNL     1       6.179   6.178  17.520  0.00  0.00    +0.000 C 
BRANCH  23  25
ATOM     24  C   UNL     1       7.911   5.769  19.394  0.00  0.00    +0.000 C 
ATOM     25  C   UNL     1       7.270   5.274  18.108  0.00  0.00    +0.000 C 
ENDBRANCH  23  25
ENDBRANCH  20  23
BRANCH  20  26
ATOM     26  C   UNL     1       4.427   4.513  18.344  0.00  0.00    +0.000 C 
BRANCH  26  27
ATOM     27  C   UNL     1       4.039   3.424  17.331  0.00  0.00    +0.000 C 
ATOM     28  C   UNL     1       3.626   2.075  17.903  0.00  0.00    +0.000 C 
ENDBRANCH  26  27
ENDBRANCH  20  26
ENDBRANCH  18  21
ENDBRANCH   1  18
TORSDOF 7
ENDMDL
MODEL 7
REMARK VINA RESULT:      -6.7      1.703      5.554
REMARK  Name = 
REMARK  10 active torsions:
REMARK  status: ('A' for Active; 'I' for Inactive)
REMARK    1  A    between atoms: C_1  and  C_2
REMARK    2  A    between atoms: C_2  and  C_3
REMARK    3  A    between atoms: C_3  and  N_4
REMARK    4  A    between atoms: N_4  and  C_5
REMARK    5  A    between atoms: C_5  and  C_6
REMARK    6  A    between atoms: C_6  and  C_7
REMARK    7  A    between atoms: C_8  and  C_10
REMARK    8  A    between atoms: C_10  and  C_12
REMARK    9  A    between atoms: C_13  and  C_14
REMARK   10  A    between atoms: C_22  and  C_23
REMARK                            x       y       z     vdW  Elec       q    Type
REMARK                         _______ _______ _______ _____ _____    ______ ____
ROOT
ATOM      1  C   UNL     1       2.197   6.784  18.852  0.00  0.00    +0.000 A 
ATOM      2  C   UNL     1       1.746   6.270  20.070  0.00  0.00    +0.000 A 
ATOM      3  N   UNL     1       1.299   7.344  20.807  0.00  0.00    +0.000 N 
ATOM      4  C   UNL     1       1.398   8.523  20.109  0.00  0.00    +0.000 A 
ATOM      5  C   UNL     1       1.030   9.834  20.476  0.00  0.00    +0.000 A 
ATOM      6  C   UNL     1       0.437  10.212  21.804  0.00  0.00    +0.000 C 
ATOM      7  C   UNL     1       1.249  10.839  19.517  0.00  0.00    +0.000 A 
ATOM      8  C   UNL     1       1.805  10.554  18.276  0.00  0.00    +0.000 A 
ATOM      9  C   UNL     1       2.168   9.245  17.948  0.00  0.00    +0.000 A 
ATOM     10  C   UNL     1       1.969   8.203  18.876  0.00  0.00    +0.000 A 
ATOM     11  H   UNL     1       0.941   7.271  21.751  0.00  0.00    +0.000 HD
ENDROOT
BRANCH   2  12
ATOM     12  C   UNL     1       1.711   4.895  20.597  0.00  0.00    +0.000 A 
ATOM     13  C   UNL     1       2.664   4.459  21.526  0.00  0.00    +0.000 A 
ATOM     14  C   UNL     1       2.718   3.126  21.935  0.00  0.00    +0.000 A 
ATOM     15  C   UNL     1       1.778   2.217  21.461  0.00  0.00    +0.000 A 
ATOM     16  C   UNL     1       0.783   2.646  20.586  0.00  0.00    +0.000 A 
ATOM     17  C   UNL     1       0.752   3.975  20.151  0.00  0.00    +0.000 A 
ENDBRANCH   2  12
BRANCH   1  18
ATOM     18  C   UNL     1       2.758   5.994  17.748  0.00  0.00    +0.000 C 
ATOM     19  O   UNL     1       2.107   5.179  17.113  0.00  0.00    +0.000 OA
BRANCH  18  21
ATOM     20  N   UNL     1       4.983   4.974  17.078  0.00  0.00    +0.000 N 
ATOM     21  C   UNL     1       4.240   6.131  17.394  0.00  0.00    +0.000 C 
ATOM     22  O   UNL     1       4.713   7.265  17.415  0.00  0.00    +0.000 OA
BRANCH  20  23
ATOM     23  C   UNL     1       6.420   5.160  16.841  0.00  0.00    +0.000 C 
BRANCH  23  25
ATOM     24  C   UNL     1       7.693   5.908  18.961  0.00  0.00    +0.000 C 
ATOM     25  C   UNL     1       7.383   4.793  17.977  0.00  0.00    +0.000 C 
ENDBRANCH  23  25
ENDBRANCH  20  23
BRANCH  20  26
ATOM     26  C   UNL     1       4.394   3.623  17.089  0.00  0.00    +0.000 C 
BRANCH  26  27
ATOM     27  C   UNL     1       4.246   2.923  18.448  0.00  0.00    +0.000 C 
ATOM     28  C   UNL     1       3.573   1.557  18.444  0.00  0.00    +0.000 C 
ENDBRANCH  26  27
ENDBRANCH  20  26
ENDBRANCH  18  21
ENDBRANCH   1  18
TORSDOF 7
ENDMDL
MODEL 8
REMARK VINA RESULT:      -6.6      1.818      5.981
REMARK  Name = 
REMARK  10 active torsions:
REMARK  status: ('A' for Active; 'I' for Inactive)
REMARK    1  A    between atoms: C_1  and  C_2
REMARK    2  A    between atoms: C_2  and  C_3
REMARK    3  A    between atoms: C_3  and  N_4
REMARK    4  A    between atoms: N_4  and  C_5
REMARK    5  A    between atoms: C_5  and  C_6
REMARK    6  A    between atoms: C_6  and  C_7
REMARK    7  A    between atoms: C_8  and  C_10
REMARK    8  A    between atoms: C_10  and  C_12
REMARK    9  A    between atoms: C_13  and  C_14
REMARK   10  A    between atoms: C_22  and  C_23
REMARK                            x       y       z     vdW  Elec       q    Type
REMARK                         _______ _______ _______ _____ _____    ______ ____
ROOT
ATOM      1  C   UNL     1       2.673   6.736  18.834  0.00  0.00    +0.000 A 
ATOM      2  C   UNL     1       2.364   6.051  20.011  0.00  0.00    +0.000 A 
ATOM      3  N   UNL     1       1.645   6.924  20.796  0.00  0.00    +0.000 N 
ATOM      4  C   UNL     1       1.436   8.127  20.166  0.00  0.00    +0.000 A 
ATOM      5  C   UNL     1       0.733   9.272  20.595  0.00  0.00    +0.000 A 
ATOM      6  C   UNL     1       0.052   9.403  21.928  0.00  0.00    +0.000 C 
ATOM      7  C   UNL     1       0.687  10.354  19.698  0.00  0.00    +0.000 A 
ATOM      8  C   UNL     1       1.307  10.298  18.455  0.00  0.00    +0.000 A 
ATOM      9  C   UNL     1       2.004   9.152  18.065  0.00  0.00    +0.000 A 
ATOM     10  C   UNL     1       2.079   8.042  18.930  0.00  0.00    +0.000 A 
ATOM     11  H   UNL     1       1.312   6.706  21.726  0.00  0.00    +0.000 HD
ENDROOT
BRANCH   2  12
ATOM     12  C   UNL     1       2.688   4.687  20.461  0.00  0.00    +0.000 A 
ATOM     13  C   UNL     1       3.854   4.045  20.022  0.00  0.00    +0.000 A 
ATOM     14  C   UNL     1       4.107   2.710  20.339  0.00  0.00    +0.000 A 
ATOM     15  C   UNL     1       3.222   2.010  21.151  0.00  0.00    +0.000 A 
ATOM     16  C   UNL     1       2.089   2.650  21.650  0.00  0.00    +0.000 A 
ATOM     17  C   UNL     1       1.820   3.979  21.303  0.00  0.00    +0.000 A 
ENDBRANCH   2  12
BRANCH   1  18
ATOM     18  C   UNL     1       3.431   6.186  17.702  0.00  0.00    +0.000 C 
ATOM     19  O   UNL     1       3.003   5.298  16.981  0.00  0.00    +0.000 OA
BRANCH  18  21
ATOM     20  N   UNL     1       5.854   5.757  17.083  0.00  0.00    +0.000 N 
ATOM     21  C   UNL     1       4.849   6.688  17.424  0.00  0.00    +0.000 C 
ATOM     22  O   UNL     1       5.041   7.897  17.525  0.00  0.00    +0.000 OA
BRANCH  20  23
ATOM     23  C   UNL     1       7.213   6.288  16.923  0.00  0.00    +0.000 C 
BRANCH  23  25
ATOM     24  C   UNL     1       7.859   5.786  19.374  0.00  0.00    +0.000 C 
ATOM     25  C   UNL     1       7.960   6.730  18.188  0.00  0.00    +0.000 C 
ENDBRANCH  23  25
ENDBRANCH  20  23
BRANCH  20  26
ATOM     26  C   UNL     1       5.601   4.308  16.997  0.00  0.00    +0.000 C 
BRANCH  26  27
ATOM     27  C   UNL     1       5.921   3.609  15.666  0.00  0.00    +0.000 C 
ATOM     28  C   UNL     1       5.552   4.358  14.394  0.00  0.00    +0.000 C 
ENDBRANCH  26  27
ENDBRANCH  20  26
ENDBRANCH  18  21
ENDBRANCH   1  18
TORSDOF 7
ENDMDL
MODEL 9
REMARK VINA RESULT:      -6.6      1.911      5.137
REMARK  Name = 
REMARK  10 active torsions:
REMARK  status: ('A' for Active; 'I' for Inactive)
REMARK    1  A    between atoms: C_1  and  C_2
REMARK    2  A    between atoms: C_2  and  C_3
REMARK    3  A    between atoms: C_3  and  N_4
REMARK    4  A    between atoms: N_4  and  C_5
REMARK    5  A    between atoms: C_5  and  C_6
REMARK    6  A    between atoms: C_6  and  C_7
REMARK    7  A    between atoms: C_8  and  C_10
REMARK    8  A    between atoms: C_10  and  C_12
REMARK    9  A    between atoms: C_13  and  C_14
REMARK   10  A    between atoms: C_22  and  C_23
REMARK                            x       y       z     vdW  Elec       q    Type
REMARK                         _______ _______ _______ _____ _____    ______ ____
ROOT
ATOM      1  C   UNL     1       3.537   5.668  18.718  0.00  0.00    +0.000 A 
ATOM      2  C   UNL     1       2.482   6.312  19.367  0.00  0.00    +0.000 A 
ATOM      3  N   UNL     1       1.979   5.416  20.283  0.00  0.00    +0.000 N 
ATOM      4  C   UNL     1       2.685   4.237  20.288  0.00  0.00    +0.000 A 
ATOM      5  C   UNL     1       2.525   3.081  21.081  0.00  0.00    +0.000 A 
ATOM      6  C   UNL     1       1.462   2.908  22.128  0.00  0.00    +0.000 C 
ATOM      7  C   UNL     1       3.434   2.032  20.852  0.00  0.00    +0.000 A 
ATOM      8  C   UNL     1       4.432   2.129  19.890  0.00  0.00    +0.000 A 
ATOM      9  C   UNL     1       4.556   3.284  19.114  0.00  0.00    +0.000 A 
ATOM     10  C   UNL     1       3.669   4.363  19.306  0.00  0.00    +0.000 A 
ATOM     11  H   UNL     1       1.184   5.603  20.879  0.00  0.00    +0.000 HD
ENDROOT
BRANCH   2  12
ATOM     12  C   UNL     1       1.908   7.658  19.199  0.00  0.00    +0.000 A 
ATOM     13  C   UNL     1       1.837   8.254  17.933  0.00  0.00    +0.000 A 
ATOM     14  C   UNL     1       1.414   9.575  17.779  0.00  0.00    +0.000 A 
ATOM     15  C   UNL     1       0.999  10.304  18.888  0.00  0.00    +0.000 A 
ATOM     16  C   UNL     1       1.001   9.708  20.147  0.00  0.00    +0.000 A 
ATOM     17  C   UNL     1       1.459   8.394  20.303  0.00  0.00    +0.000 A 
ENDBRANCH   2  12
BRANCH   1  18
ATOM     18  C   UNL     1       4.372   6.253  17.660  0.00  0.00    +0.000 C 
ATOM     19  O   UNL     1       4.479   7.456  17.483  0.00  0.00    +0.000 OA
BRANCH  18  21
ATOM     20  N   UNL     1       6.504   5.460  16.536  0.00  0.00    +0.000 N 
ATOM     21  C   UNL     1       5.106   5.337  16.679  0.00  0.00    +0.000 C 
ATOM     22  O   UNL     1       4.422   4.533  16.050  0.00  0.00    +0.000 OA
BRANCH  20  23
ATOM     23  C   UNL     1       7.137   4.620  15.512  0.00  0.00    +0.000 C 
BRANCH  23  25
ATOM     24  C   UNL     1       6.285   3.844  13.199  0.00  0.00    +0.000 C 
ATOM     25  C   UNL     1       6.871   4.966  14.041  0.00  0.00    +0.000 C 
ENDBRANCH  23  25
ENDBRANCH  20  23
BRANCH  20  26
ATOM     26  C   UNL     1       7.296   6.453  17.284  0.00  0.00    +0.000 C 
BRANCH  26  27
ATOM     27  C   UNL     1       8.077   5.961  18.512  0.00  0.00    +0.000 C 
ATOM     28  C   UNL     1       7.257   5.584  19.738  0.00  0.00    +0.000 C 
ENDBRANCH  26  27
ENDBRANCH  20  26
ENDBRANCH  18  21
ENDBRANCH   1  18
TORSDOF 7
ENDMDL
