MODEL 1
REMARK VINA RESULT:      -7.8      0.000      0.000
REMARK  Name = 
REMARK  8 active torsions:
REMARK  status: ('A' for Active; 'I' for Inactive)
REMARK    1  A    between atoms: C_1  and  O_2
REMARK    2  A    between atoms: O_2  and  C_3
REMARK    3  A    between atoms: C_6  and  N_7
REMARK    4  A    between atoms: N_7  and  C_8
REMARK    5  A    between atoms: C_13  and  C_15
REMARK    6  A    between atoms: C_15  and  C_16
REMARK    7  A    between atoms: C_16  and  O_17
REMARK    8  A    between atoms: O_17  and  C_18
REMARK                            x       y       z     vdW  Elec       q    Type
REMARK                         _______ _______ _______ _____ _____    ______ ____
ROOT
ATOM      1  C   UNL     1       1.599   4.613  21.085  0.00  0.00    +0.000 C 
ATOM      2  C   UNL     1       2.287   3.490  21.875  0.00  0.00    +0.000 C 
ATOM      3  C   UNL     1       3.199   2.592  21.028  0.00  0.00    +0.000 C 
ATOM      4  C   UNL     1       2.683   2.254  19.625  0.00  0.00    +0.000 C 
ATOM      5  N   UNL     1       2.008   3.377  18.976  0.00  0.00    +0.000 N 
ATOM      6  C   UNL     1       2.008   3.660  17.615  0.00  0.00    +0.000 C 
ATOM      7  O   UNL     1       1.234   4.490  17.131  0.00  0.00    +0.000 OA
ATOM      8  C   UNL     1       0.988   4.028  19.802  0.00  0.00    +0.000 C 
ENDROOT
BRANCH   1   9
ATOM      9  N   UNL     1       2.543   5.684  20.745  0.00  0.00    +0.000 N 
ATOM     10  H   UNL     1       3.372   5.712  21.334  0.00  0.00    +0.000 HD
BRANCH   9  14
ATOM     11  C   UNL     1       1.264   9.340  19.050  0.00  0.00    +0.000 A 
ATOM     12  C   UNL     1       2.038   8.439  18.319  0.00  0.00    +0.000 A 
ATOM     13  C   UNL     1       2.450   7.226  18.892  0.00  0.00    +0.000 A 
ATOM     14  C   UNL     1       2.139   6.903  20.217  0.00  0.00    +0.000 A 
ATOM     15  C   UNL     1       1.342   7.811  20.925  0.00  0.00    +0.000 A 
ATOM     16  C   UNL     1       0.915   9.016  20.356  0.00  0.00    +0.000 A 
BRANCH  11  18
ATOM     17  C   UNL     1       1.405  11.700  18.985  0.00  0.00    +0.000 C 
ATOM     18  O   UNL     1       0.921  10.495  18.403  0.00  0.00    +0.000 OA
ENDBRANCH  11  18
ENDBRANCH   9  14
ENDBRANCH   1   9
BRANCH   6  19
ATOM     19  C   UNL     1       3.031   2.978  16.728  0.00  0.00    +0.000 C 
BRANCH  19  20
ATOM     20  C   UNL     1       4.436   3.517  17.026  0.00  0.00    +0.000 C 
BRANCH  20  21
ATOM     21  O   UNL     1       4.378   4.945  17.039  0.00  0.00    +0.000 OA
BRANCH  21  22
ATOM     22  C   UNL     1       5.497   5.584  17.494  0.00  0.00    +0.000 A 
ATOM     23  C   UNL     1       6.074   5.030  18.641  0.00  0.00    +0.000 A 
ATOM     24  C   UNL     1       7.240   5.571  19.187  0.00  0.00    +0.000 A 
ATOM     25  C   UNL     1       7.850   6.659  18.573  0.00  0.00    +0.000 A 
ATOM     26  C   UNL     1       7.288   7.214  17.430  0.00  0.00    +0.000 A 
ATOM     27  C   UNL     1       6.116   6.677  16.883  0.00  0.00    +0.000 A 
ENDBRANCH  21  22
ENDBRANCH  20  21
ENDBRANCH  19  20
ENDBRANCH   6  19
TORSDOF 7
ENDMDL
MODEL 2
REMARK VINA RESULT:      -7.6      0.959      1.664
REMARK  Name = 
REMARK  8 active torsions:
REMARK  status: ('A' for Active; 'I' for Inactive)
REMARK    1  A    between atoms: C_1  and  O_2
REMARK    2  A    between atoms: O_2  and  C_3
REMARK    3  A    between atoms: C_6  and  N_7
REMARK    4  A    between atoms: N_7  and  C_8
REMARK    5  A    between atoms: C_13  and  C_15
REMARK    6  A    between atoms: C_15  and  C_16
REMARK    7  A    between atoms: C_16  and  O_17
REMARK    8  A    between atoms: O_17  and  C_18
REMARK                            x       y       z     vdW  Elec       q    Type
REMARK                         _______ _______ _______ _____ _____    ______ ____
ROOT
ATOM      1  C   UNL     1       1.488   4.466  20.757  0.00  0.00    +0.000 C 
ATOM      2  C   UNL     1       1.973   3.379  21.728  0.00  0.00    +0.000 C 
ATOM      3  C   UNL     1       3.218   2.619  21.251  0.00  0.00    +0.000 C 
ATOM      4  C   UNL     1       3.271   2.302  19.752  0.00  0.00    +0.000 C 
ATOM      5  N   UNL     1       2.748   3.382  18.918  0.00  0.00    +0.000 N 
ATOM      6  C   UNL     1       3.195   3.730  17.649  0.00  0.00    +0.000 C 
ATOM      7  O   UNL     1       2.555   4.502  16.930  0.00  0.00    +0.000 OA
ATOM      8  C   UNL     1       1.436   3.886  19.335  0.00  0.00    +0.000 C 
ENDROOT
BRANCH   1   9
ATOM      9  N   UNL     1       2.366   5.641  20.786  0.00  0.00    +0.000 N 
ATOM     10  H   UNL     1       2.949   5.705  21.617  0.00  0.00    +0.000 HD
BRANCH   9  14
ATOM     11  C   UNL     1       1.373   9.379  19.079  0.00  0.00    +0.000 A 
ATOM     12  C   UNL     1       0.950   9.040  20.364  0.00  0.00    +0.000 A 
ATOM     13  C   UNL     1       1.293   7.798  20.921  0.00  0.00    +0.000 A 
ATOM     14  C   UNL     1       2.024   6.851  20.196  0.00  0.00    +0.000 A 
ATOM     15  C   UNL     1       2.456   7.220  18.917  0.00  0.00    +0.000 A 
ATOM     16  C   UNL     1       2.131   8.463  18.360  0.00  0.00    +0.000 A 
BRANCH  11  18
ATOM     17  C   UNL     1      -0.414  10.886  18.713  0.00  0.00    +0.000 C 
ATOM     18  O   UNL     1       0.980  10.608  18.627  0.00  0.00    +0.000 OA
ENDBRANCH  11  18
ENDBRANCH   9  14
ENDBRANCH   1   9
BRANCH   6  19
ATOM     19  C   UNL     1       4.534   3.198  17.176  0.00  0.00    +0.000 C 
BRANCH  19  20
ATOM     20  C   UNL     1       5.062   4.048  16.012  0.00  0.00    +0.000 C 
BRANCH  20  21
ATOM     21  O   UNL     1       6.490   4.067  16.081  0.00  0.00    +0.000 OA
BRANCH  21  22
ATOM     22  C   UNL     1       7.034   4.970  16.952  0.00  0.00    +0.000 A 
ATOM     23  C   UNL     1       6.917   6.310  16.570  0.00  0.00    +0.000 A 
ATOM     24  C   UNL     1       7.402   7.331  17.390  0.00  0.00    +0.000 A 
ATOM     25  C   UNL     1       7.991   7.017  18.609  0.00  0.00    +0.000 A 
ATOM     26  C   UNL     1       8.107   5.688  19.000  0.00  0.00    +0.000 A 
ATOM     27  C   UNL     1       7.625   4.663  18.179  0.00  0.00    +0.000 A 
ENDBRANCH  21  22
ENDBRANCH  20  21
ENDBRANCH  19  20
ENDBRANCH   6  19
TORSDOF 7
ENDMDL
MODEL 3
REMARK VINA RESULT:      -7.6      0.277      1.355
REMARK  Name = 
REMARK  8 active torsions:
REMARK  status: ('A' for Active; 'I' for Inactive)
REMARK    1  A    between atoms: C_1  and  O_2
REMARK    2  A    between atoms: O_2  and  C_3
REMARK    3  A    between atoms: C_6  and  N_7
REMARK    4  A    between atoms: N_7  and  C_8
REMARK    5  A    between atoms: C_13  and  C_15
REMARK    6  A    between atoms: C_15  and  C_16
REMARK    7  A    between atoms: C_16  and  O_17
REMARK    8  A    between atoms: O_17  and  C_18
REMARK                            x       y       z     vdW  Elec       q    Type
REMARK                         _______ _______ _______ _____ _____    ______ ____
ROOT
ATOM      1  C   UNL     1       1.628   4.454  21.132  0.00  0.00    +0.000 C 
ATOM      2  C   UNL     1       2.353   3.299  21.838  0.00  0.00    +0.000 C 
ATOM      3  C   UNL     1       3.258   2.469  20.918  0.00  0.00    +0.000 C 
ATOM      4  C   UNL     1       2.713   2.205  19.509  0.00  0.00    +0.000 C 
ATOM      5  N   UNL     1       2.004   3.351  18.945  0.00  0.00    +0.000 N 
ATOM      6  C   UNL     1       1.964   3.713  17.603  0.00  0.00    +0.000 C 
ATOM      7  O   UNL     1       1.165   4.556  17.187  0.00  0.00    +0.000 OA
ATOM      8  C   UNL     1       0.994   3.933  19.832  0.00  0.00    +0.000 C 
ENDROOT
BRANCH   1   9
ATOM      9  N   UNL     1       2.544   5.560  20.833  0.00  0.00    +0.000 N 
ATOM     10  H   UNL     1       3.361   5.599  21.438  0.00  0.00    +0.000 HD
BRANCH   9  14
ATOM     11  C   UNL     1       1.282   9.321  19.371  0.00  0.00    +0.000 A 
ATOM     12  C   UNL     1       0.940   8.896  20.655  0.00  0.00    +0.000 A 
ATOM     13  C   UNL     1       1.372   7.648  21.130  0.00  0.00    +0.000 A 
ATOM     14  C   UNL     1       2.113   6.778  20.324  0.00  0.00    +0.000 A 
ATOM     15  C   UNL     1       2.464   7.233  19.047  0.00  0.00    +0.000 A 
ATOM     16  C   UNL     1       2.050   8.483  18.571  0.00  0.00    +0.000 A 
BRANCH  11  18
ATOM     17  C   UNL     1       1.723  11.387  18.308  0.00  0.00    +0.000 C 
ATOM     18  O   UNL     1       0.806  10.549  19.003  0.00  0.00    +0.000 OA
ENDBRANCH  11  18
ENDBRANCH   9  14
ENDBRANCH   1   9
BRANCH   6  19
ATOM     19  C   UNL     1       2.975   3.102  16.653  0.00  0.00    +0.000 C 
BRANCH  19  20
ATOM     20  C   UNL     1       4.395   3.548  17.029  0.00  0.00    +0.000 C 
BRANCH  20  21
ATOM     21  O   UNL     1       4.377   4.958  17.263  0.00  0.00    +0.000 OA
BRANCH  21  22
ATOM     22  C   UNL     1       5.552   5.506  17.697  0.00  0.00    +0.000 A 
ATOM     23  C   UNL     1       5.999   6.611  16.965  0.00  0.00    +0.000 A 
ATOM     24  C   UNL     1       7.169   7.282  17.327  0.00  0.00    +0.000 A 
ATOM     25  C   UNL     1       7.890   6.861  18.440  0.00  0.00    +0.000 A 
ATOM     26  C   UNL     1       7.451   5.768  19.177  0.00  0.00    +0.000 A 
ATOM     27  C   UNL     1       6.281   5.092  18.813  0.00  0.00    +0.000 A 
ENDBRANCH  21  22
ENDBRANCH  20  21
ENDBRANCH  19  20
ENDBRANCH   6  19
TORSDOF 7
ENDMDL
MODEL 4
REMARK VINA RESULT:      -7.5      0.902      1.339
REMARK  Name = 
REMARK  8 active torsions:
REMARK  status: ('A' for Active; 'I' for Inactive)
REMARK    1  A    between atoms: C_1  and  O_2
REMARK    2  A    between atoms: O_2  and  C_3
REMARK    3  A    between atoms: C_6  and  N_7
REMARK    4  A    between atoms: N_7  and  C_8
REMARK    5  A    between atoms: C_13  and  C_15
REMARK    6  A    between atoms: C_15  and  C_16
REMARK    7  A    between atoms: C_16  and  O_17
REMARK    8  A    between atoms: O_17  and  C_18
REMARK                            x       y       z     vdW  Elec       q    Type
REMARK                         _______ _______ _______ _____ _____    ______ ____
ROOT
ATOM      1  C   UNL     1       1.491   4.548  20.721  0.00  0.00    +0.000 C 
ATOM      2  C   UNL     1       1.942   3.454  21.700  0.00  0.00    +0.000 C 
ATOM      3  C   UNL     1       3.176   2.666  21.239  0.00  0.00    +0.000 C 
ATOM      4  C   UNL     1       3.237   2.343  19.741  0.00  0.00    +0.000 C 
ATOM      5  N   UNL     1       2.746   3.431  18.899  0.00  0.00    +0.000 N 
ATOM      6  C   UNL     1       3.213   3.766  17.634  0.00  0.00    +0.000 C 
ATOM      7  O   UNL     1       2.597   4.549  16.906  0.00  0.00    +0.000 OA
ATOM      8  C   UNL     1       1.441   3.965  19.300  0.00  0.00    +0.000 C 
ENDROOT
BRANCH   1   9
ATOM      9  N   UNL     1       2.393   5.704  20.756  0.00  0.00    +0.000 N 
ATOM     10  H   UNL     1       3.036   5.708  21.544  0.00  0.00    +0.000 HD
BRANCH   9  14
ATOM     11  C   UNL     1       1.253   9.456  19.175  0.00  0.00    +0.000 A 
ATOM     12  C   UNL     1       2.005   8.555  18.421  0.00  0.00    +0.000 A 
ATOM     13  C   UNL     1       2.370   7.311  18.956  0.00  0.00    +0.000 A 
ATOM     14  C   UNL     1       2.035   6.953  20.266  0.00  0.00    +0.000 A 
ATOM     15  C   UNL     1       1.262   7.862  20.998  0.00  0.00    +0.000 A 
ATOM     16  C   UNL     1       0.880   9.100  20.466  0.00  0.00    +0.000 A 
BRANCH  11  18
ATOM     17  C   UNL     1       2.049  11.532  18.367  0.00  0.00    +0.000 C 
ATOM     18  O   UNL     1       0.955  10.643  18.564  0.00  0.00    +0.000 OA
ENDBRANCH  11  18
ENDBRANCH   9  14
ENDBRANCH   1   9
BRANCH   6  19
ATOM     19  C   UNL     1       4.545   3.204  17.176  0.00  0.00    +0.000 C 
BRANCH  19  20
ATOM     20  C   UNL     1       5.105   4.041  16.017  0.00  0.00    +0.000 C 
BRANCH  20  21
ATOM     21  O   UNL     1       6.531   4.050  16.117  0.00  0.00    +0.000 OA
BRANCH  21  22
ATOM     22  C   UNL     1       7.063   4.965  16.983  0.00  0.00    +0.000 A 
ATOM     23  C   UNL     1       6.986   6.296  16.563  0.00  0.00    +0.000 A 
ATOM     24  C   UNL     1       7.464   7.329  17.373  0.00  0.00    +0.000 A 
ATOM     25  C   UNL     1       8.003   7.035  18.621  0.00  0.00    +0.000 A 
ATOM     26  C   UNL     1       8.079   5.716  19.049  0.00  0.00    +0.000 A 
ATOM     27  C   UNL     1       7.605   4.679  18.238  0.00  0.00    +0.000 A 
ENDBRANCH  21  22
ENDBRANCH  20  21
ENDBRANCH  19  20
ENDBRANCH   6  19
TORSDOF 7
ENDMDL
MODEL 5
REMARK VINA RESULT:      -7.3      2.515      3.522
REMARK  Name = 
REMARK  8 active torsions:
REMARK  status: ('A' for Active; 'I' for Inactive)
REMARK    1  A    between atoms: C_1  and  O_2
REMARK    2  A    between atoms: O_2  and  C_3
REMARK    3  A    between atoms: C_6  and  N_7
REMARK    4  A    between atoms: N_7  and  C_8
REMARK    5  A    between atoms: C_13  and  C_15
REMARK    6  A    between atoms: C_15  and  C_16
REMARK    7  A    between atoms: C_16  and  O_17
REMARK    8  A    between atoms: O_17  and  C_18
REMARK                            x       y       z     vdW  Elec       q    Type
REMARK                         _______ _______ _______ _____ _____    ______ ____
ROOT
ATOM      1  C   UNL     1       2.146   5.121  19.197  0.00  0.00    +0.000 C 
ATOM      2  C   UNL     1       2.338   3.765  19.892  0.00  0.00    +0.000 C 
ATOM      3  C   UNL     1       3.803   3.332  20.034  0.00  0.00    +0.000 C 
ATOM      4  C   UNL     1       4.709   3.648  18.838  0.00  0.00    +0.000 C 
ATOM      5  N   UNL     1       4.417   4.940  18.223  0.00  0.00    +0.000 N 
ATOM      6  C   UNL     1       5.339   5.794  17.629  0.00  0.00    +0.000 C 
ATOM      7  O   UNL     1       4.979   6.753  16.940  0.00  0.00    +0.000 OA
ATOM      8  C   UNL     1       3.000   5.160  17.921  0.00  0.00    +0.000 C 
ENDROOT
BRANCH   1   9
ATOM      9  N   UNL     1       2.515   6.232  20.081  0.00  0.00    +0.000 N 
ATOM     10  H   UNL     1       2.739   5.952  21.033  0.00  0.00    +0.000 HD
BRANCH   9  14
ATOM     11  C   UNL     1       0.874  10.093  19.555  0.00  0.00    +0.000 A 
ATOM     12  C   UNL     1       1.513   9.433  18.505  0.00  0.00    +0.000 A 
ATOM     13  C   UNL     1       2.047   8.149  18.692  0.00  0.00    +0.000 A 
ATOM     14  C   UNL     1       1.997   7.513  19.937  0.00  0.00    +0.000 A 
ATOM     15  C   UNL     1       1.332   8.183  20.970  0.00  0.00    +0.000 A 
ATOM     16  C   UNL     1       0.783   9.458  20.788  0.00  0.00    +0.000 A 
BRANCH  11  18
ATOM     17  C   UNL     1      -0.255  12.016  20.344  0.00  0.00    +0.000 C 
ATOM     18  O   UNL     1       0.394  11.342  19.271  0.00  0.00    +0.000 OA
ENDBRANCH  11  18
ENDBRANCH   9  14
ENDBRANCH   1   9
BRANCH   6  19
ATOM     19  C   UNL     1       6.816   5.574  17.896  0.00  0.00    +0.000 C 
BRANCH  19  20
ATOM     20  C   UNL     1       7.440   4.739  16.769  0.00  0.00    +0.000 C 
BRANCH  20  21
ATOM     21  O   UNL     1       7.437   5.522  15.573  0.00  0.00    +0.000 OA
BRANCH  21  22
ATOM     22  C   UNL     1       6.963   4.898  14.453  0.00  0.00    +0.000 A 
ATOM     23  C   UNL     1       7.757   5.042  13.311  0.00  0.00    +0.000 A 
ATOM     24  C   UNL     1       7.400   4.425  12.110  0.00  0.00    +0.000 A 
ATOM     25  C   UNL     1       6.253   3.641  12.051  0.00  0.00    +0.000 A 
ATOM     26  C   UNL     1       5.460   3.487  13.182  0.00  0.00    +0.000 A 
ATOM     27  C   UNL     1       5.814   4.108  14.385  0.00  0.00    +0.000 A 
ENDBRANCH  21  22
ENDBRANCH  20  21
ENDBRANCH  19  20
ENDBRANCH   6  19
TORSDOF 7
ENDMDL
MODEL 6
REMARK VINA RESULT:      -7.3      0.901      1.314
REMARK  Name = 
REMARK  8 active torsions:
REMARK  status: ('A' for Active; 'I' for Inactive)
REMARK    1  A    between atoms: C_1  and  O_2
REMARK    2  A    between atoms: O_2  and  C_3
REMARK    3  A    between atoms: C_6  and  N_7
REMARK    4  A    between atoms: N_7  and  C_8
REMARK    5  A    between atoms: C_13  and  C_15
REMARK    6  A    between atoms: C_15  and  C_16
REMARK    7  A    between atoms: C_16  and  O_17
REMARK    8  A    between atoms: O_17  and  C_18
REMARK                            x       y       z     vdW  Elec       q    Type
REMARK                         _______ _______ _______ _____ _____    ______ ____
ROOT
ATOM      1  C   UNL     1       1.515   4.328  20.961  0.00  0.00    +0.000 C 
ATOM      2  C   UNL     1       2.117   3.232  21.853  0.00  0.00    +0.000 C 
ATOM      3  C   UNL     1       3.297   2.482  21.220  0.00  0.00    +0.000 C 
ATOM      4  C   UNL     1       3.168   2.182  19.722  0.00  0.00    +0.000 C 
ATOM      5  N   UNL     1       2.545   3.270  18.970  0.00  0.00    +0.000 N 
ATOM      6  C   UNL     1       2.834   3.635  17.661  0.00  0.00    +0.000 C 
ATOM      7  O   UNL     1       2.109   4.412  17.034  0.00  0.00    +0.000 OA
ATOM      8  C   UNL     1       1.292   3.764  19.549  0.00  0.00    +0.000 C 
ENDROOT
BRANCH   1   9
ATOM      9  N   UNL     1       2.387   5.506  20.898  0.00  0.00    +0.000 N 
ATOM     10  H   UNL     1       3.101   5.535  21.621  0.00  0.00    +0.000 HD
BRANCH   9  14
ATOM     11  C   UNL     1       1.111   9.311  19.569  0.00  0.00    +0.000 A 
ATOM     12  C   UNL     1       0.739   8.825  20.822  0.00  0.00    +0.000 A 
ATOM     13  C   UNL     1       1.176   7.562  21.253  0.00  0.00    +0.000 A 
ATOM     14  C   UNL     1       1.952   6.740  20.431  0.00  0.00    +0.000 A 
ATOM     15  C   UNL     1       2.332   7.256  19.186  0.00  0.00    +0.000 A 
ATOM     16  C   UNL     1       1.913   8.521  18.755  0.00  0.00    +0.000 A 
BRANCH  11  18
ATOM     17  C   UNL     1      -0.365  10.577  18.221  0.00  0.00    +0.000 C 
ATOM     18  O   UNL     1       0.627  10.548  19.242  0.00  0.00    +0.000 OA
ENDBRANCH  11  18
ENDBRANCH   9  14
ENDBRANCH   1   9
BRANCH   6  19
ATOM     19  C   UNL     1       4.107   3.113  17.022  0.00  0.00    +0.000 C 
BRANCH  19  20
ATOM     20  C   UNL     1       4.773   4.216  16.188  0.00  0.00    +0.000 C 
BRANCH  20  21
ATOM     21  O   UNL     1       6.187   4.130  16.376  0.00  0.00    +0.000 OA
BRANCH  21  22
ATOM     22  C   UNL     1       6.760   5.158  17.072  0.00  0.00    +0.000 A 
ATOM     23  C   UNL     1       7.449   4.783  18.229  0.00  0.00    +0.000 A 
ATOM     24  C   UNL     1       8.106   5.736  19.011  0.00  0.00    +0.000 A 
ATOM     25  C   UNL     1       8.095   7.072  18.625  0.00  0.00    +0.000 A 
ATOM     26  C   UNL     1       7.417   7.455  17.473  0.00  0.00    +0.000 A 
ATOM     27  C   UNL     1       6.754   6.502  16.691  0.00  0.00    +0.000 A 
ENDBRANCH  21  22
ENDBRANCH  20  21
ENDBRANCH  19  20
ENDBRANCH   6  19
TORSDOF 7
ENDMDL
MODEL 7
REMARK VINA RESULT:      -7.1      0.845      1.281
REMARK  Name = 
REMARK  8 active torsions:
REMARK  status: ('A' for Active; 'I' for Inactive)
REMARK    1  A    between atoms: C_1  and  O_2
REMARK    2  A    between atoms: O_2  and  C_3
REMARK    3  A    between atoms: C_6  and  N_7
REMARK    4  A    between atoms: N_7  and  C_8
REMARK    5  A    between atoms: C_13  and  C_15
REMARK    6  A    between atoms: C_15  and  C_16
REMARK    7  A    between atoms: C_16  and  O_17
REMARK    8  A    between atoms: O_17  and  C_18
REMARK                            x       y       z     vdW  Elec       q    Type
REMARK                         _______ _______ _______ _____ _____    ______ ____
ROOT
ATOM      1  C   UNL     1       1.658   4.579  21.108  0.00  0.00    +0.000 C 
ATOM      2  C   UNL     1       2.375   3.442  21.850  0.00  0.00    +0.000 C 
ATOM      3  C   UNL     1       3.219   2.534  20.945  0.00  0.00    +0.000 C 
ATOM      4  C   UNL     1       2.612   2.211  19.575  0.00  0.00    +0.000 C 
ATOM      5  N   UNL     1       1.916   3.347  18.974  0.00  0.00    +0.000 N 
ATOM      6  C   UNL     1       1.836   3.637  17.617  0.00  0.00    +0.000 C 
ATOM      7  O   UNL     1       1.047   4.481  17.184  0.00  0.00    +0.000 OA
ATOM      8  C   UNL     1       0.959   4.009  19.864  0.00  0.00    +0.000 C 
ENDROOT
BRANCH   1   9
ATOM      9  N   UNL     1       2.595   5.637  20.715  0.00  0.00    +0.000 N 
ATOM     10  H   UNL     1       3.402   5.728  21.328  0.00  0.00    +0.000 HD
BRANCH   9  14
ATOM     11  C   UNL     1       1.411   9.244  18.854  0.00  0.00    +0.000 A 
ATOM     12  C   UNL     1       1.035   8.954  20.165  0.00  0.00    +0.000 A 
ATOM     13  C   UNL     1       1.441   7.755  20.773  0.00  0.00    +0.000 A 
ATOM     14  C   UNL     1       2.190   6.802  20.076  0.00  0.00    +0.000 A 
ATOM     15  C   UNL     1       2.576   7.124  18.769  0.00  0.00    +0.000 A 
ATOM     16  C   UNL     1       2.188   8.324  18.161  0.00  0.00    +0.000 A 
BRANCH  11  18
ATOM     17  C   UNL     1      -0.321  10.855  18.815  0.00  0.00    +0.000 C 
ATOM     18  O   UNL     1       0.959  10.434  18.353  0.00  0.00    +0.000 OA
ENDBRANCH  11  18
ENDBRANCH   9  14
ENDBRANCH   1   9
BRANCH   6  19
ATOM     19  C   UNL     1       2.792   2.943  16.665  0.00  0.00    +0.000 C 
BRANCH  19  20
ATOM     20  C   UNL     1       3.869   3.925  16.185  0.00  0.00    +0.000 C 
BRANCH  20  21
ATOM     21  O   UNL     1       5.144   3.437  16.608  0.00  0.00    +0.000 OA
BRANCH  21  22
ATOM     22  C   UNL     1       5.896   4.302  17.354  0.00  0.00    +0.000 A 
ATOM     23  C   UNL     1       5.454   4.495  18.666  0.00  0.00    +0.000 A 
ATOM     24  C   UNL     1       6.155   5.329  19.541  0.00  0.00    +0.000 A 
ATOM     25  C   UNL     1       7.317   5.959  19.111  0.00  0.00    +0.000 A 
ATOM     26  C   UNL     1       7.768   5.769  17.810  0.00  0.00    +0.000 A 
ATOM     27  C   UNL     1       7.065   4.937  16.931  0.00  0.00    +0.000 A 
ENDBRANCH  21  22
ENDBRANCH  20  21
ENDBRANCH  19  20
ENDBRANCH   6  19
TORSDOF 7
ENDMDL
MODEL 8
REMARK VINA RESULT:      -6.9      2.285      3.062
REMARK  Name = 
REMARK  8 active torsions:
REMARK  status: ('A' for Active; 'I' for Inactive)
REMARK    1  A    between atoms: C_1  and  O_2
REMARK    2  A    between atoms: O_2  and  C_3
REMARK    3  A    between atoms: C_6  and  N_7
REMARK    4  A    between atoms: N_7  and  C_8
REMARK    5  A    between atoms: C_13  and  C_15
REMARK    6  A    between atoms: C_15  and  C_16
REMARK    7  A    between atoms: C_16  and  O_17
REMARK    8  A    between atoms: O_17  and  C_18
REMARK                            x       y       z     vdW  Elec       q    Type
REMARK                         _______ _______ _______ _____ _____    ______ ____
ROOT
ATOM      1  C   UNL     1       1.625   4.646  20.140  0.00  0.00    +0.000 C 
ATOM      2  C   UNL     1       1.918   3.399  20.987  0.00  0.00    +0.000 C 
ATOM      3  C   UNL     1       3.344   2.855  20.834  0.00  0.00    +0.000 C 
ATOM      4  C   UNL     1       3.924   2.897  19.416  0.00  0.00    +0.000 C 
ATOM      5  N   UNL     1       3.551   4.102  18.679  0.00  0.00    +0.000 N 
ATOM      6  C   UNL     1       4.331   4.764  17.738  0.00  0.00    +0.000 C 
ATOM      7  O   UNL     1       3.856   5.636  17.006  0.00  0.00    +0.000 OA
ATOM      8  C   UNL     1       2.118   4.408  18.704  0.00  0.00    +0.000 C 
ENDROOT
BRANCH   1   9
ATOM      9  N   UNL     1       2.270   5.839  20.700  0.00  0.00    +0.000 N 
ATOM     10  H   UNL     1       2.671   5.700  21.624  0.00  0.00    +0.000 HD
BRANCH   9  14
ATOM     11  C   UNL     1       0.917   9.727  19.742  0.00  0.00    +0.000 A 
ATOM     12  C   UNL     1       1.702   8.998  18.849  0.00  0.00    +0.000 A 
ATOM     13  C   UNL     1       2.138   7.706  19.177  0.00  0.00    +0.000 A 
ATOM     14  C   UNL     1       1.841   7.129  20.416  0.00  0.00    +0.000 A 
ATOM     15  C   UNL     1       1.034   7.869  21.288  0.00  0.00    +0.000 A 
ATOM     16  C   UNL     1       0.582   9.154  20.962  0.00  0.00    +0.000 A 
BRANCH  11  18
ATOM     17  C   UNL     1       1.548  11.722  18.637  0.00  0.00    +0.000 C 
ATOM     18  O   UNL     1       0.550  10.979  19.329  0.00  0.00    +0.000 OA
ENDBRANCH  11  18
ENDBRANCH   9  14
ENDBRANCH   1   9
BRANCH   6  19
ATOM     19  C   UNL     1       5.813   4.446  17.665  0.00  0.00    +0.000 C 
BRANCH  19  20
ATOM     20  C   UNL     1       6.550   5.533  16.871  0.00  0.00    +0.000 C 
BRANCH  20  21
ATOM     21  O   UNL     1       7.520   4.899  16.033  0.00  0.00    +0.000 OA
BRANCH  21  22
ATOM     22  C   UNL     1       7.116   4.625  14.756  0.00  0.00    +0.000 A 
ATOM     23  C   UNL     1       7.870   5.236  13.749  0.00  0.00    +0.000 A 
ATOM     24  C   UNL     1       7.580   5.009  12.402  0.00  0.00    +0.000 A 
ATOM     25  C   UNL     1       6.543   4.149  12.054  0.00  0.00    +0.000 A 
ATOM     26  C   UNL     1       5.792   3.532  13.047  0.00  0.00    +0.000 A 
ATOM     27  C   UNL     1       6.078   3.762  14.398  0.00  0.00    +0.000 A 
ENDBRANCH  21  22
ENDBRANCH  20  21
ENDBRANCH  19  20
ENDBRANCH   6  19
TORSDOF 7
ENDMDL
MODEL 9
REMARK VINA RESULT:      -6.9      2.203      6.434
REMARK  Name = 
REMARK  8 active torsions:
REMARK  status: ('A' for Active; 'I' for Inactive)
REMARK    1  A    between atoms: C_1  and  O_2
REMARK    2  A    between atoms: O_2  and  C_3
REMARK    3  A    between atoms: C_6  and  N_7
REMARK    4  A    between atoms: N_7  and  C_8
REMARK    5  A    between atoms: C_13  and  C_15
REMARK    6  A    between atoms: C_15  and  C_16
REMARK    7  A    between atoms: C_16  and  O_17
REMARK    8  A    between atoms: O_17  and  C_18
REMARK                            x       y       z     vdW  Elec       q    Type
REMARK                         _______ _______ _______ _____ _____    ______ ____
ROOT
ATOM      1  C   UNL     1       3.510   2.589  18.367  0.00  0.00    +0.000 C 
ATOM      2  C   UNL     1       2.235   1.735  18.305  0.00  0.00    +0.000 C 
ATOM      3  C   UNL     1       0.945   2.509  18.605  0.00  0.00    +0.000 C 
ATOM      4  C   UNL     1       1.040   3.556  19.721  0.00  0.00    +0.000 C 
ATOM      5  N   UNL     1       2.308   4.283  19.719  0.00  0.00    +0.000 N 
ATOM      6  C   UNL     1       2.494   5.611  20.084  0.00  0.00    +0.000 C 
ATOM      7  O   UNL     1       3.622   6.077  20.266  0.00  0.00    +0.000 OA
ATOM      8  C   UNL     1       3.496   3.426  19.655  0.00  0.00    +0.000 C 
ENDROOT
BRANCH   1   9
ATOM      9  N   UNL     1       3.623   3.470  17.199  0.00  0.00    +0.000 N 
ATOM     10  H   UNL     1       3.231   3.081  16.345  0.00  0.00    +0.000 HD
BRANCH   9  14
ATOM     11  C   UNL     1       6.780   6.248  16.768  0.00  0.00    +0.000 A 
ATOM     12  C   UNL     1       5.449   6.663  16.749  0.00  0.00    +0.000 A 
ATOM     13  C   UNL     1       4.411   5.730  16.900  0.00  0.00    +0.000 A 
ATOM     14  C   UNL     1       4.673   4.363  17.028  0.00  0.00    +0.000 A 
ATOM     15  C   UNL     1       6.016   3.971  17.067  0.00  0.00    +0.000 A 
ATOM     16  C   UNL     1       7.058   4.896  16.931  0.00  0.00    +0.000 A 
BRANCH  11  18
ATOM     17  C   UNL     1       7.929   8.077  17.732  0.00  0.00    +0.000 C 
ATOM     18  O   UNL     1       7.715   7.233  16.605  0.00  0.00    +0.000 OA
ENDBRANCH  11  18
ENDBRANCH   9  14
ENDBRANCH   1   9
BRANCH   6  19
ATOM     19  C   UNL     1       1.281   6.515  20.190  0.00  0.00    +0.000 C 
BRANCH  19  20
ATOM     20  C   UNL     1       1.719   7.960  20.466  0.00  0.00    +0.000 C 
BRANCH  20  21
ATOM     21  O   UNL     1       1.387   8.281  21.819  0.00  0.00    +0.000 OA
BRANCH  21  22
ATOM     22  C   UNL     1       0.571   9.364  21.993  0.00  0.00    +0.000 A 
ATOM     23  C   UNL     1       0.542  10.265  20.925  0.00  0.00    +0.000 A 
ATOM     24  C   UNL     1      -0.277  11.395  20.965  0.00  0.00    +0.000 A 
ATOM     25  C   UNL     1      -1.090  11.619  22.070  0.00  0.00    +0.000 A 
ATOM     26  C   UNL     1      -1.073  10.727  23.135  0.00  0.00    +0.000 A 
ATOM     27  C   UNL     1      -0.249   9.596  23.099  0.00  0.00    +0.000 A 
ENDBRANCH  21  22
ENDBRANCH  20  21
ENDBRANCH  19  20
ENDBRANCH   6  19
TORSDOF 7
ENDMDL
