MODEL 1
REMARK VINA RESULT:      -9.1      0.000      0.000
REMARK  Name = 
REMARK  6 active torsions:
REMARK  status: ('A' for Active; 'I' for Inactive)
REMARK    1  A    between atoms: C_1  and  C_2
REMARK    2  A    between atoms: C_2  and  N_3
REMARK    3  A    between atoms: N_8  and  C_9
REMARK    4  A    between atoms: C_9  and  C_10
REMARK    5  A    between atoms: C_10  and  C_12
REMARK    6  A    between atoms: N_31  and  C_32
REMARK                            x       y       z     vdW  Elec       q    Type
REMARK                         _______ _______ _______ _____ _____    ______ ____
ROOT
ATOM      1  N   UNL     1       2.815   5.835  19.598  0.00  0.00    +0.000 N 
ATOM      2  C   UNL     1       2.669   7.084  19.004  0.00  0.00    +0.000 A 
ATOM      3  N   UNL     1       1.825   8.053  19.452  0.00  0.00    +0.000 N 
ATOM      4  C   UNL     1       1.509   8.292  20.857  0.00  0.00    +0.000 C 
ATOM      5  C   UNL     1       1.541   9.790  21.219  0.00  0.00    +0.000 C 
ATOM      6  N   UNL     1       0.775  10.670  20.320  0.00  0.00    +0.000 NA
ATOM      7  C   UNL     1       1.196  10.401  18.923  0.00  0.00    +0.000 C 
ATOM      8  C   UNL     1       1.142   8.921  18.482  0.00  0.00    +0.000 C 
ATOM      9  N   UNL     1       3.436   7.161  17.926  0.00  0.00    +0.000 NA
ATOM     10  C   UNL     1       4.128   5.992  17.870  0.00  0.00    +0.000 A 
ATOM     11  C   UNL     1       3.753   5.146  18.873  0.00  0.00    +0.000 A 
ATOM     12  C   UNL     1       4.286   3.837  19.013  0.00  0.00    +0.000 A 
ATOM     13  O   UNL     1       3.939   3.010  19.847  0.00  0.00    +0.000 OA
ATOM     14  N   UNL     1       5.259   3.562  18.088  0.00  0.00    +0.000 N 
ATOM     15  C   UNL     1       5.673   4.366  17.045  0.00  0.00    +0.000 A 
ATOM     16  O   UNL     1       6.530   3.935  16.273  0.00  0.00    +0.000 OA
ATOM     17  N   UNL     1       5.077   5.619  16.934  0.00  0.00    +0.000 N 
ATOM     18  C   UNL     1       5.459   6.507  15.854  0.00  0.00    +0.000 C 
ATOM     19  H   UNL     1       5.684   2.649  18.138  0.00  0.00    +0.000 HD
ENDROOT
BRANCH   1  21
ATOM     20  C   UNL     1       0.869   4.408  20.186  0.00  0.00    +0.000 C 
ATOM     21  C   UNL     1       2.046   5.240  20.675  0.00  0.00    +0.000 C 
ENDBRANCH   1  21
BRANCH   6  22
ATOM     22  C   UNL     1      -0.680  10.515  20.533  0.00  0.00    +0.000 C 
BRANCH  22  23
ATOM     23  C   UNL     1      -1.425  11.849  20.414  0.00  0.00    +0.000 C 
ATOM     24  O   UNL     1      -0.989  12.840  21.007  0.00  0.00    +0.000 OA
BRANCH  23  25
ATOM     25  C   UNL     1      -2.633  11.917  19.583  0.00  0.00    +0.000 A 
ATOM     26  C   UNL     1      -3.820  12.542  19.928  0.00  0.00    +0.000 A 
ATOM     27  N   UNL     1      -4.690  12.437  18.880  0.00  0.00    +0.000 N 
ATOM     28  C   UNL     1      -4.114  11.725  17.858  0.00  0.00    +0.000 A 
ATOM     29  C   UNL     1      -4.638  11.371  16.610  0.00  0.00    +0.000 A 
ATOM     30  C   UNL     1      -3.819  10.635  15.751  0.00  0.00    +0.000 A 
ATOM     31  C   UNL     1      -2.527  10.276  16.125  0.00  0.00    +0.000 A 
ATOM     32  C   UNL     1      -2.017  10.645  17.375  0.00  0.00    +0.000 A 
ATOM     33  C   UNL     1      -2.824  11.382  18.267  0.00  0.00    +0.000 A 
ATOM     34  H   UNL     1      -5.619  12.834  18.852  0.00  0.00    +0.000 HD
ENDBRANCH  23  25
ENDBRANCH  22  23
ENDBRANCH   6  22
TORSDOF 4
ENDMDL
MODEL 2
REMARK VINA RESULT:      -8.9      1.304      1.973
REMARK  Name = 
REMARK  6 active torsions:
REMARK  status: ('A' for Active; 'I' for Inactive)
REMARK    1  A    between atoms: C_1  and  C_2
REMARK    2  A    between atoms: C_2  and  N_3
REMARK    3  A    between atoms: N_8  and  C_9
REMARK    4  A    between atoms: C_9  and  C_10
REMARK    5  A    between atoms: C_10  and  C_12
REMARK    6  A    between atoms: N_31  and  C_32
REMARK                            x       y       z     vdW  Elec       q    Type
REMARK                         _______ _______ _______ _____ _____    ______ ____
ROOT
ATOM      1  N   UNL     1       3.197   5.802  19.299  0.00  0.00    +0.000 N 
ATOM      2  C   UNL     1       3.151   7.071  18.733  0.00  0.00    +0.000 A 
ATOM      3  N   UNL     1       2.130   7.954  18.912  0.00  0.00    +0.000 N 
ATOM      4  C   UNL     1       1.356   8.088  20.143  0.00  0.00    +0.000 C 
ATOM      5  C   UNL     1       1.147   9.560  20.548  0.00  0.00    +0.000 C 
ATOM      6  N   UNL     1       0.646  10.441  19.479  0.00  0.00    +0.000 NA
ATOM      7  C   UNL     1       1.518  10.284  18.289  0.00  0.00    +0.000 C 
ATOM      8  C   UNL     1       1.731   8.832  17.803  0.00  0.00    +0.000 C 
ATOM      9  N   UNL     1       4.218   7.263  17.971  0.00  0.00    +0.000 NA
ATOM     10  C   UNL     1       4.983   6.147  18.105  0.00  0.00    +0.000 A 
ATOM     11  C   UNL     1       4.372   5.221  18.899  0.00  0.00    +0.000 A 
ATOM     12  C   UNL     1       4.936   3.943  19.161  0.00  0.00    +0.000 A 
ATOM     13  O   UNL     1       4.405   3.047  19.804  0.00  0.00    +0.000 OA
ATOM     14  N   UNL     1       6.176   3.789  18.598  0.00  0.00    +0.000 N 
ATOM     15  C   UNL     1       6.840   4.679  17.777  0.00  0.00    +0.000 A 
ATOM     16  O   UNL     1       7.933   4.352  17.316  0.00  0.00    +0.000 OA
ATOM     17  N   UNL     1       6.212   5.894  17.520  0.00  0.00    +0.000 N 
ATOM     18  C   UNL     1       6.851   6.868  16.658  0.00  0.00    +0.000 C 
ATOM     19  H   UNL     1       6.634   2.904  18.752  0.00  0.00    +0.000 HD
ENDROOT
BRANCH   1  21
ATOM     20  C   UNL     1       1.324   4.175  19.172  0.00  0.00    +0.000 C 
ATOM     21  C   UNL     1       2.171   5.094  20.042  0.00  0.00    +0.000 C 
ENDBRANCH   1  21
BRANCH   6  22
ATOM     22  C   UNL     1      -0.782  10.178  19.195  0.00  0.00    +0.000 C 
BRANCH  22  23
ATOM     23  C   UNL     1      -1.583  11.473  19.021  0.00  0.00    +0.000 C 
ATOM     24  O   UNL     1      -1.168  12.515  19.537  0.00  0.00    +0.000 OA
BRANCH  23  25
ATOM     25  C   UNL     1      -2.818  11.443  18.229  0.00  0.00    +0.000 A 
ATOM     26  C   UNL     1      -2.929  11.020  16.915  0.00  0.00    +0.000 A 
ATOM     27  N   UNL     1      -4.240  11.090  16.541  0.00  0.00    +0.000 N 
ATOM     28  C   UNL     1      -4.999  11.582  17.573  0.00  0.00    +0.000 A 
ATOM     29  C   UNL     1      -6.376  11.827  17.632  0.00  0.00    +0.000 A 
ATOM     30  C   UNL     1      -6.891  12.334  18.828  0.00  0.00    +0.000 A 
ATOM     31  C   UNL     1      -6.062  12.578  19.919  0.00  0.00    +0.000 A 
ATOM     32  C   UNL     1      -4.688  12.321  19.843  0.00  0.00    +0.000 A 
ATOM     33  C   UNL     1      -4.138  11.816  18.647  0.00  0.00    +0.000 A 
ATOM     34  H   UNL     1      -4.606  10.810  15.641  0.00  0.00    +0.000 HD
ENDBRANCH  23  25
ENDBRANCH  22  23
ENDBRANCH   6  22
TORSDOF 4
ENDMDL
MODEL 3
REMARK VINA RESULT:      -8.6      2.128      3.809
REMARK  Name = 
REMARK  6 active torsions:
REMARK  status: ('A' for Active; 'I' for Inactive)
REMARK    1  A    between atoms: C_1  and  C_2
REMARK    2  A    between atoms: C_2  and  N_3
REMARK    3  A    between atoms: N_8  and  C_9
REMARK    4  A    between atoms: C_9  and  C_10
REMARK    5  A    between atoms: C_10  and  C_12
REMARK    6  A    between atoms: N_31  and  C_32
REMARK                            x       y       z     vdW  Elec       q    Type
REMARK                         _______ _______ _______ _____ _____    ______ ____
ROOT
ATOM      1  N   UNL     1       3.595   6.139  17.740  0.00  0.00    +0.000 N 
ATOM      2  C   UNL     1       2.627   6.499  18.672  0.00  0.00    +0.000 A 
ATOM      3  N   UNL     1       2.185   7.772  18.866  0.00  0.00    +0.000 N 
ATOM      4  C   UNL     1       2.048   8.772  17.810  0.00  0.00    +0.000 C 
ATOM      5  C   UNL     1       0.716   9.542  17.900  0.00  0.00    +0.000 C 
ATOM      6  N   UNL     1       0.396  10.090  19.228  0.00  0.00    +0.000 NA
ATOM      7  C   UNL     1       0.506   9.000  20.229  0.00  0.00    +0.000 C 
ATOM      8  C   UNL     1       1.838   8.218  20.222  0.00  0.00    +0.000 C 
ATOM      9  N   UNL     1       2.244   5.432  19.358  0.00  0.00    +0.000 NA
ATOM     10  C   UNL     1       2.911   4.377  18.819  0.00  0.00    +0.000 A 
ATOM     11  C   UNL     1       3.766   4.782  17.836  0.00  0.00    +0.000 A 
ATOM     12  C   UNL     1       4.620   3.883  17.143  0.00  0.00    +0.000 A 
ATOM     13  O   UNL     1       5.456   4.195  16.304  0.00  0.00    +0.000 OA
ATOM     14  N   UNL     1       4.429   2.579  17.519  0.00  0.00    +0.000 N 
ATOM     15  C   UNL     1       3.593   2.107  18.511  0.00  0.00    +0.000 A 
ATOM     16  O   UNL     1       3.585   0.900  18.750  0.00  0.00    +0.000 OA
ATOM     17  N   UNL     1       2.817   3.046  19.185  0.00  0.00    +0.000 N 
ATOM     18  C   UNL     1       1.926   2.617  20.246  0.00  0.00    +0.000 C 
ATOM     19  H   UNL     1       5.002   1.888  17.058  0.00  0.00    +0.000 HD
ENDROOT
BRANCH   1  21
ATOM     20  C   UNL     1       5.808   7.240  17.498  0.00  0.00    +0.000 C 
ATOM     21  C   UNL     1       4.426   6.990  16.910  0.00  0.00    +0.000 C 
ENDBRANCH   1  21
BRANCH   6  22
ATOM     22  C   UNL     1       1.245  11.260  19.543  0.00  0.00    +0.000 C 
BRANCH  22  23
ATOM     23  C   UNL     1       0.620  12.154  20.619  0.00  0.00    +0.000 C 
ATOM     24  O   UNL     1       1.311  12.534  21.567  0.00  0.00    +0.000 OA
BRANCH  23  25
ATOM     25  C   UNL     1      -0.788  12.548  20.484  0.00  0.00    +0.000 A 
ATOM     26  C   UNL     1      -1.393  13.012  19.328  0.00  0.00    +0.000 A 
ATOM     27  N   UNL     1      -2.718  13.225  19.582  0.00  0.00    +0.000 N 
ATOM     28  C   UNL     1      -2.998  12.942  20.895  0.00  0.00    +0.000 A 
ATOM     29  C   UNL     1      -4.210  13.025  21.588  0.00  0.00    +0.000 A 
ATOM     30  C   UNL     1      -4.209  12.667  22.938  0.00  0.00    +0.000 A 
ATOM     31  C   UNL     1      -3.042  12.238  23.564  0.00  0.00    +0.000 A 
ATOM     32  C   UNL     1      -1.839  12.154  22.853  0.00  0.00    +0.000 A 
ATOM     33  C   UNL     1      -1.809  12.516  21.490  0.00  0.00    +0.000 A 
ATOM     34  H   UNL     1      -3.399  13.535  18.902  0.00  0.00    +0.000 HD
ENDBRANCH  23  25
ENDBRANCH  22  23
ENDBRANCH   6  22
TORSDOF 4
ENDMDL
MODEL 4
REMARK VINA RESULT:      -8.5      1.855      3.051
REMARK  Name = 
REMARK  6 active torsions:
REMARK  status: ('A' for Active; 'I' for Inactive)
REMARK    1  A    between atoms: C_1  and  C_2
REMARK    2  A    between atoms: C_2  and  N_3
REMARK    3  A    between atoms: N_8  and  C_9
REMARK    4  A    between atoms: C_9  and  C_10
REMARK    5  A    between atoms: C_10  and  C_12
REMARK    6  A    between atoms: N_31  and  C_32
REMARK                            x       y       z     vdW  Elec       q    Type
REMARK                         _______ _______ _______ _____ _____    ______ ____
ROOT
ATOM      1  N   UNL     1       2.661   5.689  19.622  0.00  0.00    +0.000 N 
ATOM      2  C   UNL     1       2.564   6.990  19.140  0.00  0.00    +0.000 A 
ATOM      3  N   UNL     1       1.793   7.961  19.703  0.00  0.00    +0.000 N 
ATOM      4  C   UNL     1       1.544   8.096  21.135  0.00  0.00    +0.000 C 
ATOM      5  C   UNL     1       1.675   9.553  21.619  0.00  0.00    +0.000 C 
ATOM      6  N   UNL     1       0.928  10.547  20.830  0.00  0.00    +0.000 NA
ATOM      7  C   UNL     1       1.279  10.376  19.399  0.00  0.00    +0.000 C 
ATOM      8  C   UNL     1       1.124   8.944  18.839  0.00  0.00    +0.000 C 
ATOM      9  N   UNL     1       3.293   7.118  18.041  0.00  0.00    +0.000 NA
ATOM     10  C   UNL     1       3.914   5.923  17.859  0.00  0.00    +0.000 A 
ATOM     11  C   UNL     1       3.530   5.016  18.803  0.00  0.00    +0.000 A 
ATOM     12  C   UNL     1       3.993   3.673  18.810  0.00  0.00    +0.000 A 
ATOM     13  O   UNL     1       3.630   2.797  19.586  0.00  0.00    +0.000 OA
ATOM     14  N   UNL     1       4.913   3.427  17.825  0.00  0.00    +0.000 N 
ATOM     15  C   UNL     1       5.332   4.294  16.836  0.00  0.00    +0.000 A 
ATOM     16  O   UNL     1       6.133   3.885  15.996  0.00  0.00    +0.000 OA
ATOM     17  N   UNL     1       4.805   5.581  16.855  0.00  0.00    +0.000 N 
ATOM     18  C   UNL     1       5.196   6.537  15.838  0.00  0.00    +0.000 C 
ATOM     19  H   UNL     1       5.286   2.491  17.781  0.00  0.00    +0.000 HD
ENDROOT
BRANCH   1  21
ATOM     20  C   UNL     1       0.756   4.187  20.156  0.00  0.00    +0.000 C 
ATOM     21  C   UNL     1       1.900   5.046  20.677  0.00  0.00    +0.000 C 
ENDBRANCH   1  21
BRANCH   6  22
ATOM     22  C   UNL     1      -0.525  10.452  21.090  0.00  0.00    +0.000 C 
BRANCH  22  23
ATOM     23  C   UNL     1      -1.039  11.630  21.926  0.00  0.00    +0.000 C 
ATOM     24  O   UNL     1      -0.329  12.090  22.824  0.00  0.00    +0.000 OA
BRANCH  23  25
ATOM     25  C   UNL     1      -2.361  12.191  21.625  0.00  0.00    +0.000 A 
ATOM     26  C   UNL     1      -2.822  12.554  20.370  0.00  0.00    +0.000 A 
ATOM     27  N   UNL     1      -4.112  12.985  20.485  0.00  0.00    +0.000 N 
ATOM     28  C   UNL     1      -4.508  12.946  21.798  0.00  0.00    +0.000 A 
ATOM     29  C   UNL     1      -5.733  13.301  22.373  0.00  0.00    +0.000 A 
ATOM     30  C   UNL     1      -5.864  13.156  23.756  0.00  0.00    +0.000 A 
ATOM     31  C   UNL     1      -4.813  12.668  24.528  0.00  0.00    +0.000 A 
ATOM     32  C   UNL     1      -3.597  12.311  23.934  0.00  0.00    +0.000 A 
ATOM     33  C   UNL     1      -3.433  12.454  22.540  0.00  0.00    +0.000 A 
ATOM     34  H   UNL     1      -4.699  13.280  19.716  0.00  0.00    +0.000 HD
ENDBRANCH  23  25
ENDBRANCH  22  23
ENDBRANCH   6  22
TORSDOF 4
ENDMDL
MODEL 5
REMARK VINA RESULT:      -8.5      1.357      2.296
REMARK  Name = 
REMARK  6 active torsions:
REMARK  status: ('A' for Active; 'I' for Inactive)
REMARK    1  A    between atoms: C_1  and  C_2
REMARK    2  A    between atoms: C_2  and  N_3
REMARK    3  A    between atoms: N_8  and  C_9
REMARK    4  A    between atoms: C_9  and  C_10
REMARK    5  A    between atoms: C_10  and  C_12
REMARK    6  A    between atoms: N_31  and  C_32
REMARK                            x       y       z     vdW  Elec       q    Type
REMARK                         _______ _______ _______ _____ _____    ______ ____
ROOT
ATOM      1  N   UNL     1       3.153   5.808  18.988  0.00  0.00    +0.000 N 
ATOM      2  C   UNL     1       3.205   7.125  18.545  0.00  0.00    +0.000 A 
ATOM      3  N   UNL     1       2.193   8.024  18.691  0.00  0.00    +0.000 N 
ATOM      4  C   UNL     1       1.285   8.072  19.835  0.00  0.00    +0.000 C 
ATOM      5  C   UNL     1       1.068   9.507  20.352  0.00  0.00    +0.000 C 
ATOM      6  N   UNL     1       0.715  10.499  19.322  0.00  0.00    +0.000 NA
ATOM      7  C   UNL     1       1.715  10.421  18.228  0.00  0.00    +0.000 C 
ATOM      8  C   UNL     1       1.946   9.014  17.633  0.00  0.00    +0.000 C 
ATOM      9  N   UNL     1       4.357   7.348  17.929  0.00  0.00    +0.000 NA
ATOM     10  C   UNL     1       5.073   6.198  18.041  0.00  0.00    +0.000 A 
ATOM     11  C   UNL     1       4.352   5.225  18.669  0.00  0.00    +0.000 A 
ATOM     12  C   UNL     1       4.850   3.909  18.870  0.00  0.00    +0.000 A 
ATOM     13  O   UNL     1       4.226   2.977  19.361  0.00  0.00    +0.000 OA
ATOM     14  N   UNL     1       6.142   3.763  18.438  0.00  0.00    +0.000 N 
ATOM     15  C   UNL     1       6.918   4.700  17.786  0.00  0.00    +0.000 A 
ATOM     16  O   UNL     1       8.048   4.378  17.421  0.00  0.00    +0.000 OA
ATOM     17  N   UNL     1       6.355   5.955  17.577  0.00  0.00    +0.000 N 
ATOM     18  C   UNL     1       7.113   6.982  16.888  0.00  0.00    +0.000 C 
ATOM     19  H   UNL     1       6.557   2.851  18.558  0.00  0.00    +0.000 HD
ENDROOT
BRANCH   1  21
ATOM     20  C   UNL     1       2.121   4.878  21.047  0.00  0.00    +0.000 C 
ATOM     21  C   UNL     1       2.031   5.072  19.540  0.00  0.00    +0.000 C 
ENDBRANCH   1  21
BRANCH   6  22
ATOM     22  C   UNL     1      -0.676  10.315  18.856  0.00  0.00    +0.000 C 
BRANCH  22  23
ATOM     23  C   UNL     1      -1.353  11.648  18.520  0.00  0.00    +0.000 C 
ATOM     24  O   UNL     1      -0.655  12.636  18.276  0.00  0.00    +0.000 OA
BRANCH  23  25
ATOM     25  C   UNL     1      -2.819  11.711  18.482  0.00  0.00    +0.000 A 
ATOM     26  C   UNL     1      -3.620  11.332  17.417  0.00  0.00    +0.000 A 
ATOM     27  N   UNL     1      -4.928  11.487  17.777  0.00  0.00    +0.000 N 
ATOM     28  C   UNL     1      -5.011  11.992  19.050  0.00  0.00    +0.000 A 
ATOM     29  C   UNL     1      -6.140  12.313  19.812  0.00  0.00    +0.000 A 
ATOM     30  C   UNL     1      -5.930  12.815  21.098  0.00  0.00    +0.000 A 
ATOM     31  C   UNL     1      -4.643  12.981  21.601  0.00  0.00    +0.000 A 
ATOM     32  C   UNL     1      -3.525  12.648  20.827  0.00  0.00    +0.000 A 
ATOM     33  C   UNL     1      -3.706  12.146  19.521  0.00  0.00    +0.000 A 
ATOM     34  H   UNL     1      -5.723  11.254  17.197  0.00  0.00    +0.000 HD
ENDBRANCH  23  25
ENDBRANCH  22  23
ENDBRANCH   6  22
TORSDOF 4
ENDMDL
MODEL 6
REMARK VINA RESULT:      -8.5      1.276      1.397
REMARK  Name = 
REMARK  6 active torsions:
REMARK  status: ('A' for Active; 'I' for Inactive)
REMARK    1  A    between atoms: C_1  and  C_2
REMARK    2  A    between atoms: C_2  and  N_3
REMARK    3  A    between atoms: N_8  and  C_9
REMARK    4  A    between atoms: C_9  and  C_10
REMARK    5  A    between atoms: C_10  and  C_12
REMARK    6  A    between atoms: N_31  and  C_32
REMARK                            x       y       z     vdW  Elec       q    Type
REMARK                         _______ _______ _______ _____ _____    ______ ____
ROOT
ATOM      1  N   UNL     1       2.460   5.256  19.114  0.00  0.00    +0.000 N 
ATOM      2  C   UNL     1       2.538   6.617  18.843  0.00  0.00    +0.000 A 
ATOM      3  N   UNL     1       1.799   7.569  19.476  0.00  0.00    +0.000 N 
ATOM      4  C   UNL     1       1.400   7.512  20.880  0.00  0.00    +0.000 C 
ATOM      5  C   UNL     1       1.606   8.856  21.604  0.00  0.00    +0.000 C 
ATOM      6  N   UNL     1       1.048  10.033  20.916  0.00  0.00    +0.000 NA
ATOM      7  C   UNL     1       1.545  10.044  19.518  0.00  0.00    +0.000 C 
ATOM      8  C   UNL     1       1.326   8.738  18.721  0.00  0.00    +0.000 C 
ATOM      9  N   UNL     1       3.397   6.831  17.857  0.00  0.00    +0.000 NA
ATOM     10  C   UNL     1       3.924   5.617  17.546  0.00  0.00    +0.000 A 
ATOM     11  C   UNL     1       3.353   4.624  18.287  0.00  0.00    +0.000 A 
ATOM     12  C   UNL     1       3.688   3.254  18.123  0.00  0.00    +0.000 A 
ATOM     13  O   UNL     1       3.160   2.315  18.707  0.00  0.00    +0.000 OA
ATOM     14  N   UNL     1       4.689   3.062  17.208  0.00  0.00    +0.000 N 
ATOM     15  C   UNL     1       5.297   4.018  16.419  0.00  0.00    +0.000 A 
ATOM     16  O   UNL     1       6.148   3.657  15.607  0.00  0.00    +0.000 OA
ATOM     17  N   UNL     1       4.889   5.337  16.594  0.00  0.00    +0.000 N 
ATOM     18  C   UNL     1       5.480   6.388  15.789  0.00  0.00    +0.000 C 
ATOM     19  H   UNL     1       4.978   2.108  17.049  0.00  0.00    +0.000 HD
ENDROOT
BRANCH   1  21
ATOM     20  C   UNL     1       2.115   4.177  21.325  0.00  0.00    +0.000 C 
ATOM     21  C   UNL     1       1.527   4.546  19.970  0.00  0.00    +0.000 C 
ENDBRANCH   1  21
BRANCH   6  22
ATOM     22  C   UNL     1      -0.428  10.057  21.012  0.00  0.00    +0.000 C 
BRANCH  22  23
ATOM     23  C   UNL     1      -1.005  11.433  20.662  0.00  0.00    +0.000 C 
ATOM     24  O   UNL     1      -1.222  12.245  21.565  0.00  0.00    +0.000 OA
BRANCH  23  25
ATOM     25  C   UNL     1      -1.271  11.755  19.255  0.00  0.00    +0.000 A 
ATOM     26  C   UNL     1      -0.788  12.857  18.570  0.00  0.00    +0.000 A 
ATOM     27  N   UNL     1      -1.207  12.784  17.272  0.00  0.00    +0.000 N 
ATOM     28  C   UNL     1      -1.987  11.671  17.090  0.00  0.00    +0.000 A 
ATOM     29  C   UNL     1      -2.630  11.209  15.936  0.00  0.00    +0.000 A 
ATOM     30  C   UNL     1      -3.368  10.027  16.036  0.00  0.00    +0.000 A 
ATOM     31  C   UNL     1      -3.451   9.335  17.241  0.00  0.00    +0.000 A 
ATOM     32  C   UNL     1      -2.797   9.808  18.384  0.00  0.00    +0.000 A 
ATOM     33  C   UNL     1      -2.050  11.003  18.314  0.00  0.00    +0.000 A 
ATOM     34  H   UNL     1      -0.970  13.446  16.545  0.00  0.00    +0.000 HD
ENDBRANCH  23  25
ENDBRANCH  22  23
ENDBRANCH   6  22
TORSDOF 4
ENDMDL
MODEL 7
REMARK VINA RESULT:      -8.5      2.684      3.602
REMARK  Name = 
REMARK  6 active torsions:
REMARK  status: ('A' for Active; 'I' for Inactive)
REMARK    1  A    between atoms: C_1  and  C_2
REMARK    2  A    between atoms: C_2  and  N_3
REMARK    3  A    between atoms: N_8  and  C_9
REMARK    4  A    between atoms: C_9  and  C_10
REMARK    5  A    between atoms: C_10  and  C_12
REMARK    6  A    between atoms: N_31  and  C_32
REMARK                            x       y       z     vdW  Elec       q    Type
REMARK                         _______ _______ _______ _____ _____    ______ ____
ROOT
ATOM      1  N   UNL     1       2.787   5.614  19.664  0.00  0.00    +0.000 N 
ATOM      2  C   UNL     1       2.634   6.907  19.175  0.00  0.00    +0.000 A 
ATOM      3  N   UNL     1       1.854   7.859  19.755  0.00  0.00    +0.000 N 
ATOM      4  C   UNL     1       1.650   8.001  21.194  0.00  0.00    +0.000 C 
ATOM      5  C   UNL     1       1.752   9.466  21.660  0.00  0.00    +0.000 C 
ATOM      6  N   UNL     1       0.948  10.429  20.888  0.00  0.00    +0.000 NA
ATOM      7  C   UNL     1       1.257  10.255  19.447  0.00  0.00    +0.000 C 
ATOM      8  C   UNL     1       1.127   8.813  18.905  0.00  0.00    +0.000 C 
ATOM      9  N   UNL     1       3.322   7.046  18.050  0.00  0.00    +0.000 NA
ATOM     10  C   UNL     1       3.973   5.868  17.858  0.00  0.00    +0.000 A 
ATOM     11  C   UNL     1       3.649   4.959  18.822  0.00  0.00    +0.000 A 
ATOM     12  C   UNL     1       4.152   3.631  18.826  0.00  0.00    +0.000 A 
ATOM     13  O   UNL     1       3.843   2.753  19.621  0.00  0.00    +0.000 OA
ATOM     14  N   UNL     1       5.046   3.403  17.813  0.00  0.00    +0.000 N 
ATOM     15  C   UNL     1       5.405   4.272  16.802  0.00  0.00    +0.000 A 
ATOM     16  O   UNL     1       6.190   3.880  15.939  0.00  0.00    +0.000 OA
ATOM     17  N   UNL     1       4.839   5.544  16.828  0.00  0.00    +0.000 N 
ATOM     18  C   UNL     1       5.167   6.501  15.789  0.00  0.00    +0.000 C 
ATOM     19  H   UNL     1       5.446   2.478  17.764  0.00  0.00    +0.000 HD
ENDROOT
BRANCH   1  21
ATOM     20  C   UNL     1       0.867   4.167  20.288  0.00  0.00    +0.000 C 
ATOM     21  C   UNL     1       2.083   4.959  20.750  0.00  0.00    +0.000 C 
ENDBRANCH   1  21
BRANCH   6  22
ATOM     22  C   UNL     1      -0.491  10.293  21.198  0.00  0.00    +0.000 C 
BRANCH  22  23
ATOM     23  C   UNL     1      -0.843  10.878  22.570  0.00  0.00    +0.000 C 
ATOM     24  O   UNL     1      -0.800  10.151  23.567  0.00  0.00    +0.000 OA
BRANCH  23  25
ATOM     25  C   UNL     1      -1.208  12.296  22.665  0.00  0.00    +0.000 A 
ATOM     26  C   UNL     1      -0.436  13.363  22.236  0.00  0.00    +0.000 A 
ATOM     27  N   UNL     1      -1.131  14.519  22.446  0.00  0.00    +0.000 N 
ATOM     28  C   UNL     1      -2.338  14.244  23.036  0.00  0.00    +0.000 A 
ATOM     29  C   UNL     1      -3.358  15.115  23.434  0.00  0.00    +0.000 A 
ATOM     30  C   UNL     1      -4.498  14.553  24.016  0.00  0.00    +0.000 A 
ATOM     31  C   UNL     1      -4.612  13.176  24.184  0.00  0.00    +0.000 A 
ATOM     32  C   UNL     1      -3.584  12.319  23.774  0.00  0.00    +0.000 A 
ATOM     33  C   UNL     1      -2.418  12.858  23.190  0.00  0.00    +0.000 A 
ATOM     34  H   UNL     1      -0.812  15.445  22.194  0.00  0.00    +0.000 HD
ENDBRANCH  23  25
ENDBRANCH  22  23
ENDBRANCH   6  22
TORSDOF 4
ENDMDL
MODEL 8
REMARK VINA RESULT:      -8.4      1.895      2.985
REMARK  Name = 
REMARK  6 active torsions:
REMARK  status: ('A' for Active; 'I' for Inactive)
REMARK    1  A    between atoms: C_1  and  C_2
REMARK    2  A    between atoms: C_2  and  N_3
REMARK    3  A    between atoms: N_8  and  C_9
REMARK    4  A    between atoms: C_9  and  C_10
REMARK    5  A    between atoms: C_10  and  C_12
REMARK    6  A    between atoms: N_31  and  C_32
REMARK                            x       y       z     vdW  Elec       q    Type
REMARK                         _______ _______ _______ _____ _____    ______ ____
ROOT
ATOM      1  N   UNL     1       3.334   5.745  19.348  0.00  0.00    +0.000 N 
ATOM      2  C   UNL     1       3.232   7.006  18.771  0.00  0.00    +0.000 A 
ATOM      3  N   UNL     1       2.199   7.866  18.986  0.00  0.00    +0.000 N 
ATOM      4  C   UNL     1       1.476   7.996  20.248  0.00  0.00    +0.000 C 
ATOM      5  C   UNL     1       1.249   9.468  20.645  0.00  0.00    +0.000 C 
ATOM      6  N   UNL     1       0.680  10.323  19.590  0.00  0.00    +0.000 NA
ATOM      7  C   UNL     1       1.503  10.173  18.364  0.00  0.00    +0.000 C 
ATOM      8  C   UNL     1       1.730   8.721  17.886  0.00  0.00    +0.000 C 
ATOM      9  N   UNL     1       4.260   7.215  17.961  0.00  0.00    +0.000 NA
ATOM     10  C   UNL     1       5.057   6.119  18.073  0.00  0.00    +0.000 A 
ATOM     11  C   UNL     1       4.505   5.188  18.903  0.00  0.00    +0.000 A 
ATOM     12  C   UNL     1       5.111   3.928  19.154  0.00  0.00    +0.000 A 
ATOM     13  O   UNL     1       4.631   3.026  19.830  0.00  0.00    +0.000 OA
ATOM     14  N   UNL     1       6.328   3.796  18.538  0.00  0.00    +0.000 N 
ATOM     15  C   UNL     1       6.934   4.692  17.680  0.00  0.00    +0.000 A 
ATOM     16  O   UNL     1       8.013   4.386  17.174  0.00  0.00    +0.000 OA
ATOM     17  N   UNL     1       6.265   5.889  17.438  0.00  0.00    +0.000 N 
ATOM     18  C   UNL     1       6.841   6.868  16.537  0.00  0.00    +0.000 C 
ATOM     19  H   UNL     1       6.815   2.924  18.682  0.00  0.00    +0.000 HD
ENDROOT
BRANCH   1  21
ATOM     20  C   UNL     1       1.389   4.200  19.305  0.00  0.00    +0.000 C 
ATOM     21  C   UNL     1       2.359   5.022  20.143  0.00  0.00    +0.000 C 
ENDBRANCH   1  21
BRANCH   6  22
ATOM     22  C   UNL     1      -0.752  10.022  19.372  0.00  0.00    +0.000 C 
BRANCH  22  23
ATOM     23  C   UNL     1      -1.467  11.144  18.611  0.00  0.00    +0.000 C 
ATOM     24  O   UNL     1      -2.180  10.860  17.645  0.00  0.00    +0.000 OA
BRANCH  23  25
ATOM     25  C   UNL     1      -1.296  12.530  19.063  0.00  0.00    +0.000 A 
ATOM     26  C   UNL     1      -0.583  13.516  18.403  0.00  0.00    +0.000 A 
ATOM     27  N   UNL     1      -0.697  14.683  19.104  0.00  0.00    +0.000 N 
ATOM     28  C   UNL     1      -1.446  14.482  20.236  0.00  0.00    +0.000 A 
ATOM     29  C   UNL     1      -1.808  15.386  21.240  0.00  0.00    +0.000 A 
ATOM     30  C   UNL     1      -2.590  14.905  22.292  0.00  0.00    +0.000 A 
ATOM     31  C   UNL     1      -2.999  13.575  22.331  0.00  0.00    +0.000 A 
ATOM     32  C   UNL     1      -2.633  12.685  21.314  0.00  0.00    +0.000 A 
ATOM     33  C   UNL     1      -1.837  13.142  20.242  0.00  0.00    +0.000 A 
ATOM     34  H   UNL     1      -0.299  15.570  18.828  0.00  0.00    +0.000 HD
ENDBRANCH  23  25
ENDBRANCH  22  23
ENDBRANCH   6  22
TORSDOF 4
ENDMDL
MODEL 9
REMARK VINA RESULT:      -8.4      2.045      2.861
REMARK  Name = 
REMARK  6 active torsions:
REMARK  status: ('A' for Active; 'I' for Inactive)
REMARK    1  A    between atoms: C_1  and  C_2
REMARK    2  A    between atoms: C_2  and  N_3
REMARK    3  A    between atoms: N_8  and  C_9
REMARK    4  A    between atoms: C_9  and  C_10
REMARK    5  A    between atoms: C_10  and  C_12
REMARK    6  A    between atoms: N_31  and  C_32
REMARK                            x       y       z     vdW  Elec       q    Type
REMARK                         _______ _______ _______ _____ _____    ______ ____
ROOT
ATOM      1  N   UNL     1       3.257   5.732  19.315  0.00  0.00    +0.000 N 
ATOM      2  C   UNL     1       3.181   7.009  18.769  0.00  0.00    +0.000 A 
ATOM      3  N   UNL     1       2.152   7.874  18.981  0.00  0.00    +0.000 N 
ATOM      4  C   UNL     1       1.400   7.979  20.229  0.00  0.00    +0.000 C 
ATOM      5  C   UNL     1       1.178   9.442  20.659  0.00  0.00    +0.000 C 
ATOM      6  N   UNL     1       0.643  10.330  19.613  0.00  0.00    +0.000 NA
ATOM      7  C   UNL     1       1.493  10.203  18.404  0.00  0.00    +0.000 C 
ATOM      8  C   UNL     1       1.718   8.761  17.893  0.00  0.00    +0.000 C 
ATOM      9  N   UNL     1       4.230   7.227  17.989  0.00  0.00    +0.000 NA
ATOM     10  C   UNL     1       5.014   6.121  18.092  0.00  0.00    +0.000 A 
ATOM     11  C   UNL     1       4.433   5.174  18.884  0.00  0.00    +0.000 A 
ATOM     12  C   UNL     1       5.020   3.902  19.116  0.00  0.00    +0.000 A 
ATOM     13  O   UNL     1       4.515   2.989  19.757  0.00  0.00    +0.000 OA
ATOM     14  N   UNL     1       6.250   3.774  18.527  0.00  0.00    +0.000 N 
ATOM     15  C   UNL     1       6.885   4.685  17.706  0.00  0.00    +0.000 A 
ATOM     16  O   UNL     1       7.973   4.381  17.218  0.00  0.00    +0.000 OA
ATOM     17  N   UNL     1       6.234   5.894  17.479  0.00  0.00    +0.000 N 
ATOM     18  C   UNL     1       6.841   6.890  16.618  0.00  0.00    +0.000 C 
ATOM     19  H   UNL     1       6.725   2.893  18.659  0.00  0.00    +0.000 HD
ENDROOT
BRANCH   1  21
ATOM     20  C   UNL     1       1.347   4.149  19.191  0.00  0.00    +0.000 C 
ATOM     21  C   UNL     1       2.256   4.999  20.068  0.00  0.00    +0.000 C 
ENDBRANCH   1  21
BRANCH   6  22
ATOM     22  C   UNL     1      -0.786  10.050  19.353  0.00  0.00    +0.000 C 
BRANCH  22  23
ATOM     23  C   UNL     1      -1.468  11.191  18.591  0.00  0.00    +0.000 C 
ATOM     24  O   UNL     1      -1.872  10.995  17.442  0.00  0.00    +0.000 OA
BRANCH  23  25
ATOM     25  C   UNL     1      -1.637  12.488  19.257  0.00  0.00    +0.000 A 
ATOM     26  C   UNL     1      -2.722  12.868  20.030  0.00  0.00    +0.000 A 
ATOM     27  N   UNL     1      -2.493  14.122  20.520  0.00  0.00    +0.000 N 
ATOM     28  C   UNL     1      -1.291  14.596  20.060  0.00  0.00    +0.000 A 
ATOM     29  C   UNL     1      -0.664  15.825  20.298  0.00  0.00    +0.000 A 
ATOM     30  C   UNL     1       0.577  16.044  19.697  0.00  0.00    +0.000 A 
ATOM     31  C   UNL     1       1.168  15.070  18.897  0.00  0.00    +0.000 A 
ATOM     32  C   UNL     1       0.530  13.844  18.676  0.00  0.00    +0.000 A 
ATOM     33  C   UNL     1      -0.728  13.597  19.264  0.00  0.00    +0.000 A 
ATOM     34  H   UNL     1      -3.112  14.628  21.139  0.00  0.00    +0.000 HD
ENDBRANCH  23  25
ENDBRANCH  22  23
ENDBRANCH   6  22
TORSDOF 4
ENDMDL
