MODEL 1
REMARK VINA RESULT:      -6.9      0.000      0.000
REMARK  Name = 
REMARK  12 active torsions:
REMARK  status: ('A' for Active; 'I' for Inactive)
REMARK    1  A    between atoms: C_1  and  C_2
REMARK    2  A    between atoms: C_2  and  C_3
REMARK    3  A    between atoms: C_2  and  C_4
REMARK    4  A    between atoms: C_2  and  N_5
REMARK    5  A    between atoms: C_6  and  C_8
REMARK    6  A    between atoms: C_8  and  C_9
REMARK    7  A    between atoms: C_8  and  N_14
REMARK    8  A    between atoms: N_14  and  C_15
REMARK    9  A    between atoms: C_15  and  C_16
REMARK   10  A    between atoms: C_21  and  C_23
REMARK   11  A    between atoms: C_23  and  N_24
REMARK   12  A    between atoms: C_27  and  C_28
REMARK                            x       y       z     vdW  Elec       q    Type
REMARK                         _______ _______ _______ _____ _____    ______ ____
ROOT
ATOM      1  N   UNL     1       0.029  11.255  19.473  0.00  0.00    +0.000 N 
ATOM      2  C   UNL     1       1.232  10.940  18.848  0.00  0.00    +0.000 C 
ATOM      3  O   UNL     1       2.254  11.595  19.087  0.00  0.00    +0.000 OA
ENDROOT
BRANCH   1   4
ATOM      4  C   UNL     1      -0.105  12.545  20.200  0.00  0.00    +0.000 C 
BRANCH   4   5
ATOM      5  C   UNL     1      -1.199  12.454  21.260  0.00  0.00    +0.000 A 
ATOM      6  C   UNL     1      -1.217  11.790  22.472  0.00  0.00    +0.000 A 
ATOM      7  C   UNL     1      -2.457  11.927  23.163  0.00  0.00    +0.000 A 
ATOM      8  C   UNL     1      -3.353  12.708  22.473  0.00  0.00    +0.000 A 
ATOM      9  S   UNL     1      -2.703  13.261  20.994  0.00  0.00    +0.000 S 
ENDBRANCH   4   5
BRANCH   4  11
ATOM     10  N   UNL     1       0.330  15.060  20.137  0.00  0.00    +0.000 N 
ATOM     11  C   UNL     1      -0.122  13.937  19.475  0.00  0.00    +0.000 C 
ATOM     12  O   UNL     1      -0.449  13.987  18.283  0.00  0.00    +0.000 OA
ATOM     13  H   UNL     1       0.742  14.906  21.060  0.00  0.00    +0.000 HD
BRANCH  10  15
ATOM     14  C   UNL     1      -0.853  16.815  18.825  0.00  0.00    +0.000 C 
ATOM     15  C   UNL     1       0.463  16.398  19.508  0.00  0.00    +0.000 C 
ATOM     16  C   UNL     1       1.606  16.426  18.471  0.00  0.00    +0.000 C 
ATOM     17  C   UNL     1       0.781  17.450  20.587  0.00  0.00    +0.000 C 
ENDBRANCH  10  15
ENDBRANCH   4  11
ENDBRANCH   1   4
BRANCH   1  18
ATOM     18  C   UNL     1      -1.234  10.545  19.179  0.00  0.00    +0.000 C 
BRANCH  18  19
ATOM     19  C   UNL     1      -1.985  10.954  17.908  0.00  0.00    +0.000 C 
ATOM     20  C   UNL     1      -3.483  11.124  18.036  0.00  0.00    +0.000 C 
ATOM     21  C   UNL     1      -3.867  11.268  16.581  0.00  0.00    +0.000 C 
ATOM     22  C   UNL     1      -2.885  10.341  15.876  0.00  0.00    +0.000 C 
ATOM     23  O   UNL     1      -1.828  10.038  16.814  0.00  0.00    +0.000 OA
ENDBRANCH  18  19
ENDBRANCH   1  18
BRANCH   2  24
ATOM     24  C   UNL     1       1.311   9.733  17.932  0.00  0.00    +0.000 C 
BRANCH  24  25
ATOM     25  N   UNL     1       1.947   8.582  18.546  0.00  0.00    +0.000 N 
ATOM     26  N   UNL     1       1.767   8.284  19.846  0.00  0.00    +0.000 NA
ATOM     27  N   UNL     1       2.135   7.012  19.961  0.00  0.00    +0.000 NA
ATOM     28  C   UNL     1       2.510   6.591  18.711  0.00  0.00    +0.000 A 
ATOM     29  N   UNL     1       2.432   7.568  17.788  0.00  0.00    +0.000 NA
BRANCH  28  30
ATOM     30  C   UNL     1       2.866   5.174  18.386  0.00  0.00    +0.000 A 
ATOM     31  C   UNL     1       2.027   4.283  17.747  0.00  0.00    +0.000 A 
ATOM     32  C   UNL     1       2.583   2.970  17.680  0.00  0.00    +0.000 A 
ATOM     33  C   UNL     1       3.835   2.912  18.251  0.00  0.00    +0.000 A 
ATOM     34  S   UNL     1       4.351   4.445  18.816  0.00  0.00    +0.000 S 
ENDBRANCH  28  30
ENDBRANCH  24  25
ENDBRANCH   2  24
TORSDOF 9
ENDMDL
MODEL 2
REMARK VINA RESULT:      -6.7      5.044      9.037
REMARK  Name = 
REMARK  12 active torsions:
REMARK  status: ('A' for Active; 'I' for Inactive)
REMARK    1  A    between atoms: C_1  and  C_2
REMARK    2  A    between atoms: C_2  and  C_3
REMARK    3  A    between atoms: C_2  and  C_4
REMARK    4  A    between atoms: C_2  and  N_5
REMARK    5  A    between atoms: C_6  and  C_8
REMARK    6  A    between atoms: C_8  and  C_9
REMARK    7  A    between atoms: C_8  and  N_14
REMARK    8  A    between atoms: N_14  and  C_15
REMARK    9  A    between atoms: C_15  and  C_16
REMARK   10  A    between atoms: C_21  and  C_23
REMARK   11  A    between atoms: C_23  and  N_24
REMARK   12  A    between atoms: C_27  and  C_28
REMARK                            x       y       z     vdW  Elec       q    Type
REMARK                         _______ _______ _______ _____ _____    ______ ____
ROOT
ATOM      1  N   UNL     1       5.006   5.866  18.204  0.00  0.00    +0.000 N 
ATOM      2  C   UNL     1       6.287   5.765  18.741  0.00  0.00    +0.000 C 
ATOM      3  O   UNL     1       6.450   5.391  19.909  0.00  0.00    +0.000 OA
ENDROOT
BRANCH   1   4
ATOM      4  C   UNL     1       3.825   5.809  19.106  0.00  0.00    +0.000 C 
BRANCH   4   5
ATOM      5  C   UNL     1       3.100   4.474  18.959  0.00  0.00    +0.000 A 
ATOM      6  C   UNL     1       1.958   4.150  18.253  0.00  0.00    +0.000 A 
ATOM      7  C   UNL     1       1.581   2.782  18.402  0.00  0.00    +0.000 A 
ATOM      8  C   UNL     1       2.456   2.087  19.202  0.00  0.00    +0.000 A 
ATOM      9  S   UNL     1       3.714   3.084  19.781  0.00  0.00    +0.000 S 
ENDBRANCH   4   5
BRANCH   4  11
ATOM     10  N   UNL     1       2.180   7.204  20.472  0.00  0.00    +0.000 N 
ATOM     11  C   UNL     1       2.813   6.998  19.263  0.00  0.00    +0.000 C 
ATOM     12  O   UNL     1       2.675   7.795  18.327  0.00  0.00    +0.000 OA
ATOM     13  H   UNL     1       2.476   6.605  21.245  0.00  0.00    +0.000 HD
BRANCH  10  15
ATOM     14  C   UNL     1      -0.149   7.895  21.017  0.00  0.00    +0.000 C 
ATOM     15  C   UNL     1       1.297   8.361  20.761  0.00  0.00    +0.000 C 
ATOM     16  C   UNL     1       1.304   9.384  19.605  0.00  0.00    +0.000 C 
ATOM     17  C   UNL     1       1.784   9.082  22.032  0.00  0.00    +0.000 C 
ENDBRANCH  10  15
ENDBRANCH   4  11
ENDBRANCH   1   4
BRANCH   1  18
ATOM     18  C   UNL     1       4.751   6.362  16.835  0.00  0.00    +0.000 C 
BRANCH  18  19
ATOM     19  C   UNL     1       5.136   5.437  15.675  0.00  0.00    +0.000 C 
ATOM     20  C   UNL     1       5.448   4.001  16.035  0.00  0.00    +0.000 C 
ATOM     21  C   UNL     1       6.007   3.506  14.721  0.00  0.00    +0.000 C 
ATOM     22  C   UNL     1       6.740   4.726  14.181  0.00  0.00    +0.000 C 
ATOM     23  O   UNL     1       6.287   5.872  14.936  0.00  0.00    +0.000 OA
ENDBRANCH  18  19
ENDBRANCH   1  18
BRANCH   2  24
ATOM     24  C   UNL     1       7.495   6.031  17.862  0.00  0.00    +0.000 C 
BRANCH  24  25
ATOM     25  N   UNL     1       7.844   7.436  17.769  0.00  0.00    +0.000 N 
ATOM     26  N   UNL     1       7.021   8.332  17.194  0.00  0.00    +0.000 NA
ATOM     27  N   UNL     1       7.443   9.515  17.630  0.00  0.00    +0.000 NA
ATOM     28  C   UNL     1       8.500   9.277  18.469  0.00  0.00    +0.000 A 
ATOM     29  N   UNL     1       8.806   7.969  18.562  0.00  0.00    +0.000 NA
BRANCH  28  30
ATOM     30  C   UNL     1       9.176  10.342  19.275  0.00  0.00    +0.000 A 
ATOM     31  C   UNL     1       9.077  10.466  20.646  0.00  0.00    +0.000 A 
ATOM     32  C   UNL     1       9.724  11.643  21.131  0.00  0.00    +0.000 A 
ATOM     33  C   UNL     1      10.309  12.363  20.114  0.00  0.00    +0.000 A 
ATOM     34  S   UNL     1      10.122  11.592  18.595  0.00  0.00    +0.000 S 
ENDBRANCH  28  30
ENDBRANCH  24  25
ENDBRANCH   2  24
TORSDOF 9
ENDMDL
MODEL 3
REMARK VINA RESULT:      -6.7      1.991      4.666
REMARK  Name = 
REMARK  12 active torsions:
REMARK  status: ('A' for Active; 'I' for Inactive)
REMARK    1  A    between atoms: C_1  and  C_2
REMARK    2  A    between atoms: C_2  and  C_3
REMARK    3  A    between atoms: C_2  and  C_4
REMARK    4  A    between atoms: C_2  and  N_5
REMARK    5  A    between atoms: C_6  and  C_8
REMARK    6  A    between atoms: C_8  and  C_9
REMARK    7  A    between atoms: C_8  and  N_14
REMARK    8  A    between atoms: N_14  and  C_15
REMARK    9  A    between atoms: C_15  and  C_16
REMARK   10  A    between atoms: C_21  and  C_23
REMARK   11  A    between atoms: C_23  and  N_24
REMARK   12  A    between atoms: C_27  and  C_28
REMARK                            x       y       z     vdW  Elec       q    Type
REMARK                         _______ _______ _______ _____ _____    ______ ____
ROOT
ATOM      1  N   UNL     1       1.031  10.963  19.070  0.00  0.00    +0.000 N 
ATOM      2  C   UNL     1       1.412   9.766  18.472  0.00  0.00    +0.000 C 
ATOM      3  O   UNL     1       1.178   9.560  17.274  0.00  0.00    +0.000 OA
ENDROOT
BRANCH   1   4
ATOM      4  C   UNL     1       0.093  11.873  18.361  0.00  0.00    +0.000 C 
BRANCH   4   5
ATOM      5  C   UNL     1       0.274  13.311  18.838  0.00  0.00    +0.000 A 
ATOM      6  C   UNL     1      -0.609  14.157  19.482  0.00  0.00    +0.000 A 
ATOM      7  C   UNL     1      -0.060  15.450  19.729  0.00  0.00    +0.000 A 
ATOM      8  C   UNL     1       1.236  15.557  19.288  0.00  0.00    +0.000 A 
ATOM      9  S   UNL     1       1.781  14.110  18.566  0.00  0.00    +0.000 S 
ENDBRANCH   4   5
BRANCH   4  11
ATOM     10  N   UNL     1      -1.837  11.045  16.909  0.00  0.00    +0.000 N 
ATOM     11  C   UNL     1      -1.422  11.530  18.133  0.00  0.00    +0.000 C 
ATOM     12  O   UNL     1      -2.203  11.604  19.088  0.00  0.00    +0.000 OA
ATOM     13  H   UNL     1      -1.102  10.852  16.225  0.00  0.00    +0.000 HD
BRANCH  10  15
ATOM     14  C   UNL     1      -3.342  10.093  15.169  0.00  0.00    +0.000 C 
ATOM     15  C   UNL     1      -3.218  10.583  16.624  0.00  0.00    +0.000 C 
ATOM     16  C   UNL     1      -4.254  11.699  16.875  0.00  0.00    +0.000 C 
ATOM     17  C   UNL     1      -3.571   9.399  17.545  0.00  0.00    +0.000 C 
ENDBRANCH  10  15
ENDBRANCH   4  11
ENDBRANCH   1   4
BRANCH   1  18
ATOM     18  C   UNL     1       1.232  11.237  20.509  0.00  0.00    +0.000 C 
BRANCH  18  19
ATOM     19  C   UNL     1       0.234  10.605  21.485  0.00  0.00    +0.000 C 
ATOM     20  C   UNL     1      -0.605  11.562  22.303  0.00  0.00    +0.000 C 
ATOM     21  C   UNL     1      -1.243  10.601  23.279  0.00  0.00    +0.000 C 
ATOM     22  C   UNL     1      -0.146   9.571  23.510  0.00  0.00    +0.000 C 
ATOM     23  O   UNL     1       0.835   9.743  22.463  0.00  0.00    +0.000 OA
ENDBRANCH  18  19
ENDBRANCH   1  18
BRANCH   2  24
ATOM     24  C   UNL     1       2.195   8.741  19.271  0.00  0.00    +0.000 C 
BRANCH  24  25
ATOM     25  N   UNL     1       2.534   7.552  18.511  0.00  0.00    +0.000 N 
ATOM     26  N   UNL     1       3.635   7.495  17.740  0.00  0.00    +0.000 NA
ATOM     27  N   UNL     1       3.845   6.198  17.534  0.00  0.00    +0.000 NA
ATOM     28  C   UNL     1       2.861   5.524  18.210  0.00  0.00    +0.000 A 
ATOM     29  N   UNL     1       1.990   6.349  18.821  0.00  0.00    +0.000 NA
BRANCH  28  30
ATOM     30  C   UNL     1       2.818   4.034  18.342  0.00  0.00    +0.000 A 
ATOM     31  C   UNL     1       3.888   3.196  18.097  0.00  0.00    +0.000 A 
ATOM     32  C   UNL     1       3.526   1.817  18.182  0.00  0.00    +0.000 A 
ATOM     33  C   UNL     1       2.197   1.654  18.508  0.00  0.00    +0.000 A 
ATOM     34  S   UNL     1       1.413   3.156  18.761  0.00  0.00    +0.000 S 
ENDBRANCH  28  30
ENDBRANCH  24  25
ENDBRANCH   2  24
TORSDOF 9
ENDMDL
MODEL 4
REMARK VINA RESULT:      -6.7      3.425      9.194
REMARK  Name = 
REMARK  12 active torsions:
REMARK  status: ('A' for Active; 'I' for Inactive)
REMARK    1  A    between atoms: C_1  and  C_2
REMARK    2  A    between atoms: C_2  and  C_3
REMARK    3  A    between atoms: C_2  and  C_4
REMARK    4  A    between atoms: C_2  and  N_5
REMARK    5  A    between atoms: C_6  and  C_8
REMARK    6  A    between atoms: C_8  and  C_9
REMARK    7  A    between atoms: C_8  and  N_14
REMARK    8  A    between atoms: N_14  and  C_15
REMARK    9  A    between atoms: C_15  and  C_16
REMARK   10  A    between atoms: C_21  and  C_23
REMARK   11  A    between atoms: C_23  and  N_24
REMARK   12  A    between atoms: C_27  and  C_28
REMARK                            x       y       z     vdW  Elec       q    Type
REMARK                         _______ _______ _______ _____ _____    ______ ____
ROOT
ATOM      1  N   UNL     1       2.567   6.821  18.801  0.00  0.00    +0.000 N 
ATOM      2  C   UNL     1       2.071   8.107  18.608  0.00  0.00    +0.000 C 
ATOM      3  O   UNL     1       1.991   8.585  17.470  0.00  0.00    +0.000 OA
ENDROOT
BRANCH   1   4
ATOM      4  C   UNL     1       3.268   6.129  17.687  0.00  0.00    +0.000 C 
BRANCH   4   5
ATOM      5  C   UNL     1       2.852   4.662  17.617  0.00  0.00    +0.000 A 
ATOM      6  C   UNL     1       1.600   4.094  17.487  0.00  0.00    +0.000 A 
ATOM      7  C   UNL     1       1.634   2.667  17.497  0.00  0.00    +0.000 A 
ATOM      8  C   UNL     1       2.913   2.179  17.614  0.00  0.00    +0.000 A 
ATOM      9  S   UNL     1       4.063   3.435  17.726  0.00  0.00    +0.000 S 
ENDBRANCH   4   5
BRANCH   4  11
ATOM     10  N   UNL     1       5.722   5.962  18.372  0.00  0.00    +0.000 N 
ATOM     11  C   UNL     1       4.802   6.305  17.403  0.00  0.00    +0.000 C 
ATOM     12  O   UNL     1       5.165   6.656  16.274  0.00  0.00    +0.000 OA
ATOM     13  H   UNL     1       5.348   5.519  19.215  0.00  0.00    +0.000 HD
BRANCH  10  15
ATOM     14  C   UNL     1       7.617   4.896  17.159  0.00  0.00    +0.000 C 
ATOM     15  C   UNL     1       7.191   5.980  18.167  0.00  0.00    +0.000 C 
ATOM     16  C   UNL     1       7.953   5.770  19.493  0.00  0.00    +0.000 C 
ATOM     17  C   UNL     1       7.618   7.344  17.590  0.00  0.00    +0.000 C 
ENDBRANCH  10  15
ENDBRANCH   4  11
ENDBRANCH   1   4
BRANCH   1  18
ATOM     18  C   UNL     1       2.740   6.224  20.143  0.00  0.00    +0.000 C 
BRANCH  18  19
ATOM     19  C   UNL     1       2.356   4.749  20.304  0.00  0.00    +0.000 C 
ATOM     20  C   UNL     1       0.942   4.469  20.766  0.00  0.00    +0.000 C 
ATOM     21  C   UNL     1       1.034   2.985  21.040  0.00  0.00    +0.000 C 
ATOM     22  C   UNL     1       2.454   2.821  21.564  0.00  0.00    +0.000 C 
ATOM     23  O   UNL     1       3.178   4.027  21.233  0.00  0.00    +0.000 OA
ENDBRANCH  18  19
ENDBRANCH   1  18
BRANCH   2  24
ATOM     24  C   UNL     1       1.545   8.896  19.793  0.00  0.00    +0.000 C 
BRANCH  24  25
ATOM     25  N   UNL     1       0.594   9.928  19.423  0.00  0.00    +0.000 N 
ATOM     26  N   UNL     1       0.992  11.169  19.088  0.00  0.00    +0.000 NA
ATOM     27  N   UNL     1      -0.043  11.699  18.443  0.00  0.00    +0.000 NA
ATOM     28  C   UNL     1      -1.021  10.740  18.404  0.00  0.00    +0.000 A 
ATOM     29  N   UNL     1      -0.667   9.609  19.041  0.00  0.00    +0.000 NA
BRANCH  28  30
ATOM     30  C   UNL     1      -2.303  10.894  17.646  0.00  0.00    +0.000 A 
ATOM     31  C   UNL     1      -2.466  10.578  16.312  0.00  0.00    +0.000 A 
ATOM     32  C   UNL     1      -3.758  10.942  15.824  0.00  0.00    +0.000 A 
ATOM     33  C   UNL     1      -4.539  11.504  16.809  0.00  0.00    +0.000 A 
ATOM     34  S   UNL     1      -3.734  11.540  18.321  0.00  0.00    +0.000 S 
ENDBRANCH  28  30
ENDBRANCH  24  25
ENDBRANCH   2  24
TORSDOF 9
ENDMDL
MODEL 5
REMARK VINA RESULT:      -6.7      0.885      1.039
REMARK  Name = 
REMARK  12 active torsions:
REMARK  status: ('A' for Active; 'I' for Inactive)
REMARK    1  A    between atoms: C_1  and  C_2
REMARK    2  A    between atoms: C_2  and  C_3
REMARK    3  A    between atoms: C_2  and  C_4
REMARK    4  A    between atoms: C_2  and  N_5
REMARK    5  A    between atoms: C_6  and  C_8
REMARK    6  A    between atoms: C_8  and  C_9
REMARK    7  A    between atoms: C_8  and  N_14
REMARK    8  A    between atoms: N_14  and  C_15
REMARK    9  A    between atoms: C_15  and  C_16
REMARK   10  A    between atoms: C_21  and  C_23
REMARK   11  A    between atoms: C_23  and  N_24
REMARK   12  A    between atoms: C_27  and  C_28
REMARK                            x       y       z     vdW  Elec       q    Type
REMARK                         _______ _______ _______ _____ _____    ______ ____
ROOT
ATOM      1  N   UNL     1      -0.055  11.302  19.435  0.00  0.00    +0.000 N 
ATOM      2  C   UNL     1       1.139  11.024  18.775  0.00  0.00    +0.000 C 
ATOM      3  O   UNL     1       2.152  11.697  19.002  0.00  0.00    +0.000 OA
ENDROOT
BRANCH   1   4
ATOM      4  C   UNL     1      -0.199  12.576  20.188  0.00  0.00    +0.000 C 
BRANCH   4   5
ATOM      5  C   UNL     1      -1.315  12.465  21.224  0.00  0.00    +0.000 A 
ATOM      6  C   UNL     1      -2.587  13.003  21.228  0.00  0.00    +0.000 A 
ATOM      7  C   UNL     1      -3.319  12.691  22.411  0.00  0.00    +0.000 A 
ATOM      8  C   UNL     1      -2.598  11.904  23.276  0.00  0.00    +0.000 A 
ATOM      9  S   UNL     1      -1.040  11.558  22.668  0.00  0.00    +0.000 S 
ENDBRANCH   4   5
BRANCH   4  11
ATOM     10  N   UNL     1       0.247  15.090  20.189  0.00  0.00    +0.000 N 
ATOM     11  C   UNL     1      -0.197  13.983  19.494  0.00  0.00    +0.000 C 
ATOM     12  O   UNL     1      -0.500  14.061  18.298  0.00  0.00    +0.000 OA
ATOM     13  H   UNL     1       0.640  14.914  21.116  0.00  0.00    +0.000 HD
BRANCH  10  15
ATOM     14  C   UNL     1      -0.919  16.900  18.939  0.00  0.00    +0.000 C 
ATOM     15  C   UNL     1       0.397  16.440  19.593  0.00  0.00    +0.000 C 
ATOM     16  C   UNL     1       1.526  16.474  18.541  0.00  0.00    +0.000 C 
ATOM     17  C   UNL     1       0.750  17.459  20.694  0.00  0.00    +0.000 C 
ENDBRANCH  10  15
ENDBRANCH   4  11
ENDBRANCH   1   4
BRANCH   1  18
ATOM     18  C   UNL     1      -1.309  10.569  19.160  0.00  0.00    +0.000 C 
BRANCH  18  19
ATOM     19  C   UNL     1      -2.074  10.949  17.888  0.00  0.00    +0.000 C 
ATOM     20  C   UNL     1      -3.528  11.328  18.065  0.00  0.00    +0.000 C 
ATOM     21  C   UNL     1      -3.974  11.380  16.622  0.00  0.00    +0.000 C 
ATOM     22  C   UNL     1      -3.162  10.268  15.973  0.00  0.00    +0.000 C 
ATOM     23  O   UNL     1      -2.099   9.919  16.889  0.00  0.00    +0.000 OA
ENDBRANCH  18  19
ENDBRANCH   1  18
BRANCH   2  24
ATOM     24  C   UNL     1       1.222   9.835  17.837  0.00  0.00    +0.000 C 
BRANCH  24  25
ATOM     25  N   UNL     1       2.017   8.740  18.360  0.00  0.00    +0.000 N 
ATOM     26  N   UNL     1       1.768   8.198  19.567  0.00  0.00    +0.000 NA
ATOM     27  N   UNL     1       2.381   7.018  19.547  0.00  0.00    +0.000 NA
ATOM     28  C   UNL     1       2.965   6.894  18.313  0.00  0.00    +0.000 A 
ATOM     29  N   UNL     1       2.782   7.979  17.538  0.00  0.00    +0.000 NA
BRANCH  28  30
ATOM     30  C   UNL     1       3.644   5.646  17.839  0.00  0.00    +0.000 A 
ATOM     31  C   UNL     1       3.344   4.375  18.286  0.00  0.00    +0.000 A 
ATOM     32  C   UNL     1       4.232   3.391  17.754  0.00  0.00    +0.000 A 
ATOM     33  C   UNL     1       5.164   3.946  16.905  0.00  0.00    +0.000 A 
ATOM     34  S   UNL     1       4.930   5.632  16.714  0.00  0.00    +0.000 S 
ENDBRANCH  28  30
ENDBRANCH  24  25
ENDBRANCH   2  24
TORSDOF 9
ENDMDL
MODEL 6
REMARK VINA RESULT:      -6.6      5.090      9.106
REMARK  Name = 
REMARK  12 active torsions:
REMARK  status: ('A' for Active; 'I' for Inactive)
REMARK    1  A    between atoms: C_1  and  C_2
REMARK    2  A    between atoms: C_2  and  C_3
REMARK    3  A    between atoms: C_2  and  C_4
REMARK    4  A    between atoms: C_2  and  N_5
REMARK    5  A    between atoms: C_6  and  C_8
REMARK    6  A    between atoms: C_8  and  C_9
REMARK    7  A    between atoms: C_8  and  N_14
REMARK    8  A    between atoms: N_14  and  C_15
REMARK    9  A    between atoms: C_15  and  C_16
REMARK   10  A    between atoms: C_21  and  C_23
REMARK   11  A    between atoms: C_23  and  N_24
REMARK   12  A    between atoms: C_27  and  C_28
REMARK                            x       y       z     vdW  Elec       q    Type
REMARK                         _______ _______ _______ _____ _____    ______ ____
ROOT
ATOM      1  N   UNL     1       5.147   5.936  18.071  0.00  0.00    +0.000 N 
ATOM      2  C   UNL     1       6.430   5.932  18.612  0.00  0.00    +0.000 C 
ATOM      3  O   UNL     1       6.618   5.563  19.777  0.00  0.00    +0.000 OA
ENDROOT
BRANCH   1   4
ATOM      4  C   UNL     1       3.971   5.778  18.968  0.00  0.00    +0.000 C 
BRANCH   4   5
ATOM      5  C   UNL     1       3.310   4.419  18.754  0.00  0.00    +0.000 A 
ATOM      6  C   UNL     1       2.234   4.064  17.965  0.00  0.00    +0.000 A 
ATOM      7  C   UNL     1       1.900   2.680  18.069  0.00  0.00    +0.000 A 
ATOM      8  C   UNL     1       2.743   2.006  18.920  0.00  0.00    +0.000 A 
ATOM      9  S   UNL     1       3.918   3.041  19.599  0.00  0.00    +0.000 S 
ENDBRANCH   4   5
BRANCH   4  11
ATOM     10  N   UNL     1       2.872   7.992  18.330  0.00  0.00    +0.000 N 
ATOM     11  C   UNL     1       2.904   6.908  19.184  0.00  0.00    +0.000 C 
ATOM     12  O   UNL     1       2.042   6.759  20.058  0.00  0.00    +0.000 OA
ATOM     13  H   UNL     1       3.508   7.957  17.531  0.00  0.00    +0.000 HD
BRANCH  10  15
ATOM     14  C   UNL     1       1.334   9.268  19.815  0.00  0.00    +0.000 C 
ATOM     15  C   UNL     1       1.837   9.054  18.375  0.00  0.00    +0.000 C 
ATOM     16  C   UNL     1       0.638   8.718  17.463  0.00  0.00    +0.000 C 
ATOM     17  C   UNL     1       2.438  10.387  17.890  0.00  0.00    +0.000 C 
ENDBRANCH  10  15
ENDBRANCH   4  11
ENDBRANCH   1   4
BRANCH   1  18
ATOM     18  C   UNL     1       4.857   6.423  16.705  0.00  0.00    +0.000 C 
BRANCH  18  19
ATOM     19  C   UNL     1       5.239   5.501  15.541  0.00  0.00    +0.000 C 
ATOM     20  C   UNL     1       5.475   4.047  15.885  0.00  0.00    +0.000 C 
ATOM     21  C   UNL     1       6.056   3.550  14.580  0.00  0.00    +0.000 C 
ATOM     22  C   UNL     1       6.859   4.745  14.087  0.00  0.00    +0.000 C 
ATOM     23  O   UNL     1       6.432   5.897  14.849  0.00  0.00    +0.000 OA
ENDBRANCH  18  19
ENDBRANCH   1  18
BRANCH   2  24
ATOM     24  C   UNL     1       7.615   6.302  17.739  0.00  0.00    +0.000 C 
BRANCH  24  25
ATOM     25  N   UNL     1       7.948   7.713  17.782  0.00  0.00    +0.000 N 
ATOM     26  N   UNL     1       7.089   8.655  17.351  0.00  0.00    +0.000 NA
ATOM     27  N   UNL     1       7.523   9.790  17.892  0.00  0.00    +0.000 NA
ATOM     28  C   UNL     1       8.625   9.476  18.645  0.00  0.00    +0.000 A 
ATOM     29  N   UNL     1       8.945   8.170  18.579  0.00  0.00    +0.000 NA
BRANCH  28  30
ATOM     30  C   UNL     1       9.333  10.456  19.526  0.00  0.00    +0.000 A 
ATOM     31  C   UNL     1       8.946  10.773  20.813  0.00  0.00    +0.000 A 
ATOM     32  C   UNL     1       9.731  11.828  21.370  0.00  0.00    +0.000 A 
ATOM     33  C   UNL     1      10.702  12.262  20.496  0.00  0.00    +0.000 A 
ATOM     34  S   UNL     1      10.695  11.365  19.036  0.00  0.00    +0.000 S 
ENDBRANCH  28  30
ENDBRANCH  24  25
ENDBRANCH   2  24
TORSDOF 9
ENDMDL
MODEL 7
REMARK VINA RESULT:      -6.6      1.921      4.495
REMARK  Name = 
REMARK  12 active torsions:
REMARK  status: ('A' for Active; 'I' for Inactive)
REMARK    1  A    between atoms: C_1  and  C_2
REMARK    2  A    between atoms: C_2  and  C_3
REMARK    3  A    between atoms: C_2  and  C_4
REMARK    4  A    between atoms: C_2  and  N_5
REMARK    5  A    between atoms: C_6  and  C_8
REMARK    6  A    between atoms: C_8  and  C_9
REMARK    7  A    between atoms: C_8  and  N_14
REMARK    8  A    between atoms: N_14  and  C_15
REMARK    9  A    between atoms: C_15  and  C_16
REMARK   10  A    between atoms: C_21  and  C_23
REMARK   11  A    between atoms: C_23  and  N_24
REMARK   12  A    between atoms: C_27  and  C_28
REMARK                            x       y       z     vdW  Elec       q    Type
REMARK                         _______ _______ _______ _____ _____    ______ ____
ROOT
ATOM      1  N   UNL     1       0.585  11.629  18.708  0.00  0.00    +0.000 N 
ATOM      2  C   UNL     1       0.606  10.265  18.433  0.00  0.00    +0.000 C 
ATOM      3  O   UNL     1      -0.437   9.666  18.143  0.00  0.00    +0.000 OA
ENDROOT
BRANCH   1   4
ATOM      4  C   UNL     1      -0.716  12.311  18.939  0.00  0.00    +0.000 C 
BRANCH   4   5
ATOM      5  C   UNL     1      -0.851  12.733  20.400  0.00  0.00    +0.000 A 
ATOM      6  C   UNL     1      -0.643  12.013  21.560  0.00  0.00    +0.000 A 
ATOM      7  C   UNL     1      -0.913  12.769  22.740  0.00  0.00    +0.000 A 
ATOM      8  C   UNL     1      -1.300  14.056  22.454  0.00  0.00    +0.000 A 
ATOM      9  S   UNL     1      -1.352  14.343  20.772  0.00  0.00    +0.000 S 
ENDBRANCH   4   5
BRANCH   4  11
ATOM     10  N   UNL     1      -2.199  11.516  17.019  0.00  0.00    +0.000 N 
ATOM     11  C   UNL     1      -2.076  11.773  18.369  0.00  0.00    +0.000 C 
ATOM     12  O   UNL     1      -2.986  11.491  19.158  0.00  0.00    +0.000 OA
ATOM     13  H   UNL     1      -1.348  11.614  16.460  0.00  0.00    +0.000 HD
BRANCH  10  15
ATOM     14  C   UNL     1      -3.715   9.542  17.049  0.00  0.00    +0.000 C 
ATOM     15  C   UNL     1      -3.397  10.900  16.396  0.00  0.00    +0.000 C 
ATOM     16  C   UNL     1      -3.209  10.703  14.877  0.00  0.00    +0.000 C 
ATOM     17  C   UNL     1      -4.620  11.814  16.605  0.00  0.00    +0.000 C 
ENDBRANCH  10  15
ENDBRANCH   4  11
ENDBRANCH   1   4
BRANCH   1  18
ATOM     18  C   UNL     1       1.790  12.381  19.116  0.00  0.00    +0.000 C 
BRANCH  18  19
ATOM     19  C   UNL     1       2.100  13.671  18.349  0.00  0.00    +0.000 C 
ATOM     20  C   UNL     1       3.562  13.970  18.099  0.00  0.00    +0.000 C 
ATOM     21  C   UNL     1       3.466  15.384  17.572  0.00  0.00    +0.000 C 
ATOM     22  C   UNL     1       2.308  15.967  18.371  0.00  0.00    +0.000 C 
ATOM     23  O   UNL     1       1.602  14.861  18.978  0.00  0.00    +0.000 OA
ENDBRANCH  18  19
ENDBRANCH   1  18
BRANCH   2  24
ATOM     24  C   UNL     1       1.930   9.524  18.404  0.00  0.00    +0.000 C 
BRANCH  24  25
ATOM     25  N   UNL     1       2.021   8.464  19.391  0.00  0.00    +0.000 N 
ATOM     26  N   UNL     1       1.411   8.557  20.587  0.00  0.00    +0.000 NA
ATOM     27  N   UNL     1       1.361   7.310  21.045  0.00  0.00    +0.000 NA
ATOM     28  C   UNL     1       1.933   6.511  20.090  0.00  0.00    +0.000 A 
ATOM     29  N   UNL     1       2.392   7.210  19.034  0.00  0.00    +0.000 NA
BRANCH  28  30
ATOM     30  C   UNL     1       1.954   5.016  20.162  0.00  0.00    +0.000 A 
ATOM     31  C   UNL     1       2.247   4.293  21.301  0.00  0.00    +0.000 A 
ATOM     32  C   UNL     1       2.313   2.889  21.048  0.00  0.00    +0.000 A 
ATOM     33  C   UNL     1       2.047   2.592  19.729  0.00  0.00    +0.000 A 
ATOM     34  S   UNL     1       1.671   3.995  18.822  0.00  0.00    +0.000 S 
ENDBRANCH  28  30
ENDBRANCH  24  25
ENDBRANCH   2  24
TORSDOF 9
ENDMDL
MODEL 8
REMARK VINA RESULT:      -6.6      1.042      1.328
REMARK  Name = 
REMARK  12 active torsions:
REMARK  status: ('A' for Active; 'I' for Inactive)
REMARK    1  A    between atoms: C_1  and  C_2
REMARK    2  A    between atoms: C_2  and  C_3
REMARK    3  A    between atoms: C_2  and  C_4
REMARK    4  A    between atoms: C_2  and  N_5
REMARK    5  A    between atoms: C_6  and  C_8
REMARK    6  A    between atoms: C_8  and  C_9
REMARK    7  A    between atoms: C_8  and  N_14
REMARK    8  A    between atoms: N_14  and  C_15
REMARK    9  A    between atoms: C_15  and  C_16
REMARK   10  A    between atoms: C_21  and  C_23
REMARK   11  A    between atoms: C_23  and  N_24
REMARK   12  A    between atoms: C_27  and  C_28
REMARK                            x       y       z     vdW  Elec       q    Type
REMARK                         _______ _______ _______ _____ _____    ______ ____
ROOT
ATOM      1  N   UNL     1      -0.019  11.164  19.424  0.00  0.00    +0.000 N 
ATOM      2  C   UNL     1       1.154  10.806  18.767  0.00  0.00    +0.000 C 
ATOM      3  O   UNL     1       2.209  11.415  18.988  0.00  0.00    +0.000 OA
ENDROOT
BRANCH   1   4
ATOM      4  C   UNL     1      -0.082  12.451  20.167  0.00  0.00    +0.000 C 
BRANCH   4   5
ATOM      5  C   UNL     1      -1.148  12.391  21.258  0.00  0.00    +0.000 A 
ATOM      6  C   UNL     1      -1.150  11.731  22.471  0.00  0.00    +0.000 A 
ATOM      7  C   UNL     1      -2.367  11.902  23.195  0.00  0.00    +0.000 A 
ATOM      8  C   UNL     1      -3.260  12.706  22.528  0.00  0.00    +0.000 A 
ATOM      9  S   UNL     1      -2.637  13.238  21.031  0.00  0.00    +0.000 S 
ENDBRANCH   4   5
BRANCH   4  11
ATOM     10  N   UNL     1       0.452  14.947  20.114  0.00  0.00    +0.000 N 
ATOM     11  C   UNL     1      -0.065  13.850  19.456  0.00  0.00    +0.000 C 
ATOM     12  O   UNL     1      -0.426  13.925  18.275  0.00  0.00    +0.000 OA
ATOM     13  H   UNL     1       0.886  14.767  21.022  0.00  0.00    +0.000 HD
BRANCH  10  15
ATOM     14  C   UNL     1       0.930  17.349  20.563  0.00  0.00    +0.000 C 
ATOM     15  C   UNL     1       0.620  16.284  19.493  0.00  0.00    +0.000 C 
ATOM     16  C   UNL     1      -0.637  16.707  18.704  0.00  0.00    +0.000 C 
ATOM     17  C   UNL     1       1.806  16.256  18.509  0.00  0.00    +0.000 C 
ENDBRANCH  10  15
ENDBRANCH   4  11
ENDBRANCH   1   4
BRANCH   1  18
ATOM     18  C   UNL     1      -1.317  10.510  19.155  0.00  0.00    +0.000 C 
BRANCH  18  19
ATOM     19  C   UNL     1      -2.064  10.940  17.887  0.00  0.00    +0.000 C 
ATOM     20  C   UNL     1      -3.550  11.187  18.033  0.00  0.00    +0.000 C 
ATOM     21  C   UNL     1      -3.946  11.330  16.581  0.00  0.00    +0.000 C 
ATOM     22  C   UNL     1      -3.023  10.345  15.876  0.00  0.00    +0.000 C 
ATOM     23  O   UNL     1      -1.969  10.001  16.805  0.00  0.00    +0.000 OA
ENDBRANCH  18  19
ENDBRANCH   1  18
BRANCH   2  24
ATOM     24  C   UNL     1       1.161   9.606  17.839  0.00  0.00    +0.000 C 
BRANCH  24  25
ATOM     25  N   UNL     1       2.133   8.594  18.208  0.00  0.00    +0.000 N 
ATOM     26  N   UNL     1       2.023   7.890  19.349  0.00  0.00    +0.000 NA
ATOM     27  N   UNL     1       2.803   6.828  19.175  0.00  0.00    +0.000 NA
ATOM     28  C   UNL     1       3.342   6.932  17.919  0.00  0.00    +0.000 A 
ATOM     29  N   UNL     1       2.964   8.055  17.281  0.00  0.00    +0.000 NA
BRANCH  28  30
ATOM     30  C   UNL     1       4.176   5.863  17.284  0.00  0.00    +0.000 A 
ATOM     31  C   UNL     1       3.913   4.510  17.371  0.00  0.00    +0.000 A 
ATOM     32  C   UNL     1       4.941   3.719  16.775  0.00  0.00    +0.000 A 
ATOM     33  C   UNL     1       5.941   4.499  16.236  0.00  0.00    +0.000 A 
ATOM     34  S   UNL     1       5.609   6.171  16.405  0.00  0.00    +0.000 S 
ENDBRANCH  28  30
ENDBRANCH  24  25
ENDBRANCH   2  24
TORSDOF 9
ENDMDL
MODEL 9
REMARK VINA RESULT:      -6.5      3.093      9.388
REMARK  Name = 
REMARK  12 active torsions:
REMARK  status: ('A' for Active; 'I' for Inactive)
REMARK    1  A    between atoms: C_1  and  C_2
REMARK    2  A    between atoms: C_2  and  C_3
REMARK    3  A    between atoms: C_2  and  C_4
REMARK    4  A    between atoms: C_2  and  N_5
REMARK    5  A    between atoms: C_6  and  C_8
REMARK    6  A    between atoms: C_8  and  C_9
REMARK    7  A    between atoms: C_8  and  N_14
REMARK    8  A    between atoms: N_14  and  C_15
REMARK    9  A    between atoms: C_15  and  C_16
REMARK   10  A    between atoms: C_21  and  C_23
REMARK   11  A    between atoms: C_23  and  N_24
REMARK   12  A    between atoms: C_27  and  C_28
REMARK                            x       y       z     vdW  Elec       q    Type
REMARK                         _______ _______ _______ _____ _____    ______ ____
ROOT
ATOM      1  N   UNL     1       2.671   6.483  18.949  0.00  0.00    +0.000 N 
ATOM      2  C   UNL     1       2.014   7.704  18.831  0.00  0.00    +0.000 C 
ATOM      3  O   UNL     1       1.776   8.184  17.715  0.00  0.00    +0.000 OA
ENDROOT
BRANCH   1   4
ATOM      4  C   UNL     1       3.343   5.892  17.761  0.00  0.00    +0.000 C 
BRANCH   4   5
ATOM      5  C   UNL     1       3.148   4.379  17.728  0.00  0.00    +0.000 A 
ATOM      6  C   UNL     1       2.050   3.628  17.358  0.00  0.00    +0.000 A 
ATOM      7  C   UNL     1       2.261   2.225  17.505  0.00  0.00    +0.000 A 
ATOM      8  C   UNL     1       3.522   1.935  17.965  0.00  0.00    +0.000 A 
ATOM      9  S   UNL     1       4.440   3.349  18.232  0.00  0.00    +0.000 S 
ENDBRANCH   4   5
BRANCH   4  11
ATOM     10  N   UNL     1       5.836   6.212  18.213  0.00  0.00    +0.000 N 
ATOM     11  C   UNL     1       4.793   6.294  17.312  0.00  0.00    +0.000 C 
ATOM     12  O   UNL     1       4.995   6.582  16.127  0.00  0.00    +0.000 OA
ATOM     13  H   UNL     1       5.616   5.803  19.124  0.00  0.00    +0.000 HD
BRANCH  10  15
ATOM     14  C   UNL     1       8.182   6.079  19.034  0.00  0.00    +0.000 C 
ATOM     15  C   UNL     1       7.257   6.457  17.862  0.00  0.00    +0.000 C 
ATOM     16  C   UNL     1       7.501   7.931  17.477  0.00  0.00    +0.000 C 
ATOM     17  C   UNL     1       7.653   5.583  16.657  0.00  0.00    +0.000 C 
ENDBRANCH  10  15
ENDBRANCH   4  11
ENDBRANCH   1   4
BRANCH   1  18
ATOM     18  C   UNL     1       3.033   5.893  20.255  0.00  0.00    +0.000 C 
BRANCH  18  19
ATOM     19  C   UNL     1       2.060   4.872  20.853  0.00  0.00    +0.000 C 
ATOM     20  C   UNL     1       2.661   3.565  21.323  0.00  0.00    +0.000 C 
ATOM     21  C   UNL     1       1.405   2.768  21.591  0.00  0.00    +0.000 C 
ATOM     22  C   UNL     1       0.454   3.254  20.506  0.00  0.00    +0.000 C 
ATOM     23  O   UNL     1       1.009   4.472  19.960  0.00  0.00    +0.000 OA
ENDBRANCH  18  19
ENDBRANCH   1  18
BRANCH   2  24
ATOM     24  C   UNL     1       1.510   8.412  20.075  0.00  0.00    +0.000 C 
BRANCH  24  25
ATOM     25  N   UNL     1       0.721   9.595  19.788  0.00  0.00    +0.000 N 
ATOM     26  N   UNL     1      -0.534   9.737  20.253  0.00  0.00    +0.000 NA
ATOM     27  N   UNL     1      -0.790  11.039  20.158  0.00  0.00    +0.000 NA
ATOM     28  C   UNL     1       0.338  11.630  19.649  0.00  0.00    +0.000 A 
ATOM     29  N   UNL     1       1.311  10.742  19.373  0.00  0.00    +0.000 NA
BRANCH  28  30
ATOM     30  C   UNL     1       0.507  13.111  19.512  0.00  0.00    +0.000 A 
ATOM     31  C   UNL     1       1.377  13.720  18.630  0.00  0.00    +0.000 A 
ATOM     32  C   UNL     1       1.419  15.137  18.803  0.00  0.00    +0.000 A 
ATOM     33  C   UNL     1       0.564  15.558  19.797  0.00  0.00    +0.000 A 
ATOM     34  S   UNL     1      -0.318  14.256  20.476  0.00  0.00    +0.000 S 
ENDBRANCH  28  30
ENDBRANCH  24  25
ENDBRANCH   2  24
TORSDOF 9
ENDMDL
