MODEL 1
REMARK VINA RESULT:      -8.2      0.000      0.000
REMARK  Name = 
REMARK  9 active torsions:
REMARK  status: ('A' for Active; 'I' for Inactive)
REMARK    1  A    between atoms: C_1  and  C_2
REMARK    2  A    between atoms: N_10  and  C_11
REMARK    3  A    between atoms: C_11  and  C_12
REMARK    4  A    between atoms: C_12  and  C_13
REMARK    5  A    between atoms: C_13  and  C_14
REMARK    6  A    between atoms: C_14  and  C_15
REMARK    7  A    between atoms: C_15  and  C_16
REMARK    8  A    between atoms: N_18  and  C_19
REMARK    9  A    between atoms: C_24  and  N_25
REMARK                            x       y       z     vdW  Elec       q    Type
REMARK                         _______ _______ _______ _____ _____    ______ ____
ROOT
ATOM      1  C   UNL     1       0.883   3.000  19.631  0.00  0.00    +0.000 C 
ENDROOT
BRANCH   1   2
ATOM      2  C   UNL     1       1.376   1.898  18.672  0.00  0.00    +0.000 C 
BRANCH   2   3
ATOM      3  C   UNL     1       2.888   1.639  18.718  0.00  0.00    +0.000 C 
BRANCH   3  13
ATOM      4  C   UNL     1       7.813   7.155  18.143  0.00  0.00    +0.000 C 
ATOM      5  C   UNL     1       6.642   6.275  17.805  0.00  0.00    +0.000 A 
ATOM      6  C   UNL     1       5.846   6.498  16.654  0.00  0.00    +0.000 A 
ATOM      7  C   UNL     1       4.753   5.665  16.352  0.00  0.00    +0.000 A 
ATOM      8  C   UNL     1       4.481   4.625  17.221  0.00  0.00    +0.000 A 
ATOM      9  C   UNL     1       5.261   4.415  18.340  0.00  0.00    +0.000 A 
ATOM     10  C   UNL     1       6.341   5.210  18.660  0.00  0.00    +0.000 A 
ATOM     11  C   UNL     1       4.731   3.255  19.047  0.00  0.00    +0.000 C 
ATOM     12  O   UNL     1       5.209   2.820  20.075  0.00  0.00    +0.000 OA
ATOM     13  N   UNL     1       3.660   2.810  18.327  0.00  0.00    +0.000 N 
ATOM     14  C   UNL     1       3.442   3.582  17.216  0.00  0.00    +0.000 C 
ATOM     15  O   UNL     1       2.584   3.474  16.360  0.00  0.00    +0.000 OA
ENDBRANCH   3  13
ENDBRANCH   2   3
ENDBRANCH   1   2
BRANCH   1  16
ATOM     16  C   UNL     1       1.532   2.897  21.007  0.00  0.00    +0.000 C 
BRANCH  16  17
ATOM     17  C   UNL     1       2.287   4.152  21.478  0.00  0.00    +0.000 C 
BRANCH  17  18
ATOM     18  C   UNL     1       1.668   5.361  20.786  0.00  0.00    +0.000 C 
ATOM     19  O   UNL     1       0.446   5.428  20.652  0.00  0.00    +0.000 OA
ATOM     20  N   UNL     1       2.570   6.296  20.310  0.00  0.00    +0.000 N 
ATOM     21  H   UNL     1       3.548   6.068  20.295  0.00  0.00    +0.000 HD
BRANCH  20  22
ATOM     22  C   UNL     1       2.179   7.480  19.618  0.00  0.00    +0.000 A 
ATOM     23  C   UNL     1       2.468   7.648  18.254  0.00  0.00    +0.000 A 
ATOM     24  C   UNL     1       2.191   8.839  17.590  0.00  0.00    +0.000 A 
ATOM     25  C   UNL     1       1.554   9.867  18.267  0.00  0.00    +0.000 A 
ATOM     26  C   UNL     1       1.175   9.687  19.600  0.00  0.00    +0.000 A 
ATOM     27  C   UNL     1       1.518   8.519  20.308  0.00  0.00    +0.000 A 
BRANCH  27  28
ATOM     28  N   UNL     1       1.040   8.369  21.626  0.00  0.00    +0.000 N 
ATOM     29  H   UNL     1       1.268   7.457  22.018  0.00  0.00    +0.000 HD
ATOM     30  H   UNL     1       0.056   8.570  21.731  0.00  0.00    +0.000 HD
ENDBRANCH  27  28
ENDBRANCH  20  22
ENDBRANCH  17  18
ENDBRANCH  16  17
ENDBRANCH   1  16
TORSDOF 8
ENDMDL
MODEL 2
REMARK VINA RESULT:      -7.9      4.086      6.844
REMARK  Name = 
REMARK  9 active torsions:
REMARK  status: ('A' for Active; 'I' for Inactive)
REMARK    1  A    between atoms: C_1  and  C_2
REMARK    2  A    between atoms: N_10  and  C_11
REMARK    3  A    between atoms: C_11  and  C_12
REMARK    4  A    between atoms: C_12  and  C_13
REMARK    5  A    between atoms: C_13  and  C_14
REMARK    6  A    between atoms: C_14  and  C_15
REMARK    7  A    between atoms: C_15  and  C_16
REMARK    8  A    between atoms: N_18  and  C_19
REMARK    9  A    between atoms: C_24  and  N_25
REMARK                            x       y       z     vdW  Elec       q    Type
REMARK                         _______ _______ _______ _____ _____    ______ ____
ROOT
ATOM      1  C   UNL     1       7.414   5.469  17.052  0.00  0.00    +0.000 C 
ENDROOT
BRANCH   1   2
ATOM      2  C   UNL     1       6.498   5.062  15.881  0.00  0.00    +0.000 C 
BRANCH   2   3
ATOM      3  C   UNL     1       5.165   5.822  15.817  0.00  0.00    +0.000 C 
BRANCH   3  13
ATOM      4  C   UNL     1       1.320   2.776  21.380  0.00  0.00    +0.000 C 
ATOM      5  C   UNL     1       1.908   3.838  20.495  0.00  0.00    +0.000 A 
ATOM      6  C   UNL     1       1.694   5.217  20.737  0.00  0.00    +0.000 A 
ATOM      7  C   UNL     1       2.252   6.200  19.899  0.00  0.00    +0.000 A 
ATOM      8  C   UNL     1       3.014   5.771  18.828  0.00  0.00    +0.000 A 
ATOM      9  C   UNL     1       3.217   4.425  18.599  0.00  0.00    +0.000 A 
ATOM     10  C   UNL     1       2.688   3.440  19.405  0.00  0.00    +0.000 A 
ATOM     11  C   UNL     1       4.054   4.292  17.412  0.00  0.00    +0.000 C 
ATOM     12  O   UNL     1       4.409   3.224  16.957  0.00  0.00    +0.000 OA
ATOM     13  N   UNL     1       4.324   5.557  16.977  0.00  0.00    +0.000 N 
ATOM     14  C   UNL     1       3.732   6.503  17.773  0.00  0.00    +0.000 C 
ATOM     15  O   UNL     1       3.763   7.716  17.679  0.00  0.00    +0.000 OA
ENDBRANCH   3  13
ENDBRANCH   2   3
ENDBRANCH   1   2
BRANCH   1  16
ATOM     16  C   UNL     1       7.420   6.977  17.280  0.00  0.00    +0.000 C 
BRANCH  16  17
ATOM     17  C   UNL     1       8.155   7.452  18.545  0.00  0.00    +0.000 C 
BRANCH  17  18
ATOM     18  C   UNL     1       8.391   8.952  18.417  0.00  0.00    +0.000 C 
ATOM     19  O   UNL     1       7.736   9.605  17.605  0.00  0.00    +0.000 OA
ATOM     20  N   UNL     1       9.389   9.465  19.225  0.00  0.00    +0.000 N 
ATOM     21  H   UNL     1       9.997   8.831  19.714  0.00  0.00    +0.000 HD
BRANCH  20  22
ATOM     22  C   UNL     1       9.766  10.841  19.228  0.00  0.00    +0.000 A 
ATOM     23  C   UNL     1      10.211  11.470  18.055  0.00  0.00    +0.000 A 
ATOM     24  C   UNL     1      10.684  12.779  18.063  0.00  0.00    +0.000 A 
ATOM     25  C   UNL     1      10.656  13.509  19.240  0.00  0.00    +0.000 A 
ATOM     26  C   UNL     1      10.131  12.932  20.399  0.00  0.00    +0.000 A 
ATOM     27  C   UNL     1       9.723  11.585  20.427  0.00  0.00    +0.000 A 
BRANCH  27  28
ATOM     28  N   UNL     1       9.132  11.087  21.607  0.00  0.00    +0.000 N 
ATOM     29  H   UNL     1       8.206  10.699  21.441  0.00  0.00    +0.000 HD
ATOM     30  H   UNL     1       9.114  11.751  22.368  0.00  0.00    +0.000 HD
ENDBRANCH  27  28
ENDBRANCH  20  22
ENDBRANCH  17  18
ENDBRANCH  16  17
ENDBRANCH   1  16
TORSDOF 8
ENDMDL
MODEL 3
REMARK VINA RESULT:      -7.9      5.054      7.737
REMARK  Name = 
REMARK  9 active torsions:
REMARK  status: ('A' for Active; 'I' for Inactive)
REMARK    1  A    between atoms: C_1  and  C_2
REMARK    2  A    between atoms: N_10  and  C_11
REMARK    3  A    between atoms: C_11  and  C_12
REMARK    4  A    between atoms: C_12  and  C_13
REMARK    5  A    between atoms: C_13  and  C_14
REMARK    6  A    between atoms: C_14  and  C_15
REMARK    7  A    between atoms: C_15  and  C_16
REMARK    8  A    between atoms: N_18  and  C_19
REMARK    9  A    between atoms: C_24  and  N_25
REMARK                            x       y       z     vdW  Elec       q    Type
REMARK                         _______ _______ _______ _____ _____    ______ ____
ROOT
ATOM      1  C   UNL     1       7.342   7.284  17.761  0.00  0.00    +0.000 C 
ENDROOT
BRANCH   1   2
ATOM      2  C   UNL     1       7.779   5.836  18.060  0.00  0.00    +0.000 C 
BRANCH   2   3
ATOM      3  C   UNL     1       7.173   4.779  17.126  0.00  0.00    +0.000 C 
BRANCH   3  13
ATOM      4  C   UNL     1       0.950   3.123  20.806  0.00  0.00    +0.000 C 
ATOM      5  C   UNL     1       1.875   3.366  19.646  0.00  0.00    +0.000 A 
ATOM      6  C   UNL     1       1.436   3.255  18.304  0.00  0.00    +0.000 A 
ATOM      7  C   UNL     1       2.314   3.487  17.229  0.00  0.00    +0.000 A 
ATOM      8  C   UNL     1       3.621   3.822  17.530  0.00  0.00    +0.000 A 
ATOM      9  C   UNL     1       4.040   3.928  18.841  0.00  0.00    +0.000 A 
ATOM     10  C   UNL     1       3.203   3.712  19.915  0.00  0.00    +0.000 A 
ATOM     11  C   UNL     1       5.451   4.294  18.834  0.00  0.00    +0.000 C 
ATOM     12  O   UNL     1       6.106   4.463  19.843  0.00  0.00    +0.000 OA
ATOM     13  N   UNL     1       5.825   4.398  17.526  0.00  0.00    +0.000 N 
ATOM     14  C   UNL     1       4.782   4.127  16.679  0.00  0.00    +0.000 C 
ATOM     15  O   UNL     1       4.758   4.127  15.462  0.00  0.00    +0.000 OA
ENDBRANCH   3  13
ENDBRANCH   2   3
ENDBRANCH   1   2
BRANCH   1  16
ATOM     16  C   UNL     1       8.381   8.303  18.213  0.00  0.00    +0.000 C 
BRANCH  16  17
ATOM     17  C   UNL     1       8.108   9.758  17.792  0.00  0.00    +0.000 C 
BRANCH  17  18
ATOM     18  C   UNL     1       9.006  10.665  18.626  0.00  0.00    +0.000 C 
ATOM     19  O   UNL     1       9.338  10.320  19.759  0.00  0.00    +0.000 OA
ATOM     20  N   UNL     1       9.349  11.866  18.031  0.00  0.00    +0.000 N 
ATOM     21  H   UNL     1       8.879  12.146  17.187  0.00  0.00    +0.000 HD
BRANCH  20  22
ATOM     22  C   UNL     1      10.163  12.851  18.665  0.00  0.00    +0.000 A 
ATOM     23  C   UNL     1       9.598  13.821  19.508  0.00  0.00    +0.000 A 
ATOM     24  C   UNL     1      10.360  14.852  20.048  0.00  0.00    +0.000 A 
ATOM     25  C   UNL     1      11.724  14.893  19.807  0.00  0.00    +0.000 A 
ATOM     26  C   UNL     1      12.322  13.885  19.046  0.00  0.00    +0.000 A 
ATOM     27  C   UNL     1      11.554  12.880  18.427  0.00  0.00    +0.000 A 
BRANCH  27  28
ATOM     28  N   UNL     1      12.227  11.851  17.736  0.00  0.00    +0.000 N 
ATOM     29  H   UNL     1      13.188  12.101  17.511  0.00  0.00    +0.000 HD
ATOM     30  H   UNL     1      11.739  11.521  16.916  0.00  0.00    +0.000 HD
ENDBRANCH  27  28
ENDBRANCH  20  22
ENDBRANCH  17  18
ENDBRANCH  16  17
ENDBRANCH   1  16
TORSDOF 8
ENDMDL
MODEL 4
REMARK VINA RESULT:      -7.9      3.045      6.707
REMARK  Name = 
REMARK  9 active torsions:
REMARK  status: ('A' for Active; 'I' for Inactive)
REMARK    1  A    between atoms: C_1  and  C_2
REMARK    2  A    between atoms: N_10  and  C_11
REMARK    3  A    between atoms: C_11  and  C_12
REMARK    4  A    between atoms: C_12  and  C_13
REMARK    5  A    between atoms: C_13  and  C_14
REMARK    6  A    between atoms: C_14  and  C_15
REMARK    7  A    between atoms: C_15  and  C_16
REMARK    8  A    between atoms: N_18  and  C_19
REMARK    9  A    between atoms: C_24  and  N_25
REMARK                            x       y       z     vdW  Elec       q    Type
REMARK                         _______ _______ _______ _____ _____    ______ ____
ROOT
ATOM      1  C   UNL     1       5.973   4.879  19.227  0.00  0.00    +0.000 C 
ENDROOT
BRANCH   1   2
ATOM      2  C   UNL     1       5.052   3.935  18.428  0.00  0.00    +0.000 C 
BRANCH   2   3
ATOM      3  C   UNL     1       3.614   3.842  18.960  0.00  0.00    +0.000 C 
BRANCH   3  13
ATOM      4  C   UNL     1       0.275   9.960  21.497  0.00  0.00    +0.000 C 
ATOM      5  C   UNL     1       0.974   9.034  20.542  0.00  0.00    +0.000 A 
ATOM      6  C   UNL     1       1.282   9.421  19.214  0.00  0.00    +0.000 A 
ATOM      7  C   UNL     1       1.937   8.541  18.332  0.00  0.00    +0.000 A 
ATOM      8  C   UNL     1       2.267   7.286  18.806  0.00  0.00    +0.000 A 
ATOM      9  C   UNL     1       1.963   6.917  20.101  0.00  0.00    +0.000 A 
ATOM     10  C   UNL     1       1.327   7.757  20.990  0.00  0.00    +0.000 A 
ATOM     11  C   UNL     1       2.434   5.552  20.302  0.00  0.00    +0.000 C 
ATOM     12  O   UNL     1       2.312   4.947  21.348  0.00  0.00    +0.000 OA
ATOM     13  N   UNL     1       3.004   5.154  19.128  0.00  0.00    +0.000 N 
ATOM     14  C   UNL     1       2.941   6.139  18.177  0.00  0.00    +0.000 C 
ATOM     15  O   UNL     1       3.347   6.128  17.030  0.00  0.00    +0.000 OA
ENDBRANCH   3  13
ENDBRANCH   2   3
ENDBRANCH   1   2
BRANCH   1  16
ATOM     16  C   UNL     1       7.273   5.175  18.488  0.00  0.00    +0.000 C 
BRANCH  16  17
ATOM     17  C   UNL     1       7.301   6.496  17.701  0.00  0.00    +0.000 C 
BRANCH  17  18
ATOM     18  C   UNL     1       6.783   6.217  16.294  0.00  0.00    +0.000 C 
ATOM     19  O   UNL     1       5.902   6.932  15.816  0.00  0.00    +0.000 OA
ATOM     20  N   UNL     1       7.337   5.116  15.668  0.00  0.00    +0.000 N 
ATOM     21  H   UNL     1       7.906   4.483  16.203  0.00  0.00    +0.000 HD
BRANCH  20  22
ATOM     22  C   UNL     1       6.963   4.687  14.360  0.00  0.00    +0.000 A 
ATOM     23  C   UNL     1       5.819   3.899  14.158  0.00  0.00    +0.000 A 
ATOM     24  C   UNL     1       5.499   3.383  12.906  0.00  0.00    +0.000 A 
ATOM     25  C   UNL     1       6.287   3.704  11.813  0.00  0.00    +0.000 A 
ATOM     26  C   UNL     1       7.378   4.562  11.975  0.00  0.00    +0.000 A 
ATOM     27  C   UNL     1       7.761   5.028  13.247  0.00  0.00    +0.000 A 
BRANCH  27  28
ATOM     28  N   UNL     1       8.825   5.951  13.331  0.00  0.00    +0.000 N 
ATOM     29  H   UNL     1       8.691   6.627  14.081  0.00  0.00    +0.000 HD
ATOM     30  H   UNL     1       9.034   6.416  12.459  0.00  0.00    +0.000 HD
ENDBRANCH  27  28
ENDBRANCH  20  22
ENDBRANCH  17  18
ENDBRANCH  16  17
ENDBRANCH   1  16
TORSDOF 8
ENDMDL
MODEL 5
REMARK VINA RESULT:      -7.9      1.027      1.271
REMARK  Name = 
REMARK  9 active torsions:
REMARK  status: ('A' for Active; 'I' for Inactive)
REMARK    1  A    between atoms: C_1  and  C_2
REMARK    2  A    between atoms: N_10  and  C_11
REMARK    3  A    between atoms: C_11  and  C_12
REMARK    4  A    between atoms: C_12  and  C_13
REMARK    5  A    between atoms: C_13  and  C_14
REMARK    6  A    between atoms: C_14  and  C_15
REMARK    7  A    between atoms: C_15  and  C_16
REMARK    8  A    between atoms: N_18  and  C_19
REMARK    9  A    between atoms: C_24  and  N_25
REMARK                            x       y       z     vdW  Elec       q    Type
REMARK                         _______ _______ _______ _____ _____    ______ ____
ROOT
ATOM      1  C   UNL     1       1.034   3.356  19.548  0.00  0.00    +0.000 C 
ENDROOT
BRANCH   1   2
ATOM      2  C   UNL     1       1.732   1.994  19.738  0.00  0.00    +0.000 C 
BRANCH   2   3
ATOM      3  C   UNL     1       2.787   1.661  18.673  0.00  0.00    +0.000 C 
BRANCH   3  13
ATOM      4  C   UNL     1       7.934   6.992  18.350  0.00  0.00    +0.000 C 
ATOM      5  C   UNL     1       6.732   6.174  17.969  0.00  0.00    +0.000 A 
ATOM      6  C   UNL     1       5.958   6.472  16.820  0.00  0.00    +0.000 A 
ATOM      7  C   UNL     1       4.835   5.695  16.477  0.00  0.00    +0.000 A 
ATOM      8  C   UNL     1       4.513   4.635  17.303  0.00  0.00    +0.000 A 
ATOM      9  C   UNL     1       5.272   4.353  18.421  0.00  0.00    +0.000 A 
ATOM     10  C   UNL     1       6.380   5.091  18.780  0.00  0.00    +0.000 A 
ATOM     11  C   UNL     1       4.689   3.189  19.079  0.00  0.00    +0.000 C 
ATOM     12  O   UNL     1       5.139   2.697  20.093  0.00  0.00    +0.000 OA
ATOM     13  N   UNL     1       3.609   2.815  18.333  0.00  0.00    +0.000 N 
ATOM     14  C   UNL     1       3.433   3.636  17.250  0.00  0.00    +0.000 C 
ATOM     15  O   UNL     1       2.580   3.595  16.383  0.00  0.00    +0.000 OA
ENDBRANCH   3  13
ENDBRANCH   2   3
ENDBRANCH   1   2
BRANCH   1  16
ATOM     16  C   UNL     1       1.176   4.250  20.775  0.00  0.00    +0.000 C 
BRANCH  16  17
ATOM     17  C   UNL     1       2.420   5.154  20.796  0.00  0.00    +0.000 C 
BRANCH  17  18
ATOM     18  C   UNL     1       2.063   6.461  20.097  0.00  0.00    +0.000 C 
ATOM     19  O   UNL     1       2.223   6.566  18.881  0.00  0.00    +0.000 OA
ATOM     20  N   UNL     1       1.614   7.472  20.928  0.00  0.00    +0.000 N 
ATOM     21  H   UNL     1       1.697   7.360  21.923  0.00  0.00    +0.000 HD
BRANCH  20  22
ATOM     22  C   UNL     1       1.254   8.770  20.459  0.00  0.00    +0.000 A 
ATOM     23  C   UNL     1       1.363   9.103  19.099  0.00  0.00    +0.000 A 
ATOM     24  C   UNL     1       1.119  10.394  18.642  0.00  0.00    +0.000 A 
ATOM     25  C   UNL     1       0.693  11.366  19.533  0.00  0.00    +0.000 A 
ATOM     26  C   UNL     1       0.490  11.033  20.875  0.00  0.00    +0.000 A 
ATOM     27  C   UNL     1       0.807   9.753  21.368  0.00  0.00    +0.000 A 
BRANCH  27  28
ATOM     28  N   UNL     1       0.506   9.460  22.715  0.00  0.00    +0.000 N 
ATOM     29  H   UNL     1       0.248   8.484  22.849  0.00  0.00    +0.000 HD
ATOM     30  H   UNL     1      -0.182  10.075  23.125  0.00  0.00    +0.000 HD
ENDBRANCH  27  28
ENDBRANCH  20  22
ENDBRANCH  17  18
ENDBRANCH  16  17
ENDBRANCH   1  16
TORSDOF 8
ENDMDL
MODEL 6
REMARK VINA RESULT:      -7.9      2.448      3.799
REMARK  Name = 
REMARK  9 active torsions:
REMARK  status: ('A' for Active; 'I' for Inactive)
REMARK    1  A    between atoms: C_1  and  C_2
REMARK    2  A    between atoms: N_10  and  C_11
REMARK    3  A    between atoms: C_11  and  C_12
REMARK    4  A    between atoms: C_12  and  C_13
REMARK    5  A    between atoms: C_13  and  C_14
REMARK    6  A    between atoms: C_14  and  C_15
REMARK    7  A    between atoms: C_15  and  C_16
REMARK    8  A    between atoms: N_18  and  C_19
REMARK    9  A    between atoms: C_24  and  N_25
REMARK                            x       y       z     vdW  Elec       q    Type
REMARK                         _______ _______ _______ _____ _____    ______ ____
ROOT
ATOM      1  C   UNL     1       2.107   5.437  19.381  0.00  0.00    +0.000 C 
ENDROOT
BRANCH   1   2
ATOM      2  C   UNL     1       2.681   4.618  20.555  0.00  0.00    +0.000 C 
BRANCH   2   3
ATOM      3  C   UNL     1       3.556   3.427  20.138  0.00  0.00    +0.000 C 
BRANCH   3  13
ATOM      4  C   UNL     1       6.311   4.034  13.278  0.00  0.00    +0.000 C 
ATOM      5  C   UNL     1       6.191   4.214  14.766  0.00  0.00    +0.000 A 
ATOM      6  C   UNL     1       7.133   4.970  15.506  0.00  0.00    +0.000 A 
ATOM      7  C   UNL     1       7.006   5.129  16.899  0.00  0.00    +0.000 A 
ATOM      8  C   UNL     1       5.933   4.517  17.519  0.00  0.00    +0.000 A 
ATOM      9  C   UNL     1       5.020   3.782  16.789  0.00  0.00    +0.000 A 
ATOM     10  C   UNL     1       5.114   3.613  15.424  0.00  0.00    +0.000 A 
ATOM     11  C   UNL     1       4.014   3.271  17.712  0.00  0.00    +0.000 C 
ATOM     12  O   UNL     1       3.073   2.586  17.367  0.00  0.00    +0.000 OA
ATOM     13  N   UNL     1       4.355   3.719  18.955  0.00  0.00    +0.000 N 
ATOM     14  C   UNL     1       5.499   4.473  18.924  0.00  0.00    +0.000 C 
ATOM     15  O   UNL     1       6.082   5.025  19.838  0.00  0.00    +0.000 OA
ENDBRANCH   3  13
ENDBRANCH   2   3
ENDBRANCH   1   2
BRANCH   1  16
ATOM     16  C   UNL     1       2.530   6.900  19.440  0.00  0.00    +0.000 C 
BRANCH  16  17
ATOM     17  C   UNL     1       2.655   7.608  18.080  0.00  0.00    +0.000 C 
BRANCH  17  18
ATOM     18  C   UNL     1       1.966   8.963  18.189  0.00  0.00    +0.000 C 
ATOM     19  O   UNL     1       2.225   9.847  17.372  0.00  0.00    +0.000 OA
ATOM     20  N   UNL     1       1.108   9.106  19.265  0.00  0.00    +0.000 N 
ATOM     21  H   UNL     1       1.104   8.403  19.983  0.00  0.00    +0.000 HD
BRANCH  20  22
ATOM     22  C   UNL     1       0.392  10.307  19.542  0.00  0.00    +0.000 A 
ATOM     23  C   UNL     1       0.725  11.108  20.646  0.00  0.00    +0.000 A 
ATOM     24  C   UNL     1      -0.031  12.224  20.993  0.00  0.00    +0.000 A 
ATOM     25  C   UNL     1      -1.101  12.599  20.197  0.00  0.00    +0.000 A 
ATOM     26  C   UNL     1      -1.394  11.869  19.042  0.00  0.00    +0.000 A 
ATOM     27  C   UNL     1      -0.689  10.694  18.720  0.00  0.00    +0.000 A 
BRANCH  27  28
ATOM     28  N   UNL     1      -0.984  10.047  17.502  0.00  0.00    +0.000 N 
ATOM     29  H   UNL     1      -1.787  10.460  17.030  0.00  0.00    +0.000 HD
ATOM     30  H   UNL     1      -1.089   9.046  17.584  0.00  0.00    +0.000 HD
ENDBRANCH  27  28
ENDBRANCH  20  22
ENDBRANCH  17  18
ENDBRANCH  16  17
ENDBRANCH   1  16
TORSDOF 8
ENDMDL
MODEL 7
REMARK VINA RESULT:      -7.7      1.945      6.000
REMARK  Name = 
REMARK  9 active torsions:
REMARK  status: ('A' for Active; 'I' for Inactive)
REMARK    1  A    between atoms: C_1  and  C_2
REMARK    2  A    between atoms: N_10  and  C_11
REMARK    3  A    between atoms: C_11  and  C_12
REMARK    4  A    between atoms: C_12  and  C_13
REMARK    5  A    between atoms: C_13  and  C_14
REMARK    6  A    between atoms: C_14  and  C_15
REMARK    7  A    between atoms: C_15  and  C_16
REMARK    8  A    between atoms: N_18  and  C_19
REMARK    9  A    between atoms: C_24  and  N_25
REMARK                            x       y       z     vdW  Elec       q    Type
REMARK                         _______ _______ _______ _____ _____    ______ ____
ROOT
ATOM      1  C   UNL     1       1.197   3.864  19.334  0.00  0.00    +0.000 C 
ENDROOT
BRANCH   1   2
ATOM      2  C   UNL     1       1.282   4.940  20.436  0.00  0.00    +0.000 C 
BRANCH   2   3
ATOM      3  C   UNL     1       2.432   5.942  20.265  0.00  0.00    +0.000 C 
BRANCH   3  13
ATOM      4  C   UNL     1      -0.548  12.732  20.467  0.00  0.00    +0.000 C 
ATOM      5  C   UNL     1       0.178  11.531  19.929  0.00  0.00    +0.000 A 
ATOM      6  C   UNL     1       0.719  11.508  18.619  0.00  0.00    +0.000 A 
ATOM      7  C   UNL     1       1.396  10.376  18.130  0.00  0.00    +0.000 A 
ATOM      8  C   UNL     1       1.511   9.285  18.971  0.00  0.00    +0.000 A 
ATOM      9  C   UNL     1       0.981   9.315  20.245  0.00  0.00    +0.000 A 
ATOM     10  C   UNL     1       0.317  10.411  20.754  0.00  0.00    +0.000 A 
ATOM     11  C   UNL     1       1.262   8.033  20.880  0.00  0.00    +0.000 C 
ATOM     12  O   UNL     1       0.922   7.756  22.012  0.00  0.00    +0.000 OA
ATOM     13  N   UNL     1       1.952   7.286  19.970  0.00  0.00    +0.000 N 
ATOM     14  C   UNL     1       2.139   7.966  18.795  0.00  0.00    +0.000 C 
ATOM     15  O   UNL     1       2.707   7.607  17.780  0.00  0.00    +0.000 OA
ENDBRANCH   3  13
ENDBRANCH   2   3
ENDBRANCH   1   2
BRANCH   1  16
ATOM     16  C   UNL     1       1.771   4.354  18.009  0.00  0.00    +0.000 C 
BRANCH  16  17
ATOM     17  C   UNL     1       2.633   3.334  17.244  0.00  0.00    +0.000 C 
BRANCH  17  18
ATOM     18  C   UNL     1       4.061   3.864  17.199  0.00  0.00    +0.000 C 
ATOM     19  O   UNL     1       4.913   3.267  16.540  0.00  0.00    +0.000 OA
ATOM     20  N   UNL     1       4.299   4.990  17.967  0.00  0.00    +0.000 N 
ATOM     21  H   UNL     1       3.596   5.295  18.618  0.00  0.00    +0.000 HD
BRANCH  20  22
ATOM     22  C   UNL     1       5.576   5.615  18.067  0.00  0.00    +0.000 A 
ATOM     23  C   UNL     1       6.482   5.251  19.077  0.00  0.00    +0.000 A 
ATOM     24  C   UNL     1       7.686   5.925  19.255  0.00  0.00    +0.000 A 
ATOM     25  C   UNL     1       8.040   6.937  18.377  0.00  0.00    +0.000 A 
ATOM     26  C   UNL     1       7.195   7.253  17.310  0.00  0.00    +0.000 A 
ATOM     27  C   UNL     1       5.938   6.636  17.162  0.00  0.00    +0.000 A 
BRANCH  27  28
ATOM     28  N   UNL     1       5.169   6.946  16.022  0.00  0.00    +0.000 N 
ATOM     29  H   UNL     1       4.182   7.071  16.243  0.00  0.00    +0.000 HD
ATOM     30  H   UNL     1       5.286   6.295  15.258  0.00  0.00    +0.000 HD
ENDBRANCH  27  28
ENDBRANCH  20  22
ENDBRANCH  17  18
ENDBRANCH  16  17
ENDBRANCH   1  16
TORSDOF 8
ENDMDL
MODEL 8
REMARK VINA RESULT:      -7.7      4.695      7.595
REMARK  Name = 
REMARK  9 active torsions:
REMARK  status: ('A' for Active; 'I' for Inactive)
REMARK    1  A    between atoms: C_1  and  C_2
REMARK    2  A    between atoms: N_10  and  C_11
REMARK    3  A    between atoms: C_11  and  C_12
REMARK    4  A    between atoms: C_12  and  C_13
REMARK    5  A    between atoms: C_13  and  C_14
REMARK    6  A    between atoms: C_14  and  C_15
REMARK    7  A    between atoms: C_15  and  C_16
REMARK    8  A    between atoms: N_18  and  C_19
REMARK    9  A    between atoms: C_24  and  N_25
REMARK                            x       y       z     vdW  Elec       q    Type
REMARK                         _______ _______ _______ _____ _____    ______ ____
ROOT
ATOM      1  C   UNL     1       6.810   7.596  17.519  0.00  0.00    +0.000 C 
ENDROOT
BRANCH   1   2
ATOM      2  C   UNL     1       7.223   6.509  16.506  0.00  0.00    +0.000 C 
BRANCH   2   3
ATOM      3  C   UNL     1       7.316   5.092  17.091  0.00  0.00    +0.000 C 
BRANCH   3  13
ATOM      4  C   UNL     1       0.556   2.450  18.617  0.00  0.00    +0.000 C 
ATOM      5  C   UNL     1       1.915   3.051  18.845  0.00  0.00    +0.000 A 
ATOM      6  C   UNL     1       2.371   3.399  20.140  0.00  0.00    +0.000 A 
ATOM      7  C   UNL     1       3.646   3.961  20.337  0.00  0.00    +0.000 A 
ATOM      8  C   UNL     1       4.436   4.165  19.221  0.00  0.00    +0.000 A 
ATOM      9  C   UNL     1       3.983   3.822  17.963  0.00  0.00    +0.000 A 
ATOM     10  C   UNL     1       2.742   3.265  17.739  0.00  0.00    +0.000 A 
ATOM     11  C   UNL     1       5.030   4.151  17.003  0.00  0.00    +0.000 C 
ATOM     12  O   UNL     1       4.929   3.962  15.808  0.00  0.00    +0.000 OA
ATOM     13  N   UNL     1       6.070   4.672  17.717  0.00  0.00    +0.000 N 
ATOM     14  C   UNL     1       5.790   4.717  19.058  0.00  0.00    +0.000 C 
ATOM     15  O   UNL     1       6.481   5.116  19.976  0.00  0.00    +0.000 OA
ENDBRANCH   3  13
ENDBRANCH   2   3
ENDBRANCH   1   2
BRANCH   1  16
ATOM     16  C   UNL     1       7.838   8.718  17.608  0.00  0.00    +0.000 C 
BRANCH  16  17
ATOM     17  C   UNL     1       8.738   8.693  18.856  0.00  0.00    +0.000 C 
BRANCH  17  18
ATOM     18  C   UNL     1       9.264  10.106  19.085  0.00  0.00    +0.000 C 
ATOM     19  O   UNL     1       9.171  10.617  20.201  0.00  0.00    +0.000 OA
ATOM     20  N   UNL     1       9.781  10.733  17.967  0.00  0.00    +0.000 N 
ATOM     21  H   UNL     1       9.643  10.315  17.063  0.00  0.00    +0.000 HD
BRANCH  20  22
ATOM     22  C   UNL     1      10.299  12.062  17.982  0.00  0.00    +0.000 A 
ATOM     23  C   UNL     1      11.643  12.309  18.304  0.00  0.00    +0.000 A 
ATOM     24  C   UNL     1      12.137  13.604  18.430  0.00  0.00    +0.000 A 
ATOM     25  C   UNL     1      11.306  14.682  18.167  0.00  0.00    +0.000 A 
ATOM     26  C   UNL     1       9.990  14.456  17.757  0.00  0.00    +0.000 A 
ATOM     27  C   UNL     1       9.452  13.156  17.701  0.00  0.00    +0.000 A 
BRANCH  27  28
ATOM     28  N   UNL     1       8.142  12.993  17.206  0.00  0.00    +0.000 N 
ATOM     29  H   UNL     1       8.124  12.496  16.317  0.00  0.00    +0.000 HD
ATOM     30  H   UNL     1       7.615  13.852  17.149  0.00  0.00    +0.000 HD
ENDBRANCH  27  28
ENDBRANCH  20  22
ENDBRANCH  17  18
ENDBRANCH  16  17
ENDBRANCH   1  16
TORSDOF 8
ENDMDL
MODEL 9
REMARK VINA RESULT:      -7.7      3.206      7.213
REMARK  Name = 
REMARK  9 active torsions:
REMARK  status: ('A' for Active; 'I' for Inactive)
REMARK    1  A    between atoms: C_1  and  C_2
REMARK    2  A    between atoms: N_10  and  C_11
REMARK    3  A    between atoms: C_11  and  C_12
REMARK    4  A    between atoms: C_12  and  C_13
REMARK    5  A    between atoms: C_13  and  C_14
REMARK    6  A    between atoms: C_14  and  C_15
REMARK    7  A    between atoms: C_15  and  C_16
REMARK    8  A    between atoms: N_18  and  C_19
REMARK    9  A    between atoms: C_24  and  N_25
REMARK                            x       y       z     vdW  Elec       q    Type
REMARK                         _______ _______ _______ _____ _____    ______ ____
ROOT
ATOM      1  C   UNL     1       5.519   4.814  18.509  0.00  0.00    +0.000 C 
ENDROOT
BRANCH   1   2
ATOM      2  C   UNL     1       4.150   5.092  19.162  0.00  0.00    +0.000 C 
BRANCH   2   3
ATOM      3  C   UNL     1       3.124   5.764  18.237  0.00  0.00    +0.000 C 
BRANCH   3  13
ATOM      4  C   UNL     1      -0.521  10.188  22.944  0.00  0.00    +0.000 C 
ATOM      5  C   UNL     1       0.189   9.745  21.695  0.00  0.00    +0.000 A 
ATOM      6  C   UNL     1       0.382  10.616  20.595  0.00  0.00    +0.000 A 
ATOM      7  C   UNL     1       1.049  10.186  19.432  0.00  0.00    +0.000 A 
ATOM      8  C   UNL     1       1.505   8.881  19.401  0.00  0.00    +0.000 A 
ATOM      9  C   UNL     1       1.311   8.038  20.477  0.00  0.00    +0.000 A 
ATOM     10  C   UNL     1       0.667   8.432  21.631  0.00  0.00    +0.000 A 
ATOM     11  C   UNL     1       1.899   6.745  20.148  0.00  0.00    +0.000 C 
ATOM     12  O   UNL     1       1.890   5.793  20.900  0.00  0.00    +0.000 OA
ATOM     13  N   UNL     1       2.425   6.860  18.894  0.00  0.00    +0.000 N 
ATOM     14  C   UNL     1       2.226   8.112  18.375  0.00  0.00    +0.000 C 
ATOM     15  O   UNL     1       2.560   8.560  17.293  0.00  0.00    +0.000 OA
ENDBRANCH   3  13
ENDBRANCH   2   3
ENDBRANCH   1   2
BRANCH   1  16
ATOM     16  C   UNL     1       6.596   5.774  19.001  0.00  0.00    +0.000 C 
BRANCH  16  17
ATOM     17  C   UNL     1       7.564   6.291  17.922  0.00  0.00    +0.000 C 
BRANCH  17  18
ATOM     18  C   UNL     1       6.929   6.037  16.560  0.00  0.00    +0.000 C 
ATOM     19  O   UNL     1       5.913   6.653  16.236  0.00  0.00    +0.000 OA
ATOM     20  N   UNL     1       7.548   5.069  15.790  0.00  0.00    +0.000 N 
ATOM     21  H   UNL     1       8.252   4.487  16.209  0.00  0.00    +0.000 HD
BRANCH  20  22
ATOM     22  C   UNL     1       7.085   4.681  14.498  0.00  0.00    +0.000 A 
ATOM     23  C   UNL     1       5.928   3.900  14.349  0.00  0.00    +0.000 A 
ATOM     24  C   UNL     1       5.524   3.423  13.106  0.00  0.00    +0.000 A 
ATOM     25  C   UNL     1       6.237   3.779  11.972  0.00  0.00    +0.000 A 
ATOM     26  C   UNL     1       7.338   4.631  12.087  0.00  0.00    +0.000 A 
ATOM     27  C   UNL     1       7.807   5.057  13.344  0.00  0.00    +0.000 A 
BRANCH  27  28
ATOM     28  N   UNL     1       8.876   5.977  13.385  0.00  0.00    +0.000 N 
ATOM     29  H   UNL     1       9.057   6.317  14.328  0.00  0.00    +0.000 HD
ATOM     30  H   UNL     1       8.781   6.745  12.737  0.00  0.00    +0.000 HD
ENDBRANCH  27  28
ENDBRANCH  20  22
ENDBRANCH  17  18
ENDBRANCH  16  17
ENDBRANCH   1  16
TORSDOF 8
ENDMDL
