MODEL 1
REMARK VINA RESULT:      -7.8      0.000      0.000
REMARK  Name = 
REMARK  4 active torsions:
REMARK  status: ('A' for Active; 'I' for Inactive)
REMARK    1  A    between atoms: C_1  and  C_2
REMARK    2  A    between atoms: N_4  and  C_5
REMARK    3  A    between atoms: C_10  and  C_11
REMARK    4  A    between atoms: C_18  and  O_19
REMARK                            x       y       z     vdW  Elec       q    Type
REMARK                         _______ _______ _______ _____ _____    ______ ____
ROOT
ATOM      1  C   UNL     1       1.347   8.127  20.237  0.00  0.00    +0.000 A 
ATOM      2  C   UNL     1       1.624   8.868  19.083  0.00  0.00    +0.000 A 
ATOM      3  C   UNL     1       2.471   8.366  18.090  0.00  0.00    +0.000 A 
ATOM      4  C   UNL     1       3.046   7.109  18.239  0.00  0.00    +0.000 A 
ATOM      5  O   UNL     1       3.851   6.670  17.223  0.00  0.00    +0.000 OA
ATOM      6  C   UNL     1       4.437   5.425  17.343  0.00  0.00    +0.000 A 
ATOM      7  C   UNL     1       4.275   4.588  18.386  0.00  0.00    +0.000 A 
ATOM      8  C   UNL     1       3.392   5.029  19.506  0.00  0.00    +0.000 A 
ATOM      9  O   UNL     1       3.164   4.329  20.486  0.00  0.00    +0.000 OA
ATOM     10  C   UNL     1       2.786   6.365  19.385  0.00  0.00    +0.000 A 
ATOM     11  C   UNL     1       1.951   6.874  20.394  0.00  0.00    +0.000 A 
ENDROOT
BRANCH   6  12
ATOM     12  C   UNL     1       5.281   5.079  16.189  0.00  0.00    +0.000 A 
ATOM     13  C   UNL     1       6.620   5.496  16.146  0.00  0.00    +0.000 A 
ATOM     14  C   UNL     1       7.402   5.225  15.021  0.00  0.00    +0.000 A 
ATOM     15  C   UNL     1       6.846   4.539  13.947  0.00  0.00    +0.000 A 
ATOM     16  F   UNL     1       7.592   4.296  12.863  0.00  0.00    +0.000 F 
ATOM     17  C   UNL     1       5.524   4.108  13.980  0.00  0.00    +0.000 A 
ATOM     18  C   UNL     1       4.739   4.376  15.103  0.00  0.00    +0.000 A 
ENDBRANCH   6  12
BRANCH   1  22
ATOM     19  C   UNL     1      -0.265   9.513  23.357  0.00  0.00    +0.000 C 
ATOM     20  C   UNL     1       0.885   9.231  22.423  0.00  0.00    +0.000 C 
ATOM     21  O   UNL     1       2.026   9.564  22.726  0.00  0.00    +0.000 OA
ATOM     22  N   UNL     1       0.491   8.590  21.260  0.00  0.00    +0.000 N 
ATOM     23  H   UNL     1      -0.505   8.529  21.083  0.00  0.00    +0.000 HD
ENDBRANCH   1  22
BRANCH   7  24
ATOM     24  O   UNL     1       4.870   3.341  18.489  0.00  0.00    +0.000 OA
ATOM     25  H   UNL     1       5.420   3.311  19.289  0.00  0.00    +0.000 HD
ENDBRANCH   7  24
TORSDOF 3
ENDMDL
MODEL 2
REMARK VINA RESULT:      -7.4      0.388      1.082
REMARK  Name = 
REMARK  4 active torsions:
REMARK  status: ('A' for Active; 'I' for Inactive)
REMARK    1  A    between atoms: C_1  and  C_2
REMARK    2  A    between atoms: N_4  and  C_5
REMARK    3  A    between atoms: C_10  and  C_11
REMARK    4  A    between atoms: C_18  and  O_19
REMARK                            x       y       z     vdW  Elec       q    Type
REMARK                         _______ _______ _______ _____ _____    ______ ____
ROOT
ATOM      1  C   UNL     1       1.473   7.933  20.302  0.00  0.00    +0.000 A 
ATOM      2  C   UNL     1       1.709   8.728  19.175  0.00  0.00    +0.000 A 
ATOM      3  C   UNL     1       2.524   8.275  18.133  0.00  0.00    +0.000 A 
ATOM      4  C   UNL     1       3.106   7.015  18.204  0.00  0.00    +0.000 A 
ATOM      5  O   UNL     1       3.877   6.627  17.142  0.00  0.00    +0.000 OA
ATOM      6  C   UNL     1       4.471   5.380  17.184  0.00  0.00    +0.000 A 
ATOM      7  C   UNL     1       4.346   4.495  18.191  0.00  0.00    +0.000 A 
ATOM      8  C   UNL     1       3.500   4.880  19.361  0.00  0.00    +0.000 A 
ATOM      9  O   UNL     1       3.307   4.134  20.314  0.00  0.00    +0.000 OA
ATOM     10  C   UNL     1       2.887   6.218  19.321  0.00  0.00    +0.000 A 
ATOM     11  C   UNL     1       2.085   6.676  20.381  0.00  0.00    +0.000 A 
ENDROOT
BRANCH   6  12
ATOM     12  C   UNL     1       5.276   5.091  15.988  0.00  0.00    +0.000 A 
ATOM     13  C   UNL     1       4.706   4.406  14.904  0.00  0.00    +0.000 A 
ATOM     14  C   UNL     1       5.488   4.073  13.797  0.00  0.00    +0.000 A 
ATOM     15  C   UNL     1       6.833   4.426  13.774  0.00  0.00    +0.000 A 
ATOM     16  F   UNL     1       7.586   4.091  12.719  0.00  0.00    +0.000 F 
ATOM     17  C   UNL     1       7.409   5.117  14.835  0.00  0.00    +0.000 A 
ATOM     18  C   UNL     1       6.630   5.453  15.943  0.00  0.00    +0.000 A 
ENDBRANCH   6  12
BRANCH   1  22
ATOM     19  C   UNL     1      -0.235   9.656  23.194  0.00  0.00    +0.000 C 
ATOM     20  C   UNL     1       0.718   9.563  22.030  0.00  0.00    +0.000 C 
ATOM     21  O   UNL     1       1.449  10.507  21.750  0.00  0.00    +0.000 OA
ATOM     22  N   UNL     1       0.651   8.344  21.374  0.00  0.00    +0.000 N 
ATOM     23  H   UNL     1      -0.115   7.729  21.623  0.00  0.00    +0.000 HD
ENDBRANCH   1  22
BRANCH   7  24
ATOM     24  O   UNL     1       4.946   3.247  18.217  0.00  0.00    +0.000 OA
ATOM     25  H   UNL     1       5.510   3.144  17.432  0.00  0.00    +0.000 HD
ENDBRANCH   7  24
TORSDOF 3
ENDMDL
MODEL 3
REMARK VINA RESULT:      -7.4      1.123      1.337
REMARK  Name = 
REMARK  4 active torsions:
REMARK  status: ('A' for Active; 'I' for Inactive)
REMARK    1  A    between atoms: C_1  and  C_2
REMARK    2  A    between atoms: N_4  and  C_5
REMARK    3  A    between atoms: C_10  and  C_11
REMARK    4  A    between atoms: C_18  and  O_19
REMARK                            x       y       z     vdW  Elec       q    Type
REMARK                         _______ _______ _______ _____ _____    ______ ____
ROOT
ATOM      1  C   UNL     1       0.687   9.427  20.158  0.00  0.00    +0.000 A 
ATOM      2  C   UNL     1       1.173  10.003  18.979  0.00  0.00    +0.000 A 
ATOM      3  C   UNL     1       2.081   9.319  18.165  0.00  0.00    +0.000 A 
ATOM      4  C   UNL     1       2.507   8.044  18.519  0.00  0.00    +0.000 A 
ATOM      5  O   UNL     1       3.382   7.424  17.668  0.00  0.00    +0.000 OA
ATOM      6  C   UNL     1       3.824   6.156  17.994  0.00  0.00    +0.000 A 
ATOM      7  C   UNL     1       3.456   5.463  19.088  0.00  0.00    +0.000 A 
ATOM      8  C   UNL     1       2.492   6.105  20.031  0.00  0.00    +0.000 A 
ATOM      9  O   UNL     1       2.079   5.544  21.041  0.00  0.00    +0.000 OA
ATOM     10  C   UNL     1       2.039   7.464  19.692  0.00  0.00    +0.000 A 
ATOM     11  C   UNL     1       1.142   8.155  20.524  0.00  0.00    +0.000 A 
ENDROOT
BRANCH   6  12
ATOM     12  C   UNL     1       4.763   5.609  17.003  0.00  0.00    +0.000 A 
ATOM     13  C   UNL     1       6.024   6.199  16.826  0.00  0.00    +0.000 A 
ATOM     14  C   UNL     1       6.888   5.721  15.840  0.00  0.00    +0.000 A 
ATOM     15  C   UNL     1       6.494   4.657  15.037  0.00  0.00    +0.000 A 
ATOM     16  F   UNL     1       7.317   4.211  14.081  0.00  0.00    +0.000 F 
ATOM     17  C   UNL     1       5.253   4.052  15.210  0.00  0.00    +0.000 A 
ATOM     18  C   UNL     1       4.386   4.526  16.195  0.00  0.00    +0.000 A 
ENDBRANCH   6  12
BRANCH   1  22
ATOM     19  C   UNL     1      -1.307  10.903  23.004  0.00  0.00    +0.000 C 
ATOM     20  C   UNL     1      -0.101  10.253  22.374  0.00  0.00    +0.000 C 
ATOM     21  O   UNL     1       0.865   9.941  23.061  0.00  0.00    +0.000 OA
ATOM     22  N   UNL     1      -0.236  10.076  21.006  0.00  0.00    +0.000 N 
ATOM     23  H   UNL     1      -1.023  10.532  20.559  0.00  0.00    +0.000 HD
ENDBRANCH   1  22
BRANCH   7  24
ATOM     24  O   UNL     1       3.908   4.191  19.399  0.00  0.00    +0.000 OA
ATOM     25  H   UNL     1       4.487   4.236  20.178  0.00  0.00    +0.000 HD
ENDBRANCH   7  24
TORSDOF 3
ENDMDL
MODEL 4
REMARK VINA RESULT:      -7.4      1.165      1.622
REMARK  Name = 
REMARK  4 active torsions:
REMARK  status: ('A' for Active; 'I' for Inactive)
REMARK    1  A    between atoms: C_1  and  C_2
REMARK    2  A    between atoms: N_4  and  C_5
REMARK    3  A    between atoms: C_10  and  C_11
REMARK    4  A    between atoms: C_18  and  O_19
REMARK                            x       y       z     vdW  Elec       q    Type
REMARK                         _______ _______ _______ _____ _____    ______ ____
ROOT
ATOM      1  C   UNL     1       0.628   8.879  20.540  0.00  0.00    +0.000 A 
ATOM      2  C   UNL     1       0.983   9.526  19.351  0.00  0.00    +0.000 A 
ATOM      3  C   UNL     1       1.893   8.947  18.461  0.00  0.00    +0.000 A 
ATOM      4  C   UNL     1       2.454   7.708  18.750  0.00  0.00    +0.000 A 
ATOM      5  O   UNL     1       3.324   7.192  17.827  0.00  0.00    +0.000 OA
ATOM      6  C   UNL     1       3.899   5.962  18.086  0.00  0.00    +0.000 A 
ATOM      7  C   UNL     1       3.666   5.212  19.180  0.00  0.00    +0.000 A 
ATOM      8  C   UNL     1       2.711   5.739  20.201  0.00  0.00    +0.000 A 
ATOM      9  O   UNL     1       2.416   5.119  21.217  0.00  0.00    +0.000 OA
ATOM     10  C   UNL     1       2.117   7.059  19.931  0.00  0.00    +0.000 A 
ATOM     11  C   UNL     1       1.218   7.645  20.838  0.00  0.00    +0.000 A 
ENDROOT
BRANCH   6  12
ATOM     12  C   UNL     1       4.817   5.527  17.023  0.00  0.00    +0.000 A 
ATOM     13  C   UNL     1       4.436   4.507  16.139  0.00  0.00    +0.000 A 
ATOM     14  C   UNL     1       5.333   4.047  15.172  0.00  0.00    +0.000 A 
ATOM     15  C   UNL     1       6.602   4.608  15.091  0.00  0.00    +0.000 A 
ATOM     16  F   UNL     1       7.467   4.155  14.175  0.00  0.00    +0.000 F 
ATOM     17  C   UNL     1       6.989   5.630  15.952  0.00  0.00    +0.000 A 
ATOM     18  C   UNL     1       6.096   6.093  16.919  0.00  0.00    +0.000 A 
ENDBRANCH   6  12
BRANCH   1  22
ATOM     19  C   UNL     1      -1.284  10.888  23.101  0.00  0.00    +0.000 C 
ATOM     20  C   UNL     1      -0.181  10.645  22.103  0.00  0.00    +0.000 C 
ATOM     21  O   UNL     1       0.692  11.487  21.925  0.00  0.00    +0.000 OA
ATOM     22  N   UNL     1      -0.293   9.420  21.463  0.00  0.00    +0.000 N 
ATOM     23  H   UNL     1      -1.157   8.907  21.599  0.00  0.00    +0.000 HD
ENDBRANCH   1  22
BRANCH   7  24
ATOM     24  O   UNL     1       4.249   3.979  19.424  0.00  0.00    +0.000 OA
ATOM     25  H   UNL     1       3.858   3.315  18.832  0.00  0.00    +0.000 HD
ENDBRANCH   7  24
TORSDOF 3
ENDMDL
MODEL 5
REMARK VINA RESULT:      -7.1      1.684      2.328
REMARK  Name = 
REMARK  4 active torsions:
REMARK  status: ('A' for Active; 'I' for Inactive)
REMARK    1  A    between atoms: C_1  and  C_2
REMARK    2  A    between atoms: N_4  and  C_5
REMARK    3  A    between atoms: C_10  and  C_11
REMARK    4  A    between atoms: C_18  and  O_19
REMARK                            x       y       z     vdW  Elec       q    Type
REMARK                         _______ _______ _______ _____ _____    ______ ____
ROOT
ATOM      1  C   UNL     1       0.277   9.975  19.780  0.00  0.00    +0.000 A 
ATOM      2  C   UNL     1       0.811  10.456  18.579  0.00  0.00    +0.000 A 
ATOM      3  C   UNL     1       1.793   9.738  17.889  0.00  0.00    +0.000 A 
ATOM      4  C   UNL     1       2.247   8.524  18.391  0.00  0.00    +0.000 A 
ATOM      5  O   UNL     1       3.196   7.866  17.656  0.00  0.00    +0.000 OA
ATOM      6  C   UNL     1       3.668   6.657  18.130  0.00  0.00    +0.000 A 
ATOM      7  C   UNL     1       3.262   6.056  19.265  0.00  0.00    +0.000 A 
ATOM      8  C   UNL     1       2.217   6.741  20.084  0.00  0.00    +0.000 A 
ATOM      9  O   UNL     1       1.766   6.262  21.119  0.00  0.00    +0.000 OA
ATOM     10  C   UNL     1       1.732   8.039  19.587  0.00  0.00    +0.000 A 
ATOM     11  C   UNL     1       0.759   8.765  20.295  0.00  0.00    +0.000 A 
ENDROOT
BRANCH   6  12
ATOM     12  C   UNL     1       4.686   6.060  17.253  0.00  0.00    +0.000 A 
ATOM     13  C   UNL     1       4.357   4.972  16.430  0.00  0.00    +0.000 A 
ATOM     14  C   UNL     1       5.340   4.362  15.648  0.00  0.00    +0.000 A 
ATOM     15  C   UNL     1       6.644   4.841  15.688  0.00  0.00    +0.000 A 
ATOM     16  F   UNL     1       7.589   4.245  14.951  0.00  0.00    +0.000 F 
ATOM     17  C   UNL     1       6.984   5.927  16.489  0.00  0.00    +0.000 A 
ATOM     18  C   UNL     1       6.004   6.540  17.272  0.00  0.00    +0.000 A 
ENDBRANCH   6  12
BRANCH   1  22
ATOM     19  C   UNL     1      -1.780  12.086  22.138  0.00  0.00    +0.000 C 
ATOM     20  C   UNL     1      -0.504  11.614  21.487  0.00  0.00    +0.000 C 
ATOM     21  O   UNL     1       0.578  12.071  21.838  0.00  0.00    +0.000 OA
ATOM     22  N   UNL     1      -0.721  10.659  20.506  0.00  0.00    +0.000 N 
ATOM     23  H   UNL     1      -1.681  10.504  20.219  0.00  0.00    +0.000 HD
ENDBRANCH   1  22
BRANCH   7  24
ATOM     24  O   UNL     1       3.744   4.841  19.725  0.00  0.00    +0.000 OA
ATOM     25  H   UNL     1       3.037   4.177  19.684  0.00  0.00    +0.000 HD
ENDBRANCH   7  24
TORSDOF 3
ENDMDL
MODEL 6
REMARK VINA RESULT:      -7.1      3.010      5.108
REMARK  Name = 
REMARK  4 active torsions:
REMARK  status: ('A' for Active; 'I' for Inactive)
REMARK    1  A    between atoms: C_1  and  C_2
REMARK    2  A    between atoms: N_4  and  C_5
REMARK    3  A    between atoms: C_10  and  C_11
REMARK    4  A    between atoms: C_18  and  O_19
REMARK                            x       y       z     vdW  Elec       q    Type
REMARK                         _______ _______ _______ _____ _____    ______ ____
ROOT
ATOM      1  C   UNL     1      -0.818  11.166  22.474  0.00  0.00    +0.000 A 
ATOM      2  C   UNL     1      -0.487   9.956  23.093  0.00  0.00    +0.000 A 
ATOM      3  C   UNL     1       0.234   8.971  22.411  0.00  0.00    +0.000 A 
ATOM      4  C   UNL     1       0.638   9.190  21.099  0.00  0.00    +0.000 A 
ATOM      5  O   UNL     1       1.355   8.191  20.496  0.00  0.00    +0.000 OA
ATOM      6  C   UNL     1       1.770   8.379  19.192  0.00  0.00    +0.000 A 
ATOM      7  C   UNL     1       1.535   9.482  18.454  0.00  0.00    +0.000 A 
ATOM      8  C   UNL     1       0.767  10.596  19.086  0.00  0.00    +0.000 A 
ATOM      9  O   UNL     1       0.524  11.648  18.504  0.00  0.00    +0.000 OA
ATOM     10  C   UNL     1       0.309  10.383  20.468  0.00  0.00    +0.000 A 
ATOM     11  C   UNL     1      -0.432  11.369  21.143  0.00  0.00    +0.000 A 
ENDROOT
BRANCH   6  12
ATOM     12  C   UNL     1       2.521   7.232  18.662  0.00  0.00    +0.000 A 
ATOM     13  C   UNL     1       3.634   7.441  17.834  0.00  0.00    +0.000 A 
ATOM     14  C   UNL     1       4.307   6.352  17.276  0.00  0.00    +0.000 A 
ATOM     15  C   UNL     1       3.868   5.061  17.549  0.00  0.00    +0.000 A 
ATOM     16  F   UNL     1       4.503   4.018  17.000  0.00  0.00    +0.000 F 
ATOM     17  C   UNL     1       2.775   4.837  18.378  0.00  0.00    +0.000 A 
ATOM     18  C   UNL     1       2.100   5.923  18.939  0.00  0.00    +0.000 A 
ENDBRANCH   6  12
BRANCH   1  22
ATOM     19  C   UNL     1      -2.062  14.318  24.137  0.00  0.00    +0.000 C 
ATOM     20  C   UNL     1      -1.100  13.493  23.320  0.00  0.00    +0.000 C 
ATOM     21  O   UNL     1      -0.058  13.987  22.903  0.00  0.00    +0.000 OA
ATOM     22  N   UNL     1      -1.535  12.192  23.126  0.00  0.00    +0.000 N 
ATOM     23  H   UNL     1      -2.490  11.981  23.394  0.00  0.00    +0.000 HD
ENDBRANCH   1  22
BRANCH   7  24
ATOM     24  O   UNL     1       1.960   9.655  17.147  0.00  0.00    +0.000 OA
ATOM     25  H   UNL     1       1.903  10.596  16.911  0.00  0.00    +0.000 HD
ENDBRANCH   7  24
TORSDOF 3
ENDMDL
MODEL 7
REMARK VINA RESULT:      -7.0      3.315      4.798
REMARK  Name = 
REMARK  4 active torsions:
REMARK  status: ('A' for Active; 'I' for Inactive)
REMARK    1  A    between atoms: C_1  and  C_2
REMARK    2  A    between atoms: N_4  and  C_5
REMARK    3  A    between atoms: C_10  and  C_11
REMARK    4  A    between atoms: C_18  and  O_19
REMARK                            x       y       z     vdW  Elec       q    Type
REMARK                         _______ _______ _______ _____ _____    ______ ____
ROOT
ATOM      1  C   UNL     1      -0.017  11.016  21.851  0.00  0.00    +0.000 A 
ATOM      2  C   UNL     1       0.004   9.861  22.641  0.00  0.00    +0.000 A 
ATOM      3  C   UNL     1       0.547   8.667  22.158  0.00  0.00    +0.000 A 
ATOM      4  C   UNL     1       1.083   8.616  20.876  0.00  0.00    +0.000 A 
ATOM      5  O   UNL     1       1.614   7.421  20.472  0.00  0.00    +0.000 OA
ATOM      6  C   UNL     1       2.153   7.339  19.203  0.00  0.00    +0.000 A 
ATOM      7  C   UNL     1       2.211   8.354  18.318  0.00  0.00    +0.000 A 
ATOM      8  C   UNL     1       1.654   9.676  18.731  0.00  0.00    +0.000 A 
ATOM      9  O   UNL     1       1.682  10.664  18.005  0.00  0.00    +0.000 OA
ATOM     10  C   UNL     1       1.061   9.753  20.077  0.00  0.00    +0.000 A 
ATOM     11  C   UNL     1       0.499  10.951  20.550  0.00  0.00    +0.000 A 
ENDROOT
BRANCH   6  12
ATOM     12  C   UNL     1       2.680   6.003  18.893  0.00  0.00    +0.000 A 
ATOM     13  C   UNL     1       1.952   5.133  18.067  0.00  0.00    +0.000 A 
ATOM     14  C   UNL     1       2.420   3.840  17.827  0.00  0.00    +0.000 A 
ATOM     15  C   UNL     1       3.612   3.421  18.408  0.00  0.00    +0.000 A 
ATOM     16  F   UNL     1       4.050   2.175  18.191  0.00  0.00    +0.000 F 
ATOM     17  C   UNL     1       4.351   4.276  19.219  0.00  0.00    +0.000 A 
ATOM     18  C   UNL     1       3.887   5.570  19.461  0.00  0.00    +0.000 A 
ENDBRANCH   6  12
BRANCH   1  22
ATOM     19  C   UNL     1      -2.065  13.866  23.239  0.00  0.00    +0.000 C 
ATOM     20  C   UNL     1      -1.737  12.417  22.986  0.00  0.00    +0.000 C 
ATOM     21  O   UNL     1      -2.492  11.533  23.376  0.00  0.00    +0.000 OA
ATOM     22  N   UNL     1      -0.546  12.245  22.300  0.00  0.00    +0.000 N 
ATOM     23  H   UNL     1       0.044  13.062  22.189  0.00  0.00    +0.000 HD
ENDBRANCH   1  22
BRANCH   7  24
ATOM     24  O   UNL     1       2.758   8.255  17.049  0.00  0.00    +0.000 OA
ATOM     25  H   UNL     1       3.242   7.417  16.970  0.00  0.00    +0.000 HD
ENDBRANCH   7  24
TORSDOF 3
ENDMDL
MODEL 8
REMARK VINA RESULT:      -7.0      3.018      5.160
REMARK  Name = 
REMARK  4 active torsions:
REMARK  status: ('A' for Active; 'I' for Inactive)
REMARK    1  A    between atoms: C_1  and  C_2
REMARK    2  A    between atoms: N_4  and  C_5
REMARK    3  A    between atoms: C_10  and  C_11
REMARK    4  A    between atoms: C_18  and  O_19
REMARK                            x       y       z     vdW  Elec       q    Type
REMARK                         _______ _______ _______ _____ _____    ______ ____
ROOT
ATOM      1  C   UNL     1      -0.804  11.133  22.486  0.00  0.00    +0.000 A 
ATOM      2  C   UNL     1      -0.473   9.919  23.097  0.00  0.00    +0.000 A 
ATOM      3  C   UNL     1       0.244   8.937  22.405  0.00  0.00    +0.000 A 
ATOM      4  C   UNL     1       0.645   9.164  21.094  0.00  0.00    +0.000 A 
ATOM      5  O   UNL     1       1.358   8.168  20.482  0.00  0.00    +0.000 OA
ATOM      6  C   UNL     1       1.769   8.364  19.178  0.00  0.00    +0.000 A 
ATOM      7  C   UNL     1       1.533   9.472  18.448  0.00  0.00    +0.000 A 
ATOM      8  C   UNL     1       0.770  10.583  19.089  0.00  0.00    +0.000 A 
ATOM      9  O   UNL     1       0.526  11.639  18.515  0.00  0.00    +0.000 OA
ATOM     10  C   UNL     1       0.315  10.362  20.472  0.00  0.00    +0.000 A 
ATOM     11  C   UNL     1      -0.422  11.344  21.155  0.00  0.00    +0.000 A 
ENDROOT
BRANCH   6  12
ATOM     12  C   UNL     1       2.517   7.219  18.638  0.00  0.00    +0.000 A 
ATOM     13  C   UNL     1       2.136   5.910  18.970  0.00  0.00    +0.000 A 
ATOM     14  C   UNL     1       2.886   4.825  18.512  0.00  0.00    +0.000 A 
ATOM     15  C   UNL     1       4.009   5.050  17.724  0.00  0.00    +0.000 A 
ATOM     16  F   UNL     1       4.737   4.010  17.300  0.00  0.00    +0.000 F 
ATOM     17  C   UNL     1       4.392   6.341  17.375  0.00  0.00    +0.000 A 
ATOM     18  C   UNL     1       3.644   7.429  17.830  0.00  0.00    +0.000 A 
ENDBRANCH   6  12
BRANCH   1  22
ATOM     19  C   UNL     1      -2.044  14.283  24.157  0.00  0.00    +0.000 C 
ATOM     20  C   UNL     1      -1.091  13.463  23.325  0.00  0.00    +0.000 C 
ATOM     21  O   UNL     1      -0.063  13.964  22.884  0.00  0.00    +0.000 OA
ATOM     22  N   UNL     1      -1.517  12.156  23.147  0.00  0.00    +0.000 N 
ATOM     23  H   UNL     1      -2.464  11.938  23.436  0.00  0.00    +0.000 HD
ENDBRANCH   1  22
BRANCH   7  24
ATOM     24  O   UNL     1       1.955   9.653  17.141  0.00  0.00    +0.000 OA
ATOM     25  H   UNL     1       2.911   9.490  17.085  0.00  0.00    +0.000 HD
ENDBRANCH   7  24
TORSDOF 3
ENDMDL
MODEL 9
REMARK VINA RESULT:      -7.0      3.396      4.766
REMARK  Name = 
REMARK  4 active torsions:
REMARK  status: ('A' for Active; 'I' for Inactive)
REMARK    1  A    between atoms: C_1  and  C_2
REMARK    2  A    between atoms: N_4  and  C_5
REMARK    3  A    between atoms: C_10  and  C_11
REMARK    4  A    between atoms: C_18  and  O_19
REMARK                            x       y       z     vdW  Elec       q    Type
REMARK                         _______ _______ _______ _____ _____    ______ ____
ROOT
ATOM      1  C   UNL     1      -0.133  10.918  20.893  0.00  0.00    +0.000 A 
ATOM      2  C   UNL     1      -0.180  10.013  21.959  0.00  0.00    +0.000 A 
ATOM      3  C   UNL     1       0.440   8.763  21.872  0.00  0.00    +0.000 A 
ATOM      4  C   UNL     1       1.124   8.407  20.715  0.00  0.00    +0.000 A 
ATOM      5  O   UNL     1       1.723   7.176  20.703  0.00  0.00    +0.000 OA
ATOM      6  C   UNL     1       2.409   6.793  19.567  0.00  0.00    +0.000 A 
ATOM      7  C   UNL     1       2.549   7.541  18.456  0.00  0.00    +0.000 A 
ATOM      8  C   UNL     1       1.919   8.895  18.440  0.00  0.00    +0.000 A 
ATOM      9  O   UNL     1       2.012   9.659  17.485  0.00  0.00    +0.000 OA
ATOM     10  C   UNL     1       1.172   9.291  19.645  0.00  0.00    +0.000 A 
ATOM     11  C   UNL     1       0.533  10.541  19.720  0.00  0.00    +0.000 A 
ENDROOT
BRANCH   6  12
ATOM     12  C   UNL     1       2.997   5.450  19.682  0.00  0.00    +0.000 A 
ATOM     13  C   UNL     1       4.342   5.239  19.344  0.00  0.00    +0.000 A 
ATOM     14  C   UNL     1       4.882   3.953  19.389  0.00  0.00    +0.000 A 
ATOM     15  C   UNL     1       4.080   2.884  19.772  0.00  0.00    +0.000 A 
ATOM     16  F   UNL     1       4.595   1.648  19.798  0.00  0.00    +0.000 F 
ATOM     17  C   UNL     1       2.748   3.078  20.122  0.00  0.00    +0.000 A 
ATOM     18  C   UNL     1       2.205   4.363  20.080  0.00  0.00    +0.000 A 
ENDBRANCH   6  12
BRANCH   1  22
ATOM     19  C   UNL     1      -1.087  14.534  21.404  0.00  0.00    +0.000 C 
ATOM     20  C   UNL     1      -0.143  13.359  21.396  0.00  0.00    +0.000 C 
ATOM     21  O   UNL     1       1.017  13.492  21.769  0.00  0.00    +0.000 OA
ATOM     22  N   UNL     1      -0.736  12.193  20.939  0.00  0.00    +0.000 N 
ATOM     23  H   UNL     1      -1.653  12.278  20.515  0.00  0.00    +0.000 HD
ENDBRANCH   1  22
BRANCH   7  24
ATOM     24  O   UNL     1       3.242   7.142  17.325  0.00  0.00    +0.000 OA
ATOM     25  H   UNL     1       2.656   6.618  16.755  0.00  0.00    +0.000 HD
ENDBRANCH   7  24
TORSDOF 3
ENDMDL
