MODEL 1
REMARK VINA RESULT:      -7.4      0.000      0.000
REMARK  Name = 
REMARK  14 active torsions:
REMARK  status: ('A' for Active; 'I' for Inactive)
REMARK    1  A    between atoms: C_1  and  C_2
REMARK    2  A    between atoms: C_2  and  C_3
REMARK    3  A    between atoms: C_2  and  C_4
REMARK    4  A    between atoms: C_2  and  N_15
REMARK    5  A    between atoms: C_4  and  N_5
REMARK    6  A    between atoms: N_5  and  S_6
REMARK    7  A    between atoms: S_6  and  C_9
REMARK    8  A    between atoms: N_15  and  C_16
REMARK    9  A    between atoms: C_16  and  C_17
REMARK   10  A    between atoms: C_17  and  O_18
REMARK   11  A    between atoms: C_17  and  C_19
REMARK   12  A    between atoms: C_19  and  O_20
REMARK   13  A    between atoms: O_20  and  C_21
REMARK   14  A    between atoms: C_21  and  C_23
REMARK                            x       y       z     vdW  Elec       q    Type
REMARK                         _______ _______ _______ _____ _____    ______ ____
ROOT
ATOM      1  N   UNL     1       3.722   3.172  19.530  0.00  0.00    +0.000 NA
ATOM      2  H   UNL     1       3.607   4.169  19.714  0.00  0.00    +0.000 HD
ENDROOT
BRANCH   1   4
ATOM      3  C   UNL     1       2.759   3.720  17.386  0.00  0.00    +0.000 C 
ATOM      4  C   UNL     1       3.907   2.940  18.074  0.00  0.00    +0.000 C 
ATOM      5  C   UNL     1       3.683   1.469  17.667  0.00  0.00    +0.000 C 
BRANCH   4   6
ATOM      6  C   UNL     1       5.269   3.524  17.600  0.00  0.00    +0.000 C 
BRANCH   6   7
ATOM      7  N   UNL     1       5.156   4.687  16.703  0.00  0.00    +0.000 NA
ATOM      8  H   UNL     1       4.523   5.435  16.978  0.00  0.00    +0.000 HD
BRANCH   7   9
ATOM      9  S   UNL     1       6.622   5.337  16.165  0.00  0.00    +0.000 S 
ATOM     10  O   UNL     1       6.472   6.772  16.186  0.00  0.00    +0.000 OA
ATOM     11  O   UNL     1       7.684   4.674  16.890  0.00  0.00    +0.000 OA
BRANCH   9  12
ATOM     12  C   UNL     1       6.683   4.818  14.466  0.00  0.00    +0.000 A 
ATOM     13  C   UNL     1       5.782   3.852  14.013  0.00  0.00    +0.000 A 
ATOM     14  C   UNL     1       5.858   3.416  12.690  0.00  0.00    +0.000 A 
ATOM     15  C   UNL     1       6.822   3.945  11.828  0.00  0.00    +0.000 A 
ATOM     16  C   UNL     1       7.716   4.914  12.285  0.00  0.00    +0.000 A 
ATOM     17  C   UNL     1       7.650   5.354  13.607  0.00  0.00    +0.000 A 
ENDBRANCH   9  12
ENDBRANCH   7   9
ENDBRANCH   6   7
ENDBRANCH   4   6
ENDBRANCH   1   4
BRANCH   1  18
ATOM     18  C   UNL     1       2.711   2.405  20.285  0.00  0.00    +0.000 C 
BRANCH  18  19
ATOM     19  C   UNL     1       1.619   3.210  21.027  0.00  0.00    +0.000 C 
BRANCH  19  20
ATOM     20  O   UNL     1       1.274   2.607  22.276  0.00  0.00    +0.000 OA
ATOM     21  H   UNL     1       1.551   3.196  22.997  0.00  0.00    +0.000 HD
ENDBRANCH  19  20
BRANCH  19  22
ATOM     22  C   UNL     1       2.072   4.643  21.358  0.00  0.00    +0.000 C 
BRANCH  22  23
ATOM     23  O   UNL     1       1.585   5.566  20.358  0.00  0.00    +0.000 OA
BRANCH  23  24
ATOM     24  C   UNL     1       2.525   6.390  19.843  0.00  0.00    +0.000 C 
ATOM     25  O   UNL     1       3.690   6.081  19.630  0.00  0.00    +0.000 OA
BRANCH  24  26
ATOM     26  C   UNL     1       1.987   7.717  19.480  0.00  0.00    +0.000 A 
ATOM     27  C   UNL     1       2.209   8.179  18.171  0.00  0.00    +0.000 A 
ATOM     28  C   UNL     1       1.791   9.455  17.792  0.00  0.00    +0.000 A 
ATOM     29  C   UNL     1       1.145  10.277  18.714  0.00  0.00    +0.000 A 
ATOM     30  C   UNL     1       0.900   9.814  20.007  0.00  0.00    +0.000 A 
ATOM     31  C   UNL     1       1.318   8.538  20.386  0.00  0.00    +0.000 A 
ATOM     32  F   UNL     1       1.088   8.152  21.648  0.00  0.00    +0.000 F 
ENDBRANCH  24  26
ENDBRANCH  23  24
ENDBRANCH  22  23
ENDBRANCH  19  22
ENDBRANCH  18  19
ENDBRANCH   1  18
TORSDOF 12
ENDMDL
MODEL 2
REMARK VINA RESULT:      -7.1      2.978      6.432
REMARK  Name = 
REMARK  14 active torsions:
REMARK  status: ('A' for Active; 'I' for Inactive)
REMARK    1  A    between atoms: C_1  and  C_2
REMARK    2  A    between atoms: C_2  and  C_3
REMARK    3  A    between atoms: C_2  and  C_4
REMARK    4  A    between atoms: C_2  and  N_15
REMARK    5  A    between atoms: C_4  and  N_5
REMARK    6  A    between atoms: N_5  and  S_6
REMARK    7  A    between atoms: S_6  and  C_9
REMARK    8  A    between atoms: N_15  and  C_16
REMARK    9  A    between atoms: C_16  and  C_17
REMARK   10  A    between atoms: C_17  and  O_18
REMARK   11  A    between atoms: C_17  and  C_19
REMARK   12  A    between atoms: C_19  and  O_20
REMARK   13  A    between atoms: O_20  and  C_21
REMARK   14  A    between atoms: C_21  and  C_23
REMARK                            x       y       z     vdW  Elec       q    Type
REMARK                         _______ _______ _______ _____ _____    ______ ____
ROOT
ATOM      1  N   UNL     1       3.178   2.327  20.567  0.00  0.00    +0.000 NA
ATOM      2  H   UNL     1       2.925   1.397  20.233  0.00  0.00    +0.000 HD
ENDROOT
BRANCH   1   4
ATOM      3  C   UNL     1       1.321   2.473  22.102  0.00  0.00    +0.000 C 
ATOM      4  C   UNL     1       1.952   3.120  20.844  0.00  0.00    +0.000 C 
ATOM      5  C   UNL     1       0.880   2.971  19.745  0.00  0.00    +0.000 C 
BRANCH   4   6
ATOM      6  C   UNL     1       2.321   4.596  21.168  0.00  0.00    +0.000 C 
BRANCH   6   7
ATOM      7  N   UNL     1       1.589   5.597  20.373  0.00  0.00    +0.000 NA
ATOM      8  H   UNL     1       1.076   6.317  20.878  0.00  0.00    +0.000 HD
BRANCH   7   9
ATOM      9  S   UNL     1       2.456   6.291  19.097  0.00  0.00    +0.000 S 
ATOM     10  O   UNL     1       3.851   6.227  19.459  0.00  0.00    +0.000 OA
ATOM     11  O   UNL     1       1.962   5.707  17.869  0.00  0.00    +0.000 OA
BRANCH   9  12
ATOM     12  C   UNL     1       1.952   7.994  19.159  0.00  0.00    +0.000 A 
ATOM     13  C   UNL     1       1.362   8.491  20.323  0.00  0.00    +0.000 A 
ATOM     14  C   UNL     1       0.930   9.818  20.356  0.00  0.00    +0.000 A 
ATOM     15  C   UNL     1       1.092  10.639  19.238  0.00  0.00    +0.000 A 
ATOM     16  C   UNL     1       1.687  10.139  18.079  0.00  0.00    +0.000 A 
ATOM     17  C   UNL     1       2.120   8.812  18.035  0.00  0.00    +0.000 A 
ENDBRANCH   9  12
ENDBRANCH   7   9
ENDBRANCH   6   7
ENDBRANCH   4   6
ENDBRANCH   1   4
BRANCH   1  18
ATOM     18  C   UNL     1       4.253   2.886  19.725  0.00  0.00    +0.000 C 
BRANCH  18  19
ATOM     19  C   UNL     1       4.518   2.200  18.365  0.00  0.00    +0.000 C 
BRANCH  19  20
ATOM     20  O   UNL     1       4.249   0.798  18.418  0.00  0.00    +0.000 OA
ATOM     21  H   UNL     1       4.549   0.452  19.274  0.00  0.00    +0.000 HD
ENDBRANCH  19  20
BRANCH  19  22
ATOM     22  C   UNL     1       3.625   2.760  17.243  0.00  0.00    +0.000 C 
BRANCH  22  23
ATOM     23  O   UNL     1       4.123   4.042  16.799  0.00  0.00    +0.000 OA
BRANCH  23  24
ATOM     24  C   UNL     1       5.400   4.031  16.354  0.00  0.00    +0.000 C 
ATOM     25  O   UNL     1       5.835   3.287  15.485  0.00  0.00    +0.000 OA
BRANCH  24  26
ATOM     26  C   UNL     1       6.234   5.077  16.980  0.00  0.00    +0.000 A 
ATOM     27  C   UNL     1       7.159   4.680  17.961  0.00  0.00    +0.000 A 
ATOM     28  C   UNL     1       7.920   5.631  18.641  0.00  0.00    +0.000 A 
ATOM     29  C   UNL     1       7.768   6.985  18.343  0.00  0.00    +0.000 A 
ATOM     30  C   UNL     1       6.870   7.383  17.352  0.00  0.00    +0.000 A 
ATOM     31  C   UNL     1       6.109   6.432  16.673  0.00  0.00    +0.000 A 
ATOM     32  F   UNL     1       5.237   6.866  15.753  0.00  0.00    +0.000 F 
ENDBRANCH  24  26
ENDBRANCH  23  24
ENDBRANCH  22  23
ENDBRANCH  19  22
ENDBRANCH  18  19
ENDBRANCH   1  18
TORSDOF 12
ENDMDL
MODEL 3
REMARK VINA RESULT:      -7.0      3.428      8.018
REMARK  Name = 
REMARK  14 active torsions:
REMARK  status: ('A' for Active; 'I' for Inactive)
REMARK    1  A    between atoms: C_1  and  C_2
REMARK    2  A    between atoms: C_2  and  C_3
REMARK    3  A    between atoms: C_2  and  C_4
REMARK    4  A    between atoms: C_2  and  N_15
REMARK    5  A    between atoms: C_4  and  N_5
REMARK    6  A    between atoms: N_5  and  S_6
REMARK    7  A    between atoms: S_6  and  C_9
REMARK    8  A    between atoms: N_15  and  C_16
REMARK    9  A    between atoms: C_16  and  C_17
REMARK   10  A    between atoms: C_17  and  O_18
REMARK   11  A    between atoms: C_17  and  C_19
REMARK   12  A    between atoms: C_19  and  O_20
REMARK   13  A    between atoms: O_20  and  C_21
REMARK   14  A    between atoms: C_21  and  C_23
REMARK                            x       y       z     vdW  Elec       q    Type
REMARK                         _______ _______ _______ _____ _____    ______ ____
ROOT
ATOM      1  N   UNL     1       3.888   6.353  17.421  0.00  0.00    +0.000 NA
ATOM      2  H   UNL     1       4.200   7.150  16.865  0.00  0.00    +0.000 HD
ENDROOT
BRANCH   1   4
ATOM      3  C   UNL     1       2.838   6.342  19.593  0.00  0.00    +0.000 C 
ATOM      4  C   UNL     1       2.606   6.677  18.099  0.00  0.00    +0.000 C 
ATOM      5  C   UNL     1       1.447   5.756  17.664  0.00  0.00    +0.000 C 
BRANCH   4   6
ATOM      6  C   UNL     1       2.289   8.194  17.966  0.00  0.00    +0.000 C 
BRANCH   6   7
ATOM      7  N   UNL     1       1.860   8.841  19.218  0.00  0.00    +0.000 NA
ATOM      8  H   UNL     1       2.575   9.046  19.912  0.00  0.00    +0.000 HD
BRANCH   7   9
ATOM      9  S   UNL     1       0.832  10.172  19.035  0.00  0.00    +0.000 S 
ATOM     10  O   UNL     1       1.675  11.319  18.797  0.00  0.00    +0.000 OA
ATOM     11  O   UNL     1      -0.212   9.792  18.108  0.00  0.00    +0.000 OA
BRANCH   9  12
ATOM     12  C   UNL     1       0.119  10.344  20.654  0.00  0.00    +0.000 A 
ATOM     13  C   UNL     1       0.146   9.259  21.532  0.00  0.00    +0.000 A 
ATOM     14  C   UNL     1      -0.449   9.382  22.788  0.00  0.00    +0.000 A 
ATOM     15  C   UNL     1      -1.062  10.581  23.162  0.00  0.00    +0.000 A 
ATOM     16  C   UNL     1      -1.082  11.664  22.282  0.00  0.00    +0.000 A 
ATOM     17  C   UNL     1      -0.491  11.549  21.023  0.00  0.00    +0.000 A 
ENDBRANCH   9  12
ENDBRANCH   7   9
ENDBRANCH   6   7
ENDBRANCH   4   6
ENDBRANCH   1   4
BRANCH   1  18
ATOM     18  C   UNL     1       5.021   5.805  18.191  0.00  0.00    +0.000 C 
BRANCH  18  19
ATOM     19  C   UNL     1       5.870   4.703  17.516  0.00  0.00    +0.000 C 
BRANCH  19  20
ATOM     20  O   UNL     1       6.492   3.849  18.478  0.00  0.00    +0.000 OA
ATOM     21  H   UNL     1       7.137   3.282  18.025  0.00  0.00    +0.000 HD
ENDBRANCH  19  20
BRANCH  19  22
ATOM     22  C   UNL     1       5.025   3.783  16.616  0.00  0.00    +0.000 C 
BRANCH  22  23
ATOM     23  O   UNL     1       3.722   3.568  17.201  0.00  0.00    +0.000 OA
BRANCH  23  24
ATOM     24  C   UNL     1       3.593   2.411  17.889  0.00  0.00    +0.000 C 
ATOM     25  O   UNL     1       4.101   1.344  17.570  0.00  0.00    +0.000 OA
BRANCH  24  26
ATOM     26  C   UNL     1       2.822   2.569  19.139  0.00  0.00    +0.000 A 
ATOM     27  C   UNL     1       1.439   2.796  19.031  0.00  0.00    +0.000 A 
ATOM     28  C   UNL     1       0.670   3.029  20.173  0.00  0.00    +0.000 A 
ATOM     29  C   UNL     1       1.275   3.032  21.428  0.00  0.00    +0.000 A 
ATOM     30  C   UNL     1       2.643   2.782  21.543  0.00  0.00    +0.000 A 
ATOM     31  C   UNL     1       3.411   2.550  20.402  0.00  0.00    +0.000 A 
ATOM     32  F   UNL     1       4.726   2.347  20.561  0.00  0.00    +0.000 F 
ENDBRANCH  24  26
ENDBRANCH  23  24
ENDBRANCH  22  23
ENDBRANCH  19  22
ENDBRANCH  18  19
ENDBRANCH   1  18
TORSDOF 12
ENDMDL
MODEL 4
REMARK VINA RESULT:      -6.9      3.530      8.136
REMARK  Name = 
REMARK  14 active torsions:
REMARK  status: ('A' for Active; 'I' for Inactive)
REMARK    1  A    between atoms: C_1  and  C_2
REMARK    2  A    between atoms: C_2  and  C_3
REMARK    3  A    between atoms: C_2  and  C_4
REMARK    4  A    between atoms: C_2  and  N_15
REMARK    5  A    between atoms: C_4  and  N_5
REMARK    6  A    between atoms: N_5  and  S_6
REMARK    7  A    between atoms: S_6  and  C_9
REMARK    8  A    between atoms: N_15  and  C_16
REMARK    9  A    between atoms: C_16  and  C_17
REMARK   10  A    between atoms: C_17  and  O_18
REMARK   11  A    between atoms: C_17  and  C_19
REMARK   12  A    between atoms: C_19  and  O_20
REMARK   13  A    between atoms: O_20  and  C_21
REMARK   14  A    between atoms: C_21  and  C_23
REMARK                            x       y       z     vdW  Elec       q    Type
REMARK                         _______ _______ _______ _____ _____    ______ ____
ROOT
ATOM      1  N   UNL     1       3.896   7.190  17.709  0.00  0.00    +0.000 NA
ATOM      2  H   UNL     1       4.236   8.143  17.842  0.00  0.00    +0.000 HD
ENDROOT
BRANCH   1   4
ATOM      3  C   UNL     1       2.603   6.952  19.733  0.00  0.00    +0.000 C 
ATOM      4  C   UNL     1       2.496   7.077  18.193  0.00  0.00    +0.000 C 
ATOM      5  C   UNL     1       1.807   5.773  17.739  0.00  0.00    +0.000 C 
BRANCH   4   6
ATOM      6  C   UNL     1       1.695   8.366  17.845  0.00  0.00    +0.000 C 
BRANCH   6   7
ATOM      7  N   UNL     1       1.829   9.452  18.831  0.00  0.00    +0.000 NA
ATOM      8  H   UNL     1       2.722   9.939  18.878  0.00  0.00    +0.000 HD
BRANCH   7   9
ATOM      9  S   UNL     1       0.559  10.569  18.862  0.00  0.00    +0.000 S 
ATOM     10  O   UNL     1       1.144  11.869  18.641  0.00  0.00    +0.000 OA
ATOM     11  O   UNL     1      -0.492  10.054  18.011  0.00  0.00    +0.000 OA
BRANCH   9  12
ATOM     12  C   UNL     1       0.011  10.495  20.550  0.00  0.00    +0.000 A 
ATOM     13  C   UNL     1       0.308   9.367  21.318  0.00  0.00    +0.000 A 
ATOM     14  C   UNL     1      -0.157   9.293  22.631  0.00  0.00    +0.000 A 
ATOM     15  C   UNL     1      -0.909  10.339  23.172  0.00  0.00    +0.000 A 
ATOM     16  C   UNL     1      -1.199  11.466  22.402  0.00  0.00    +0.000 A 
ATOM     17  C   UNL     1      -0.740  11.549  21.086  0.00  0.00    +0.000 A 
ENDBRANCH   9  12
ENDBRANCH   7   9
ENDBRANCH   6   7
ENDBRANCH   4   6
ENDBRANCH   1   4
BRANCH   1  18
ATOM     18  C   UNL     1       4.920   6.226  18.158  0.00  0.00    +0.000 C 
BRANCH  18  19
ATOM     19  C   UNL     1       5.304   5.093  17.179  0.00  0.00    +0.000 C 
BRANCH  19  20
ATOM     20  O   UNL     1       6.472   5.419  16.423  0.00  0.00    +0.000 OA
ATOM     21  H   UNL     1       7.045   5.990  16.960  0.00  0.00    +0.000 HD
ENDBRANCH  19  20
BRANCH  19  22
ATOM     22  C   UNL     1       5.623   3.775  17.906  0.00  0.00    +0.000 C 
BRANCH  22  23
ATOM     23  O   UNL     1       5.266   3.873  19.303  0.00  0.00    +0.000 OA
BRANCH  23  24
ATOM     24  C   UNL     1       4.652   2.778  19.809  0.00  0.00    +0.000 C 
ATOM     25  O   UNL     1       5.223   1.839  20.347  0.00  0.00    +0.000 OA
BRANCH  24  26
ATOM     26  C   UNL     1       3.180   2.853  19.716  0.00  0.00    +0.000 A 
ATOM     27  C   UNL     1       2.492   3.530  20.737  0.00  0.00    +0.000 A 
ATOM     28  C   UNL     1       1.097   3.569  20.745  0.00  0.00    +0.000 A 
ATOM     29  C   UNL     1       0.380   2.936  19.731  0.00  0.00    +0.000 A 
ATOM     30  C   UNL     1       1.058   2.284  18.701  0.00  0.00    +0.000 A 
ATOM     31  C   UNL     1       2.452   2.245  18.694  0.00  0.00    +0.000 A 
ATOM     32  F   UNL     1       3.056   1.579  17.701  0.00  0.00    +0.000 F 
ENDBRANCH  24  26
ENDBRANCH  23  24
ENDBRANCH  22  23
ENDBRANCH  19  22
ENDBRANCH  18  19
ENDBRANCH   1  18
TORSDOF 12
ENDMDL
MODEL 5
REMARK VINA RESULT:      -6.8      2.692      3.782
REMARK  Name = 
REMARK  14 active torsions:
REMARK  status: ('A' for Active; 'I' for Inactive)
REMARK    1  A    between atoms: C_1  and  C_2
REMARK    2  A    between atoms: C_2  and  C_3
REMARK    3  A    between atoms: C_2  and  C_4
REMARK    4  A    between atoms: C_2  and  N_15
REMARK    5  A    between atoms: C_4  and  N_5
REMARK    6  A    between atoms: N_5  and  S_6
REMARK    7  A    between atoms: S_6  and  C_9
REMARK    8  A    between atoms: N_15  and  C_16
REMARK    9  A    between atoms: C_16  and  C_17
REMARK   10  A    between atoms: C_17  and  O_18
REMARK   11  A    between atoms: C_17  and  C_19
REMARK   12  A    between atoms: C_19  and  O_20
REMARK   13  A    between atoms: O_20  and  C_21
REMARK   14  A    between atoms: C_21  and  C_23
REMARK                            x       y       z     vdW  Elec       q    Type
REMARK                         _______ _______ _______ _____ _____    ______ ____
ROOT
ATOM      1  N   UNL     1       3.105   3.690  19.796  0.00  0.00    +0.000 NA
ATOM      2  H   UNL     1       3.709   3.180  20.442  0.00  0.00    +0.000 HD
ENDROOT
BRANCH   1   4
ATOM      3  C   UNL     1       1.514   2.806  18.212  0.00  0.00    +0.000 C 
ATOM      4  C   UNL     1       3.027   2.972  18.497  0.00  0.00    +0.000 C 
ATOM      5  C   UNL     1       3.574   1.531  18.573  0.00  0.00    +0.000 C 
BRANCH   4   6
ATOM      6  C   UNL     1       3.664   3.828  17.364  0.00  0.00    +0.000 C 
BRANCH   6   7
ATOM      7  N   UNL     1       5.041   3.446  17.011  0.00  0.00    +0.000 NA
ATOM      8  H   UNL     1       5.207   2.481  16.734  0.00  0.00    +0.000 HD
BRANCH   7   9
ATOM      9  S   UNL     1       5.840   4.497  15.952  0.00  0.00    +0.000 S 
ATOM     10  O   UNL     1       6.758   3.693  15.183  0.00  0.00    +0.000 OA
ATOM     11  O   UNL     1       4.834   5.320  15.317  0.00  0.00    +0.000 OA
BRANCH   9  12
ATOM     12  C   UNL     1       6.795   5.514  17.053  0.00  0.00    +0.000 A 
ATOM     13  C   UNL     1       7.328   4.952  18.215  0.00  0.00    +0.000 A 
ATOM     14  C   UNL     1       8.043   5.761  19.098  0.00  0.00    +0.000 A 
ATOM     15  C   UNL     1       8.226   7.118  18.820  0.00  0.00    +0.000 A 
ATOM     16  C   UNL     1       7.695   7.674  17.655  0.00  0.00    +0.000 A 
ATOM     17  C   UNL     1       6.976   6.873  16.766  0.00  0.00    +0.000 A 
ENDBRANCH   9  12
ENDBRANCH   7   9
ENDBRANCH   6   7
ENDBRANCH   4   6
ENDBRANCH   1   4
BRANCH   1  18
ATOM     18  C   UNL     1       3.434   5.129  19.834  0.00  0.00    +0.000 C 
BRANCH  18  19
ATOM     19  C   UNL     1       2.253   6.126  19.801  0.00  0.00    +0.000 C 
BRANCH  19  20
ATOM     20  O   UNL     1       2.038   6.735  21.076  0.00  0.00    +0.000 OA
ATOM     21  H   UNL     1       1.730   6.058  21.700  0.00  0.00    +0.000 HD
ENDBRANCH  19  20
BRANCH  19  22
ATOM     22  C   UNL     1       2.493   7.283  18.815  0.00  0.00    +0.000 C 
BRANCH  22  23
ATOM     23  O   UNL     1       1.745   8.451  19.220  0.00  0.00    +0.000 OA
BRANCH  23  24
ATOM     24  C   UNL     1       1.666   9.426  18.285  0.00  0.00    +0.000 C 
ATOM     25  O   UNL     1       2.227   9.404  17.198  0.00  0.00    +0.000 OA
BRANCH  24  26
ATOM     26  C   UNL     1       0.755  10.521  18.675  0.00  0.00    +0.000 A 
ATOM     27  C   UNL     1      -0.606  10.213  18.844  0.00  0.00    +0.000 A 
ATOM     28  C   UNL     1      -1.528  11.219  19.137  0.00  0.00    +0.000 A 
ATOM     29  C   UNL     1      -1.097  12.538  19.269  0.00  0.00    +0.000 A 
ATOM     30  C   UNL     1       0.257  12.846  19.128  0.00  0.00    +0.000 A 
ATOM     31  C   UNL     1       1.177  11.840  18.835  0.00  0.00    +0.000 A 
ATOM     32  F   UNL     1       2.461  12.190  18.677  0.00  0.00    +0.000 F 
ENDBRANCH  24  26
ENDBRANCH  23  24
ENDBRANCH  22  23
ENDBRANCH  19  22
ENDBRANCH  18  19
ENDBRANCH   1  18
TORSDOF 12
ENDMDL
MODEL 6
REMARK VINA RESULT:      -6.8      3.121      4.380
REMARK  Name = 
REMARK  14 active torsions:
REMARK  status: ('A' for Active; 'I' for Inactive)
REMARK    1  A    between atoms: C_1  and  C_2
REMARK    2  A    between atoms: C_2  and  C_3
REMARK    3  A    between atoms: C_2  and  C_4
REMARK    4  A    between atoms: C_2  and  N_15
REMARK    5  A    between atoms: C_4  and  N_5
REMARK    6  A    between atoms: N_5  and  S_6
REMARK    7  A    between atoms: S_6  and  C_9
REMARK    8  A    between atoms: N_15  and  C_16
REMARK    9  A    between atoms: C_16  and  C_17
REMARK   10  A    between atoms: C_17  and  O_18
REMARK   11  A    between atoms: C_17  and  C_19
REMARK   12  A    between atoms: C_19  and  O_20
REMARK   13  A    between atoms: O_20  and  C_21
REMARK   14  A    between atoms: C_21  and  C_23
REMARK                            x       y       z     vdW  Elec       q    Type
REMARK                         _______ _______ _______ _____ _____    ______ ____
ROOT
ATOM      1  N   UNL     1       2.005   5.666  21.326  0.00  0.00    +0.000 NA
ATOM      2  H   UNL     1       2.944   6.033  21.484  0.00  0.00    +0.000 HD
ENDROOT
BRANCH   1   4
ATOM      3  C   UNL     1       0.626   4.040  20.197  0.00  0.00    +0.000 C 
ATOM      4  C   UNL     1       2.081   4.361  20.620  0.00  0.00    +0.000 C 
ATOM      5  C   UNL     1       2.487   3.198  21.549  0.00  0.00    +0.000 C 
BRANCH   4   6
ATOM      6  C   UNL     1       2.962   4.484  19.343  0.00  0.00    +0.000 C 
BRANCH   6   7
ATOM      7  N   UNL     1       4.142   5.351  19.497  0.00  0.00    +0.000 NA
ATOM      8  H   UNL     1       4.234   5.874  20.366  0.00  0.00    +0.000 HD
BRANCH   7   9
ATOM      9  S   UNL     1       5.624   4.644  19.088  0.00  0.00    +0.000 S 
ATOM     10  O   UNL     1       6.652   5.455  19.693  0.00  0.00    +0.000 OA
ATOM     11  O   UNL     1       5.518   3.226  19.359  0.00  0.00    +0.000 OA
BRANCH   9  12
ATOM     12  C   UNL     1       5.702   4.882  17.329  0.00  0.00    +0.000 A 
ATOM     13  C   UNL     1       5.288   6.100  16.784  0.00  0.00    +0.000 A 
ATOM     14  C   UNL     1       5.312   6.271  15.400  0.00  0.00    +0.000 A 
ATOM     15  C   UNL     1       5.749   5.236  14.570  0.00  0.00    +0.000 A 
ATOM     16  C   UNL     1       6.166   4.023  15.120  0.00  0.00    +0.000 A 
ATOM     17  C   UNL     1       6.143   3.841  16.503  0.00  0.00    +0.000 A 
ENDBRANCH   9  12
ENDBRANCH   7   9
ENDBRANCH   6   7
ENDBRANCH   4   6
ENDBRANCH   1   4
BRANCH   1  18
ATOM     18  C   UNL     1       1.127   6.739  20.818  0.00  0.00    +0.000 C 
BRANCH  18  19
ATOM     19  C   UNL     1       1.807   8.034  20.318  0.00  0.00    +0.000 C 
BRANCH  19  20
ATOM     20  O   UNL     1       2.367   7.870  19.014  0.00  0.00    +0.000 OA
ATOM     21  H   UNL     1       2.392   6.924  18.799  0.00  0.00    +0.000 HD
ENDBRANCH  19  20
BRANCH  19  22
ATOM     22  C   UNL     1       0.819   9.209  20.211  0.00  0.00    +0.000 C 
BRANCH  22  23
ATOM     23  O   UNL     1       0.665   9.611  18.832  0.00  0.00    +0.000 OA
BRANCH  23  24
ATOM     24  C   UNL     1       0.125  10.838  18.656  0.00  0.00    +0.000 C 
ATOM     25  O   UNL     1       0.738  11.894  18.736  0.00  0.00    +0.000 OA
BRANCH  24  26
ATOM     26  C   UNL     1      -1.302  10.787  18.275  0.00  0.00    +0.000 A 
ATOM     27  C   UNL     1      -1.669   9.930  17.224  0.00  0.00    +0.000 A 
ATOM     28  C   UNL     1      -2.988   9.894  16.769  0.00  0.00    +0.000 A 
ATOM     29  C   UNL     1      -3.950  10.710  17.364  0.00  0.00    +0.000 A 
ATOM     30  C   UNL     1      -3.595  11.544  18.425  0.00  0.00    +0.000 A 
ATOM     31  C   UNL     1      -2.277  11.579  18.879  0.00  0.00    +0.000 A 
ATOM     32  F   UNL     1      -1.980  12.420  19.879  0.00  0.00    +0.000 F 
ENDBRANCH  24  26
ENDBRANCH  23  24
ENDBRANCH  22  23
ENDBRANCH  19  22
ENDBRANCH  18  19
ENDBRANCH   1  18
TORSDOF 12
ENDMDL
MODEL 7
REMARK VINA RESULT:      -6.8      3.108      4.278
REMARK  Name = 
REMARK  14 active torsions:
REMARK  status: ('A' for Active; 'I' for Inactive)
REMARK    1  A    between atoms: C_1  and  C_2
REMARK    2  A    between atoms: C_2  and  C_3
REMARK    3  A    between atoms: C_2  and  C_4
REMARK    4  A    between atoms: C_2  and  N_15
REMARK    5  A    between atoms: C_4  and  N_5
REMARK    6  A    between atoms: N_5  and  S_6
REMARK    7  A    between atoms: S_6  and  C_9
REMARK    8  A    between atoms: N_15  and  C_16
REMARK    9  A    between atoms: C_16  and  C_17
REMARK   10  A    between atoms: C_17  and  O_18
REMARK   11  A    between atoms: C_17  and  C_19
REMARK   12  A    between atoms: C_19  and  O_20
REMARK   13  A    between atoms: O_20  and  C_21
REMARK   14  A    between atoms: C_21  and  C_23
REMARK                            x       y       z     vdW  Elec       q    Type
REMARK                         _______ _______ _______ _____ _____    ______ ____
ROOT
ATOM      1  N   UNL     1       2.262   6.658  17.883  0.00  0.00    +0.000 NA
ATOM      2  H   UNL     1       1.359   6.288  18.181  0.00  0.00    +0.000 HD
ENDROOT
BRANCH   1   4
ATOM      3  C   UNL     1       2.619   4.282  17.660  0.00  0.00    +0.000 C 
ATOM      4  C   UNL     1       3.312   5.617  18.029  0.00  0.00    +0.000 C 
ATOM      5  C   UNL     1       3.774   5.431  19.489  0.00  0.00    +0.000 C 
BRANCH   4   6
ATOM      6  C   UNL     1       4.476   5.875  17.029  0.00  0.00    +0.000 C 
BRANCH   6   7
ATOM      7  N   UNL     1       5.456   4.780  16.937  0.00  0.00    +0.000 NA
ATOM      8  H   UNL     1       5.154   3.911  16.499  0.00  0.00    +0.000 HD
BRANCH   7   9
ATOM      9  S   UNL     1       6.985   5.217  16.360  0.00  0.00    +0.000 S 
ATOM     10  O   UNL     1       7.055   6.657  16.419  0.00  0.00    +0.000 OA
ATOM     11  O   UNL     1       7.957   4.381  17.031  0.00  0.00    +0.000 OA
BRANCH   9  12
ATOM     12  C   UNL     1       6.912   4.742  14.650  0.00  0.00    +0.000 A 
ATOM     13  C   UNL     1       7.788   5.334  13.737  0.00  0.00    +0.000 A 
ATOM     14  C   UNL     1       7.702   4.990  12.387  0.00  0.00    +0.000 A 
ATOM     15  C   UNL     1       6.753   4.060  11.957  0.00  0.00    +0.000 A 
ATOM     16  C   UNL     1       5.883   3.468  12.874  0.00  0.00    +0.000 A 
ATOM     17  C   UNL     1       5.960   3.807  14.225  0.00  0.00    +0.000 A 
ENDBRANCH   9  12
ENDBRANCH   7   9
ENDBRANCH   6   7
ENDBRANCH   4   6
ENDBRANCH   1   4
BRANCH   1  18
ATOM     18  C   UNL     1       2.464   8.006  18.451  0.00  0.00    +0.000 C 
BRANCH  18  19
ATOM     19  C   UNL     1       1.431   8.498  19.491  0.00  0.00    +0.000 C 
BRANCH  19  20
ATOM     20  O   UNL     1       1.806   8.139  20.822  0.00  0.00    +0.000 OA
ATOM     21  H   UNL     1       1.517   7.229  20.996  0.00  0.00    +0.000 HD
ENDBRANCH  19  20
BRANCH  19  22
ATOM     22  C   UNL     1       1.285  10.030  19.490  0.00  0.00    +0.000 C 
BRANCH  22  23
ATOM     23  O   UNL     1       0.270  10.437  18.546  0.00  0.00    +0.000 OA
BRANCH  23  24
ATOM     24  C   UNL     1      -0.957  10.632  19.083  0.00  0.00    +0.000 C 
ATOM     25  O   UNL     1      -1.182  10.826  20.270  0.00  0.00    +0.000 OA
BRANCH  24  26
ATOM     26  C   UNL     1      -2.028  10.663  18.066  0.00  0.00    +0.000 A 
ATOM     27  C   UNL     1      -1.876   9.853  16.928  0.00  0.00    +0.000 A 
ATOM     28  C   UNL     1      -2.817   9.896  15.898  0.00  0.00    +0.000 A 
ATOM     29  C   UNL     1      -3.919  10.744  16.000  0.00  0.00    +0.000 A 
ATOM     30  C   UNL     1      -4.089  11.531  17.140  0.00  0.00    +0.000 A 
ATOM     31  C   UNL     1      -3.148  11.488  18.168  0.00  0.00    +0.000 A 
ATOM     32  F   UNL     1      -3.338  12.286  19.227  0.00  0.00    +0.000 F 
ENDBRANCH  24  26
ENDBRANCH  23  24
ENDBRANCH  22  23
ENDBRANCH  19  22
ENDBRANCH  18  19
ENDBRANCH   1  18
TORSDOF 12
ENDMDL
MODEL 8
REMARK VINA RESULT:      -6.8      3.742      7.927
REMARK  Name = 
REMARK  14 active torsions:
REMARK  status: ('A' for Active; 'I' for Inactive)
REMARK    1  A    between atoms: C_1  and  C_2
REMARK    2  A    between atoms: C_2  and  C_3
REMARK    3  A    between atoms: C_2  and  C_4
REMARK    4  A    between atoms: C_2  and  N_15
REMARK    5  A    between atoms: C_4  and  N_5
REMARK    6  A    between atoms: N_5  and  S_6
REMARK    7  A    between atoms: S_6  and  C_9
REMARK    8  A    between atoms: N_15  and  C_16
REMARK    9  A    between atoms: C_16  and  C_17
REMARK   10  A    between atoms: C_17  and  O_18
REMARK   11  A    between atoms: C_17  and  C_19
REMARK   12  A    between atoms: C_19  and  O_20
REMARK   13  A    between atoms: O_20  and  C_21
REMARK   14  A    between atoms: C_21  and  C_23
REMARK                            x       y       z     vdW  Elec       q    Type
REMARK                         _______ _______ _______ _____ _____    ______ ____
ROOT
ATOM      1  N   UNL     1       3.973   7.012  18.265  0.00  0.00    +0.000 NA
ATOM      2  H   UNL     1       4.163   6.209  18.864  0.00  0.00    +0.000 HD
ENDROOT
BRANCH   1   4
ATOM      3  C   UNL     1       2.217   7.318  19.891  0.00  0.00    +0.000 C 
ATOM      4  C   UNL     1       2.546   7.407  18.380  0.00  0.00    +0.000 C 
ATOM      5  C   UNL     1       1.588   6.401  17.708  0.00  0.00    +0.000 C 
BRANCH   4   6
ATOM      6  C   UNL     1       2.348   8.876  17.906  0.00  0.00    +0.000 C 
BRANCH   6   7
ATOM      7  N   UNL     1       0.945   9.262  17.681  0.00  0.00    +0.000 NA
ATOM      8  H   UNL     1       0.263   8.515  17.564  0.00  0.00    +0.000 HD
BRANCH   7   9
ATOM      9  S   UNL     1       0.336  10.442  18.729  0.00  0.00    +0.000 S 
ATOM     10  O   UNL     1       0.325   9.860  20.049  0.00  0.00    +0.000 OA
ATOM     11  O   UNL     1       1.039  11.675  18.449  0.00  0.00    +0.000 OA
BRANCH   9  12
ATOM     12  C   UNL     1      -1.349  10.615  18.192  0.00  0.00    +0.000 A 
ATOM     13  C   UNL     1      -1.792   9.889  17.084  0.00  0.00    +0.000 A 
ATOM     14  C   UNL     1      -3.104  10.056  16.639  0.00  0.00    +0.000 A 
ATOM     15  C   UNL     1      -3.965  10.936  17.299  0.00  0.00    +0.000 A 
ATOM     16  C   UNL     1      -3.518  11.656  18.408  0.00  0.00    +0.000 A 
ATOM     17  C   UNL     1      -2.207  11.497  18.860  0.00  0.00    +0.000 A 
ENDBRANCH   9  12
ENDBRANCH   7   9
ENDBRANCH   6   7
ENDBRANCH   4   6
ENDBRANCH   1   4
BRANCH   1  18
ATOM     18  C   UNL     1       4.584   6.802  16.937  0.00  0.00    +0.000 C 
BRANCH  18  19
ATOM     19  C   UNL     1       5.952   6.084  16.892  0.00  0.00    +0.000 C 
BRANCH  19  20
ATOM     20  O   UNL     1       6.706   6.303  18.086  0.00  0.00    +0.000 OA
ATOM     21  H   UNL     1       6.713   5.485  18.609  0.00  0.00    +0.000 HD
ENDBRANCH  19  20
BRANCH  19  22
ATOM     22  C   UNL     1       5.808   4.558  16.757  0.00  0.00    +0.000 C 
BRANCH  22  23
ATOM     23  O   UNL     1       4.519   4.130  17.252  0.00  0.00    +0.000 OA
BRANCH  23  24
ATOM     24  C   UNL     1       4.527   3.658  18.519  0.00  0.00    +0.000 C 
ATOM     25  O   UNL     1       5.532   3.460  19.189  0.00  0.00    +0.000 OA
BRANCH  24  26
ATOM     26  C   UNL     1       3.169   3.463  19.067  0.00  0.00    +0.000 A 
ATOM     27  C   UNL     1       2.888   4.008  20.331  0.00  0.00    +0.000 A 
ATOM     28  C   UNL     1       1.648   3.793  20.934  0.00  0.00    +0.000 A 
ATOM     29  C   UNL     1       0.679   3.037  20.276  0.00  0.00    +0.000 A 
ATOM     30  C   UNL     1       0.943   2.515  19.010  0.00  0.00    +0.000 A 
ATOM     31  C   UNL     1       2.183   2.730  18.408  0.00  0.00    +0.000 A 
ATOM     32  F   UNL     1       2.401   2.182  17.205  0.00  0.00    +0.000 F 
ENDBRANCH  24  26
ENDBRANCH  23  24
ENDBRANCH  22  23
ENDBRANCH  19  22
ENDBRANCH  18  19
ENDBRANCH   1  18
TORSDOF 12
ENDMDL
MODEL 9
REMARK VINA RESULT:      -6.7      3.349      7.472
REMARK  Name = 
REMARK  14 active torsions:
REMARK  status: ('A' for Active; 'I' for Inactive)
REMARK    1  A    between atoms: C_1  and  C_2
REMARK    2  A    between atoms: C_2  and  C_3
REMARK    3  A    between atoms: C_2  and  C_4
REMARK    4  A    between atoms: C_2  and  N_15
REMARK    5  A    between atoms: C_4  and  N_5
REMARK    6  A    between atoms: N_5  and  S_6
REMARK    7  A    between atoms: S_6  and  C_9
REMARK    8  A    between atoms: N_15  and  C_16
REMARK    9  A    between atoms: C_16  and  C_17
REMARK   10  A    between atoms: C_17  and  O_18
REMARK   11  A    between atoms: C_17  and  C_19
REMARK   12  A    between atoms: C_19  and  O_20
REMARK   13  A    between atoms: O_20  and  C_21
REMARK   14  A    between atoms: C_21  and  C_23
REMARK                            x       y       z     vdW  Elec       q    Type
REMARK                         _______ _______ _______ _____ _____    ______ ____
ROOT
ATOM      1  N   UNL     1       2.184   4.419  19.257  0.00  0.00    +0.000 NA
ATOM      2  H   UNL     1       2.121   4.182  18.266  0.00  0.00    +0.000 HD
ENDROOT
BRANCH   1   4
ATOM      3  C   UNL     1       2.082   6.511  18.059  0.00  0.00    +0.000 C 
ATOM      4  C   UNL     1       2.459   5.870  19.418  0.00  0.00    +0.000 C 
ATOM      5  C   UNL     1       3.960   6.181  19.597  0.00  0.00    +0.000 C 
BRANCH   4   6
ATOM      6  C   UNL     1       1.553   6.475  20.529  0.00  0.00    +0.000 C 
BRANCH   6   7
ATOM      7  N   UNL     1       1.952   7.820  20.976  0.00  0.00    +0.000 NA
ATOM      8  H   UNL     1       2.482   8.396  20.326  0.00  0.00    +0.000 HD
BRANCH   7   9
ATOM      9  S   UNL     1       0.729   8.739  21.700  0.00  0.00    +0.000 S 
ATOM     10  O   UNL     1      -0.466   7.930  21.680  0.00  0.00    +0.000 OA
ATOM     11  O   UNL     1       1.262   9.276  22.934  0.00  0.00    +0.000 OA
BRANCH   9  12
ATOM     12  C   UNL     1       0.506  10.074  20.549  0.00  0.00    +0.000 A 
ATOM     13  C   UNL     1       1.060   9.976  19.271  0.00  0.00    +0.000 A 
ATOM     14  C   UNL     1       0.919  11.042  18.382  0.00  0.00    +0.000 A 
ATOM     15  C   UNL     1       0.226  12.192  18.767  0.00  0.00    +0.000 A 
ATOM     16  C   UNL     1      -0.330  12.283  20.044  0.00  0.00    +0.000 A 
ATOM     17  C   UNL     1      -0.192  11.223  20.941  0.00  0.00    +0.000 A 
ENDBRANCH   9  12
ENDBRANCH   7   9
ENDBRANCH   6   7
ENDBRANCH   4   6
ENDBRANCH   1   4
BRANCH   1  18
ATOM     18  C   UNL     1       3.016   3.420  19.958  0.00  0.00    +0.000 C 
BRANCH  18  19
ATOM     19  C   UNL     1       4.311   2.955  19.252  0.00  0.00    +0.000 C 
BRANCH  19  20
ATOM     20  O   UNL     1       4.825   1.753  19.827  0.00  0.00    +0.000 OA
ATOM     21  H   UNL     1       5.723   1.920  20.156  0.00  0.00    +0.000 HD
ENDBRANCH  19  20
BRANCH  19  22
ATOM     22  C   UNL     1       4.087   2.650  17.760  0.00  0.00    +0.000 C 
BRANCH  22  23
ATOM     23  O   UNL     1       4.250   3.851  16.973  0.00  0.00    +0.000 OA
BRANCH  23  24
ATOM     24  C   UNL     1       5.462   3.982  16.386  0.00  0.00    +0.000 C 
ATOM     25  O   UNL     1       5.851   3.334  15.424  0.00  0.00    +0.000 OA
BRANCH  24  26
ATOM     26  C   UNL     1       6.273   5.063  16.983  0.00  0.00    +0.000 A 
ATOM     27  C   UNL     1       7.232   4.707  17.947  0.00  0.00    +0.000 A 
ATOM     28  C   UNL     1       7.975   5.691  18.601  0.00  0.00    +0.000 A 
ATOM     29  C   UNL     1       7.770   7.035  18.294  0.00  0.00    +0.000 A 
ATOM     30  C   UNL     1       6.838   7.392  17.319  0.00  0.00    +0.000 A 
ATOM     31  C   UNL     1       6.095   6.409  16.666  0.00  0.00    +0.000 A 
ATOM     32  F   UNL     1       5.189   6.804  15.761  0.00  0.00    +0.000 F 
ENDBRANCH  24  26
ENDBRANCH  23  24
ENDBRANCH  22  23
ENDBRANCH  19  22
ENDBRANCH  18  19
ENDBRANCH   1  18
TORSDOF 12
ENDMDL
