MODEL 1
REMARK VINA RESULT:      -8.3      0.000      0.000
REMARK  Name = 
REMARK  11 active torsions:
REMARK  status: ('A' for Active; 'I' for Inactive)
REMARK    1  A    between atoms: C_1  and  C_2
REMARK    2  A    between atoms: C_2  and  O_3
REMARK    3  A    between atoms: O_3  and  C_4
REMARK    4  A    between atoms: C_4  and  C_6
REMARK    5  A    between atoms: C_6  and  O_7
REMARK    6  A    between atoms: O_7  and  C_8
REMARK    7  A    between atoms: C_11  and  C_12
REMARK    8  A    between atoms: C_12  and  C_13
REMARK    9  A    between atoms: C_13  and  C_14
REMARK   10  A    between atoms: C_14  and  N_15
REMARK   11  A    between atoms: C_25  and  C_26
REMARK                            x       y       z     vdW  Elec       q    Type
REMARK                         _______ _______ _______ _____ _____    ______ ____
ROOT
ATOM      1  N   UNL     1       5.375   4.658  16.618  0.00  0.00    +0.000 N 
ATOM      2  N   UNL     1       4.948   5.428  15.580  0.00  0.00    +0.000 NA
ATOM      3  C   UNL     1       5.576   6.598  15.760  0.00  0.00    +0.000 A 
ATOM      4  C   UNL     1       6.381   6.557  16.886  0.00  0.00    +0.000 A 
ATOM      5  C   UNL     1       6.262   5.304  17.445  0.00  0.00    +0.000 A 
ATOM      6  N   UNL     1       6.877   4.797  18.562  0.00  0.00    +0.000 NA
ATOM      7  C   UNL     1       7.718   5.621  19.161  0.00  0.00    +0.000 A 
ATOM      8  N   UNL     1       8.415   5.223  20.281  0.00  0.00    +0.000 N 
ATOM      9  N   UNL     1       7.923   6.947  18.678  0.00  0.00    +0.000 N 
ATOM     10  N   UNL     1       8.740   7.871  19.233  0.00  0.00    +0.000 NA
ATOM     11  C   UNL     1       8.544   8.915  18.399  0.00  0.00    +0.000 A 
ATOM     12  N   UNL     1       7.635   8.696  17.377  0.00  0.00    +0.000 NA
ATOM     13  C   UNL     1       7.284   7.454  17.583  0.00  0.00    +0.000 A 
ATOM     14  H   UNL     1       8.019   4.440  20.781  0.00  0.00    +0.000 HD
ATOM     15  H   UNL     1       8.803   5.969  20.853  0.00  0.00    +0.000 HD
ENDROOT
BRANCH  11  16
ATOM     16  C   UNL     1       9.251  10.225  18.525  0.00  0.00    +0.000 A 
ATOM     17  C   UNL     1       9.493  10.879  19.720  0.00  0.00    +0.000 A 
ATOM     18  C   UNL     1      10.163  12.083  19.404  0.00  0.00    +0.000 A 
ATOM     19  C   UNL     1      10.284  12.100  18.034  0.00  0.00    +0.000 A 
ATOM     20  O   UNL     1       9.749  10.975  17.493  0.00  0.00    +0.000 OA
ENDBRANCH  11  16
BRANCH   1  21
ATOM     21  C   UNL     1       4.864   3.307  16.756  0.00  0.00    +0.000 C 
BRANCH  21  22
ATOM     22  C   UNL     1       3.937   3.178  17.961  0.00  0.00    +0.000 C 
BRANCH  22  23
ATOM     23  C   UNL     1       2.573   3.810  17.685  0.00  0.00    +0.000 C 
BRANCH  23  27
ATOM     24  C   UNL     1       1.987   7.447  19.936  0.00  0.00    +0.000 A 
ATOM     25  C   UNL     1       1.679   6.209  20.499  0.00  0.00    +0.000 A 
ATOM     26  C   UNL     1       1.878   5.033  19.777  0.00  0.00    +0.000 A 
ATOM     27  C   UNL     1       2.378   5.085  18.471  0.00  0.00    +0.000 A 
ATOM     28  C   UNL     1       2.657   6.334  17.900  0.00  0.00    +0.000 A 
ATOM     29  C   UNL     1       2.462   7.513  18.629  0.00  0.00    +0.000 A 
BRANCH  24  30
ATOM     30  O   UNL     1       1.737   8.515  20.746  0.00  0.00    +0.000 OA
BRANCH  30  31
ATOM     31  C   UNL     1       0.918   8.281  21.886  0.00  0.00    +0.000 C 
BRANCH  31  32
ATOM     32  C   UNL     1       0.659   9.619  22.557  0.00  0.00    +0.000 C 
ATOM     33  O   UNL     1       0.189   9.782  23.676  0.00  0.00    +0.000 OA
BRANCH  32  34
ATOM     34  O   UNL     1       0.971  10.630  21.692  0.00  0.00    +0.000 OA
BRANCH  34  36
ATOM     35  C   UNL     1      -0.095  11.375  19.691  0.00  0.00    +0.000 C 
ATOM     36  C   UNL     1      -0.158  11.372  21.207  0.00  0.00    +0.000 C 
ENDBRANCH  34  36
ENDBRANCH  32  34
ENDBRANCH  31  32
ENDBRANCH  30  31
ENDBRANCH  24  30
ENDBRANCH  23  27
ENDBRANCH  22  23
ENDBRANCH  21  22
ENDBRANCH   1  21
TORSDOF 10
ENDMDL
MODEL 2
REMARK VINA RESULT:      -8.1      3.513      4.883
REMARK  Name = 
REMARK  11 active torsions:
REMARK  status: ('A' for Active; 'I' for Inactive)
REMARK    1  A    between atoms: C_1  and  C_2
REMARK    2  A    between atoms: C_2  and  O_3
REMARK    3  A    between atoms: O_3  and  C_4
REMARK    4  A    between atoms: C_4  and  C_6
REMARK    5  A    between atoms: C_6  and  O_7
REMARK    6  A    between atoms: O_7  and  C_8
REMARK    7  A    between atoms: C_11  and  C_12
REMARK    8  A    between atoms: C_12  and  C_13
REMARK    9  A    between atoms: C_13  and  C_14
REMARK   10  A    between atoms: C_14  and  N_15
REMARK   11  A    between atoms: C_25  and  C_26
REMARK                            x       y       z     vdW  Elec       q    Type
REMARK                         _______ _______ _______ _____ _____    ______ ____
ROOT
ATOM      1  N   UNL     1       3.236   2.487  19.754  0.00  0.00    +0.000 N 
ATOM      2  N   UNL     1       2.464   1.812  18.858  0.00  0.00    +0.000 NA
ATOM      3  C   UNL     1       2.996   2.121  17.668  0.00  0.00    +0.000 A 
ATOM      4  C   UNL     1       4.080   2.970  17.818  0.00  0.00    +0.000 A 
ATOM      5  C   UNL     1       4.247   3.208  19.165  0.00  0.00    +0.000 A 
ATOM      6  N   UNL     1       5.194   3.976  19.793  0.00  0.00    +0.000 NA
ATOM      7  C   UNL     1       6.080   4.539  18.991  0.00  0.00    +0.000 A 
ATOM      8  N   UNL     1       7.095   5.319  19.502  0.00  0.00    +0.000 N 
ATOM      9  N   UNL     1       6.009   4.370  17.577  0.00  0.00    +0.000 N 
ATOM     10  N   UNL     1       6.850   4.923  16.673  0.00  0.00    +0.000 NA
ATOM     11  C   UNL     1       6.327   4.451  15.521  0.00  0.00    +0.000 A 
ATOM     12  N   UNL     1       5.198   3.662  15.660  0.00  0.00    +0.000 NA
ATOM     13  C   UNL     1       5.045   3.628  16.957  0.00  0.00    +0.000 A 
ATOM     14  H   UNL     1       6.933   5.686  20.428  0.00  0.00    +0.000 HD
ATOM     15  H   UNL     1       7.549   5.947  18.844  0.00  0.00    +0.000 HD
ENDROOT
BRANCH  11  16
ATOM     16  C   UNL     1       6.906   4.727  14.171  0.00  0.00    +0.000 A 
ATOM     17  C   UNL     1       6.515   4.098  13.002  0.00  0.00    +0.000 A 
ATOM     18  C   UNL     1       7.314   4.626  11.961  0.00  0.00    +0.000 A 
ATOM     19  C   UNL     1       8.153   5.539  12.556  0.00  0.00    +0.000 A 
ATOM     20  O   UNL     1       7.906   5.619  13.890  0.00  0.00    +0.000 OA
ENDBRANCH  11  16
BRANCH   1  21
ATOM     21  C   UNL     1       2.922   2.400  21.168  0.00  0.00    +0.000 C 
BRANCH  21  22
ATOM     22  C   UNL     1       2.335   3.707  21.693  0.00  0.00    +0.000 C 
BRANCH  22  23
ATOM     23  C   UNL     1       1.205   4.212  20.794  0.00  0.00    +0.000 C 
BRANCH  23  27
ATOM     24  C   UNL     1       2.106   8.108  19.166  0.00  0.00    +0.000 A 
ATOM     25  C   UNL     1       2.377   6.954  18.432  0.00  0.00    +0.000 A 
ATOM     26  C   UNL     1       2.077   5.696  18.952  0.00  0.00    +0.000 A 
ATOM     27  C   UNL     1       1.510   5.577  20.226  0.00  0.00    +0.000 A 
ATOM     28  C   UNL     1       1.267   6.739  20.972  0.00  0.00    +0.000 A 
ATOM     29  C   UNL     1       1.565   8.002  20.445  0.00  0.00    +0.000 A 
BRANCH  24  30
ATOM     30  O   UNL     1       2.456   9.270  18.545  0.00  0.00    +0.000 OA
BRANCH  30  31
ATOM     31  C   UNL     1       1.454   9.907  17.760  0.00  0.00    +0.000 C 
BRANCH  31  32
ATOM     32  C   UNL     1       0.593  10.743  18.692  0.00  0.00    +0.000 C 
ATOM     33  O   UNL     1      -0.631  10.757  18.720  0.00  0.00    +0.000 OA
BRANCH  32  34
ATOM     34  O   UNL     1       1.396  11.539  19.461  0.00  0.00    +0.000 OA
BRANCH  34  36
ATOM     35  C   UNL     1       2.418  13.261  18.162  0.00  0.00    +0.000 C 
ATOM     36  C   UNL     1       1.317  12.939  19.156  0.00  0.00    +0.000 C 
ENDBRANCH  34  36
ENDBRANCH  32  34
ENDBRANCH  31  32
ENDBRANCH  30  31
ENDBRANCH  24  30
ENDBRANCH  23  27
ENDBRANCH  22  23
ENDBRANCH  21  22
ENDBRANCH   1  21
TORSDOF 10
ENDMDL
MODEL 3
REMARK VINA RESULT:      -8.0      3.471      4.794
REMARK  Name = 
REMARK  11 active torsions:
REMARK  status: ('A' for Active; 'I' for Inactive)
REMARK    1  A    between atoms: C_1  and  C_2
REMARK    2  A    between atoms: C_2  and  O_3
REMARK    3  A    between atoms: O_3  and  C_4
REMARK    4  A    between atoms: C_4  and  C_6
REMARK    5  A    between atoms: C_6  and  O_7
REMARK    6  A    between atoms: O_7  and  C_8
REMARK    7  A    between atoms: C_11  and  C_12
REMARK    8  A    between atoms: C_12  and  C_13
REMARK    9  A    between atoms: C_13  and  C_14
REMARK   10  A    between atoms: C_14  and  N_15
REMARK   11  A    between atoms: C_25  and  C_26
REMARK                            x       y       z     vdW  Elec       q    Type
REMARK                         _______ _______ _______ _____ _____    ______ ____
ROOT
ATOM      1  N   UNL     1       3.427   2.512  19.853  0.00  0.00    +0.000 N 
ATOM      2  N   UNL     1       2.680   1.775  18.986  0.00  0.00    +0.000 NA
ATOM      3  C   UNL     1       3.192   2.066  17.782  0.00  0.00    +0.000 A 
ATOM      4  C   UNL     1       4.239   2.965  17.897  0.00  0.00    +0.000 A 
ATOM      5  C   UNL     1       4.402   3.255  19.233  0.00  0.00    +0.000 A 
ATOM      6  N   UNL     1       5.319   4.085  19.828  0.00  0.00    +0.000 NA
ATOM      7  C   UNL     1       6.175   4.658  19.002  0.00  0.00    +0.000 A 
ATOM      8  N   UNL     1       7.158   5.498  19.479  0.00  0.00    +0.000 N 
ATOM      9  N   UNL     1       6.104   4.438  17.595  0.00  0.00    +0.000 N 
ATOM     10  N   UNL     1       6.915   4.996  16.667  0.00  0.00    +0.000 NA
ATOM     11  C   UNL     1       6.407   4.463  15.535  0.00  0.00    +0.000 A 
ATOM     12  N   UNL     1       5.315   3.630  15.709  0.00  0.00    +0.000 NA
ATOM     13  C   UNL     1       5.169   3.634  17.007  0.00  0.00    +0.000 A 
ATOM     14  H   UNL     1       6.986   5.889  20.393  0.00  0.00    +0.000 HD
ATOM     15  H   UNL     1       7.581   6.122  18.797  0.00  0.00    +0.000 HD
ENDROOT
BRANCH  11  16
ATOM     16  C   UNL     1       6.967   4.716  14.173  0.00  0.00    +0.000 A 
ATOM     17  C   UNL     1       6.594   4.036  13.028  0.00  0.00    +0.000 A 
ATOM     18  C   UNL     1       7.365   4.560  11.965  0.00  0.00    +0.000 A 
ATOM     19  C   UNL     1       8.171   5.524  12.523  0.00  0.00    +0.000 A 
ATOM     20  O   UNL     1       7.929   5.637  13.856  0.00  0.00    +0.000 OA
ENDBRANCH  11  16
BRANCH   1  21
ATOM     21  C   UNL     1       3.124   2.461  21.271  0.00  0.00    +0.000 C 
BRANCH  21  22
ATOM     22  C   UNL     1       2.036   3.461  21.649  0.00  0.00    +0.000 C 
BRANCH  22  23
ATOM     23  C   UNL     1       1.195   3.855  20.435  0.00  0.00    +0.000 C 
BRANCH  23  27
ATOM     24  C   UNL     1       2.294   7.743  18.910  0.00  0.00    +0.000 A 
ATOM     25  C   UNL     1       1.972   7.576  20.257  0.00  0.00    +0.000 A 
ATOM     26  C   UNL     1       1.627   6.319  20.753  0.00  0.00    +0.000 A 
ATOM     27  C   UNL     1       1.588   5.211  19.898  0.00  0.00    +0.000 A 
ATOM     28  C   UNL     1       1.884   5.390  18.540  0.00  0.00    +0.000 A 
ATOM     29  C   UNL     1       2.236   6.653  18.046  0.00  0.00    +0.000 A 
BRANCH  24  30
ATOM     30  O   UNL     1       2.604   9.022  18.557  0.00  0.00    +0.000 OA
BRANCH  30  31
ATOM     31  C   UNL     1       1.617   9.745  17.829  0.00  0.00    +0.000 C 
BRANCH  31  32
ATOM     32  C   UNL     1       1.269  10.990  18.627  0.00  0.00    +0.000 C 
ATOM     33  O   UNL     1       1.776  12.096  18.490  0.00  0.00    +0.000 OA
BRANCH  32  34
ATOM     34  O   UNL     1       0.340  10.675  19.580  0.00  0.00    +0.000 OA
BRANCH  34  36
ATOM     35  C   UNL     1      -0.023  10.924  21.925  0.00  0.00    +0.000 C 
ATOM     36  C   UNL     1       0.186  11.658  20.613  0.00  0.00    +0.000 C 
ENDBRANCH  34  36
ENDBRANCH  32  34
ENDBRANCH  31  32
ENDBRANCH  30  31
ENDBRANCH  24  30
ENDBRANCH  23  27
ENDBRANCH  22  23
ENDBRANCH  21  22
ENDBRANCH   1  21
TORSDOF 10
ENDMDL
MODEL 4
REMARK VINA RESULT:      -8.0      0.771      1.266
REMARK  Name = 
REMARK  11 active torsions:
REMARK  status: ('A' for Active; 'I' for Inactive)
REMARK    1  A    between atoms: C_1  and  C_2
REMARK    2  A    between atoms: C_2  and  O_3
REMARK    3  A    between atoms: O_3  and  C_4
REMARK    4  A    between atoms: C_4  and  C_6
REMARK    5  A    between atoms: C_6  and  O_7
REMARK    6  A    between atoms: O_7  and  C_8
REMARK    7  A    between atoms: C_11  and  C_12
REMARK    8  A    between atoms: C_12  and  C_13
REMARK    9  A    between atoms: C_13  and  C_14
REMARK   10  A    between atoms: C_14  and  N_15
REMARK   11  A    between atoms: C_25  and  C_26
REMARK                            x       y       z     vdW  Elec       q    Type
REMARK                         _______ _______ _______ _____ _____    ______ ____
ROOT
ATOM      1  N   UNL     1       5.353   4.708  16.702  0.00  0.00    +0.000 N 
ATOM      2  N   UNL     1       4.885   5.480  15.683  0.00  0.00    +0.000 NA
ATOM      3  C   UNL     1       5.503   6.657  15.853  0.00  0.00    +0.000 A 
ATOM      4  C   UNL     1       6.341   6.619  16.954  0.00  0.00    +0.000 A 
ATOM      5  C   UNL     1       6.255   5.360  17.507  0.00  0.00    +0.000 A 
ATOM      6  N   UNL     1       6.910   4.853  18.601  0.00  0.00    +0.000 NA
ATOM      7  C   UNL     1       7.758   5.684  19.181  0.00  0.00    +0.000 A 
ATOM      8  N   UNL     1       8.493   5.288  20.277  0.00  0.00    +0.000 N 
ATOM      9  N   UNL     1       7.930   7.017  18.702  0.00  0.00    +0.000 N 
ATOM     10  N   UNL     1       8.751   7.948  19.241  0.00  0.00    +0.000 NA
ATOM     11  C   UNL     1       8.517   8.994  18.420  0.00  0.00    +0.000 A 
ATOM     12  N   UNL     1       7.580   8.771  17.425  0.00  0.00    +0.000 NA
ATOM     13  C   UNL     1       7.252   7.523  17.631  0.00  0.00    +0.000 A 
ATOM     14  H   UNL     1       8.122   4.496  20.782  0.00  0.00    +0.000 HD
ATOM     15  H   UNL     1       8.888   6.034  20.843  0.00  0.00    +0.000 HD
ENDROOT
BRANCH  11  16
ATOM     16  C   UNL     1       9.210  10.313  18.536  0.00  0.00    +0.000 A 
ATOM     17  C   UNL     1       9.759  10.817  19.701  0.00  0.00    +0.000 A 
ATOM     18  C   UNL     1      10.297  12.087  19.390  0.00  0.00    +0.000 A 
ATOM     19  C   UNL     1      10.037  12.290  18.056  0.00  0.00    +0.000 A 
ATOM     20  O   UNL     1       9.392  11.218  17.525  0.00  0.00    +0.000 OA
ENDBRANCH  11  16
BRANCH   1  21
ATOM     21  C   UNL     1       4.865   3.350  16.844  0.00  0.00    +0.000 C 
BRANCH  21  22
ATOM     22  C   UNL     1       3.340   3.294  16.804  0.00  0.00    +0.000 C 
BRANCH  22  23
ATOM     23  C   UNL     1       2.752   3.098  18.201  0.00  0.00    +0.000 C 
BRANCH  23  27
ATOM     24  C   UNL     1       1.851   6.881  20.079  0.00  0.00    +0.000 A 
ATOM     25  C   UNL     1       2.245   6.830  18.742  0.00  0.00    +0.000 A 
ATOM     26  C   UNL     1       2.526   5.609  18.132  0.00  0.00    +0.000 A 
ATOM     27  C   UNL     1       2.427   4.417  18.861  0.00  0.00    +0.000 A 
ATOM     28  C   UNL     1       2.059   4.477  20.212  0.00  0.00    +0.000 A 
ATOM     29  C   UNL     1       1.772   5.705  20.821  0.00  0.00    +0.000 A 
BRANCH  24  30
ATOM     30  O   UNL     1       1.615   8.137  20.553  0.00  0.00    +0.000 OA
BRANCH  30  31
ATOM     31  C   UNL     1       0.476   8.306  21.389  0.00  0.00    +0.000 C 
BRANCH  31  32
ATOM     32  C   UNL     1       0.835   9.314  22.468  0.00  0.00    +0.000 C 
ATOM     33  O   UNL     1       1.964   9.562  22.872  0.00  0.00    +0.000 OA
BRANCH  32  34
ATOM     34  O   UNL     1      -0.309   9.864  22.976  0.00  0.00    +0.000 OA
BRANCH  34  36
ATOM     35  C   UNL     1      -1.875  11.654  23.166  0.00  0.00    +0.000 C 
ATOM     36  C   UNL     1      -0.659  11.139  22.419  0.00  0.00    +0.000 C 
ENDBRANCH  34  36
ENDBRANCH  32  34
ENDBRANCH  31  32
ENDBRANCH  30  31
ENDBRANCH  24  30
ENDBRANCH  23  27
ENDBRANCH  22  23
ENDBRANCH  21  22
ENDBRANCH   1  21
TORSDOF 10
ENDMDL
MODEL 5
REMARK VINA RESULT:      -7.8      3.529      4.801
REMARK  Name = 
REMARK  11 active torsions:
REMARK  status: ('A' for Active; 'I' for Inactive)
REMARK    1  A    between atoms: C_1  and  C_2
REMARK    2  A    between atoms: C_2  and  O_3
REMARK    3  A    between atoms: O_3  and  C_4
REMARK    4  A    between atoms: C_4  and  C_6
REMARK    5  A    between atoms: C_6  and  O_7
REMARK    6  A    between atoms: O_7  and  C_8
REMARK    7  A    between atoms: C_11  and  C_12
REMARK    8  A    between atoms: C_12  and  C_13
REMARK    9  A    between atoms: C_13  and  C_14
REMARK   10  A    between atoms: C_14  and  N_15
REMARK   11  A    between atoms: C_25  and  C_26
REMARK                            x       y       z     vdW  Elec       q    Type
REMARK                         _______ _______ _______ _____ _____    ______ ____
ROOT
ATOM      1  N   UNL     1       3.370   2.582  19.806  0.00  0.00    +0.000 N 
ATOM      2  N   UNL     1       2.587   1.892  18.932  0.00  0.00    +0.000 NA
ATOM      3  C   UNL     1       3.101   2.185  17.730  0.00  0.00    +0.000 A 
ATOM      4  C   UNL     1       4.185   3.038  17.853  0.00  0.00    +0.000 A 
ATOM      5  C   UNL     1       4.370   3.297  19.193  0.00  0.00    +0.000 A 
ATOM      6  N   UNL     1       5.324   4.077  19.796  0.00  0.00    +0.000 NA
ATOM      7  C   UNL     1       6.197   4.630  18.974  0.00  0.00    +0.000 A 
ATOM      8  N   UNL     1       7.217   5.420  19.458  0.00  0.00    +0.000 N 
ATOM      9  N   UNL     1       6.106   4.439  17.563  0.00  0.00    +0.000 N 
ATOM     10  N   UNL     1       6.933   4.981  16.639  0.00  0.00    +0.000 NA
ATOM     11  C   UNL     1       6.396   4.491  15.502  0.00  0.00    +0.000 A 
ATOM     12  N   UNL     1       5.271   3.700  15.669  0.00  0.00    +0.000 NA
ATOM     13  C   UNL     1       5.136   3.685  16.968  0.00  0.00    +0.000 A 
ATOM     14  H   UNL     1       7.067   5.801  20.381  0.00  0.00    +0.000 HD
ATOM     15  H   UNL     1       7.660   6.039  18.784  0.00  0.00    +0.000 HD
ENDROOT
BRANCH  11  16
ATOM     16  C   UNL     1       6.955   4.747  14.140  0.00  0.00    +0.000 A 
ATOM     17  C   UNL     1       6.555   4.095  12.987  0.00  0.00    +0.000 A 
ATOM     18  C   UNL     1       7.336   4.610  11.927  0.00  0.00    +0.000 A 
ATOM     19  C   UNL     1       8.175   5.541  12.495  0.00  0.00    +0.000 A 
ATOM     20  O   UNL     1       7.943   5.642  13.830  0.00  0.00    +0.000 OA
ENDBRANCH  11  16
BRANCH   1  21
ATOM     21  C   UNL     1       3.076   2.517  21.226  0.00  0.00    +0.000 C 
BRANCH  21  22
ATOM     22  C   UNL     1       2.281   3.733  21.691  0.00  0.00    +0.000 C 
BRANCH  22  23
ATOM     23  C   UNL     1       1.269   4.176  20.634  0.00  0.00    +0.000 C 
BRANCH  23  27
ATOM     24  C   UNL     1       1.824   8.303  19.492  0.00  0.00    +0.000 A 
ATOM     25  C   UNL     1       1.251   7.979  20.722  0.00  0.00    +0.000 A 
ATOM     26  C   UNL     1       1.081   6.647  21.096  0.00  0.00    +0.000 A 
ATOM     27  C   UNL     1       1.474   5.617  20.233  0.00  0.00    +0.000 A 
ATOM     28  C   UNL     1       2.022   5.948  18.986  0.00  0.00    +0.000 A 
ATOM     29  C   UNL     1       2.196   7.287  18.614  0.00  0.00    +0.000 A 
BRANCH  24  30
ATOM     30  O   UNL     1       1.924   9.640  19.248  0.00  0.00    +0.000 OA
BRANCH  30  31
ATOM     31  C   UNL     1       1.059  10.495  19.986  0.00  0.00    +0.000 C 
BRANCH  31  32
ATOM     32  C   UNL     1       0.096  11.143  19.006  0.00  0.00    +0.000 C 
ATOM     33  O   UNL     1      -0.956  10.660  18.607  0.00  0.00    +0.000 OA
BRANCH  32  34
ATOM     34  O   UNL     1       0.616  12.333  18.576  0.00  0.00    +0.000 OA
BRANCH  34  36
ATOM     35  C   UNL     1      -0.431  14.297  19.437  0.00  0.00    +0.000 C 
ATOM     36  C   UNL     1      -0.362  13.336  18.265  0.00  0.00    +0.000 C 
ENDBRANCH  34  36
ENDBRANCH  32  34
ENDBRANCH  31  32
ENDBRANCH  30  31
ENDBRANCH  24  30
ENDBRANCH  23  27
ENDBRANCH  22  23
ENDBRANCH  21  22
ENDBRANCH   1  21
TORSDOF 10
ENDMDL
MODEL 6
REMARK VINA RESULT:      -7.8      3.942      6.063
REMARK  Name = 
REMARK  11 active torsions:
REMARK  status: ('A' for Active; 'I' for Inactive)
REMARK    1  A    between atoms: C_1  and  C_2
REMARK    2  A    between atoms: C_2  and  O_3
REMARK    3  A    between atoms: O_3  and  C_4
REMARK    4  A    between atoms: C_4  and  C_6
REMARK    5  A    between atoms: C_6  and  O_7
REMARK    6  A    between atoms: O_7  and  C_8
REMARK    7  A    between atoms: C_11  and  C_12
REMARK    8  A    between atoms: C_12  and  C_13
REMARK    9  A    between atoms: C_13  and  C_14
REMARK   10  A    between atoms: C_14  and  N_15
REMARK   11  A    between atoms: C_25  and  C_26
REMARK                            x       y       z     vdW  Elec       q    Type
REMARK                         _______ _______ _______ _____ _____    ______ ____
ROOT
ATOM      1  N   UNL     1       2.295   7.139  19.652  0.00  0.00    +0.000 N 
ATOM      2  N   UNL     1       2.032   8.209  18.852  0.00  0.00    +0.000 NA
ATOM      3  C   UNL     1       2.777   7.992  17.760  0.00  0.00    +0.000 A 
ATOM      4  C   UNL     1       3.488   6.809  17.875  0.00  0.00    +0.000 A 
ATOM      5  C   UNL     1       3.179   6.247  19.094  0.00  0.00    +0.000 A 
ATOM      6  N   UNL     1       3.631   5.073  19.640  0.00  0.00    +0.000 NA
ATOM      7  C   UNL     1       4.454   4.378  18.875  0.00  0.00    +0.000 A 
ATOM      8  N   UNL     1       4.961   3.171  19.302  0.00  0.00    +0.000 N 
ATOM      9  N   UNL     1       4.852   4.860  17.593  0.00  0.00    +0.000 N 
ATOM     10  N   UNL     1       5.706   4.238  16.748  0.00  0.00    +0.000 NA
ATOM     11  C   UNL     1       5.728   5.115  15.721  0.00  0.00    +0.000 A 
ATOM     12  N   UNL     1       4.958   6.253  15.896  0.00  0.00    +0.000 NA
ATOM     13  C   UNL     1       4.421   6.045  17.068  0.00  0.00    +0.000 A 
ATOM     14  H   UNL     1       4.939   3.021  20.300  0.00  0.00    +0.000 HD
ATOM     15  H   UNL     1       5.792   2.841  18.818  0.00  0.00    +0.000 HD
ENDROOT
BRANCH  11  16
ATOM     16  C   UNL     1       6.503   4.903  14.462  0.00  0.00    +0.000 A 
ATOM     17  C   UNL     1       6.190   3.968  13.490  0.00  0.00    +0.000 A 
ATOM     18  C   UNL     1       7.174   4.075  12.481  0.00  0.00    +0.000 A 
ATOM     19  C   UNL     1       8.037   5.062  12.897  0.00  0.00    +0.000 A 
ATOM     20  O   UNL     1       7.633   5.579  14.087  0.00  0.00    +0.000 OA
ENDBRANCH  11  16
BRANCH   1  21
ATOM     21  C   UNL     1       1.666   7.057  20.957  0.00  0.00    +0.000 C 
BRANCH  21  22
ATOM     22  C   UNL     1       1.403   8.443  21.541  0.00  0.00    +0.000 C 
BRANCH  22  23
ATOM     23  C   UNL     1      -0.095   8.744  21.608  0.00  0.00    +0.000 C 
BRANCH  23  27
ATOM     24  C   UNL     1      -0.947  12.779  20.329  0.00  0.00    +0.000 A 
ATOM     25  C   UNL     1      -0.842  11.748  19.396  0.00  0.00    +0.000 A 
ATOM     26  C   UNL     1      -0.577  10.443  19.808  0.00  0.00    +0.000 A 
ATOM     27  C   UNL     1      -0.401  10.155  21.167  0.00  0.00    +0.000 A 
ATOM     28  C   UNL     1      -0.479  11.201  22.098  0.00  0.00    +0.000 A 
ATOM     29  C   UNL     1      -0.751  12.510  21.681  0.00  0.00    +0.000 A 
BRANCH  24  30
ATOM     30  O   UNL     1      -1.200  14.005  19.791  0.00  0.00    +0.000 OA
BRANCH  30  31
ATOM     31  C   UNL     1      -0.285  14.479  18.809  0.00  0.00    +0.000 C 
BRANCH  31  32
ATOM     32  C   UNL     1       0.745  15.347  19.512  0.00  0.00    +0.000 C 
ATOM     33  O   UNL     1       0.508  16.208  20.349  0.00  0.00    +0.000 OA
BRANCH  32  34
ATOM     34  O   UNL     1       1.989  15.068  19.017  0.00  0.00    +0.000 OA
BRANCH  34  36
ATOM     35  C   UNL     1       2.731  13.603  20.749  0.00  0.00    +0.000 C 
ATOM     36  C   UNL     1       2.446  13.731  19.264  0.00  0.00    +0.000 C 
ENDBRANCH  34  36
ENDBRANCH  32  34
ENDBRANCH  31  32
ENDBRANCH  30  31
ENDBRANCH  24  30
ENDBRANCH  23  27
ENDBRANCH  22  23
ENDBRANCH  21  22
ENDBRANCH   1  21
TORSDOF 10
ENDMDL
MODEL 7
REMARK VINA RESULT:      -7.8      4.514      8.155
REMARK  Name = 
REMARK  11 active torsions:
REMARK  status: ('A' for Active; 'I' for Inactive)
REMARK    1  A    between atoms: C_1  and  C_2
REMARK    2  A    between atoms: C_2  and  O_3
REMARK    3  A    between atoms: O_3  and  C_4
REMARK    4  A    between atoms: C_4  and  C_6
REMARK    5  A    between atoms: C_6  and  O_7
REMARK    6  A    between atoms: O_7  and  C_8
REMARK    7  A    between atoms: C_11  and  C_12
REMARK    8  A    between atoms: C_12  and  C_13
REMARK    9  A    between atoms: C_13  and  C_14
REMARK   10  A    between atoms: C_14  and  N_15
REMARK   11  A    between atoms: C_25  and  C_26
REMARK                            x       y       z     vdW  Elec       q    Type
REMARK                         _______ _______ _______ _____ _____    ______ ____
ROOT
ATOM      1  N   UNL     1       1.906   7.056  20.221  0.00  0.00    +0.000 N 
ATOM      2  N   UNL     1       2.426   7.266  18.981  0.00  0.00    +0.000 NA
ATOM      3  C   UNL     1       2.096   8.533  18.698  0.00  0.00    +0.000 A 
ATOM      4  C   UNL     1       1.386   9.103  19.741  0.00  0.00    +0.000 A 
ATOM      5  C   UNL     1       1.263   8.156  20.734  0.00  0.00    +0.000 A 
ATOM      6  N   UNL     1       0.650   8.266  21.957  0.00  0.00    +0.000 NA
ATOM      7  C   UNL     1       0.134   9.453  22.221  0.00  0.00    +0.000 A 
ATOM      8  N   UNL     1      -0.490   9.697  23.425  0.00  0.00    +0.000 N 
ATOM      9  N   UNL     1       0.196  10.513  21.269  0.00  0.00    +0.000 N 
ATOM     10  N   UNL     1      -0.321  11.752  21.433  0.00  0.00    +0.000 NA
ATOM     11  C   UNL     1       0.008  12.322  20.254  0.00  0.00    +0.000 A 
ATOM     12  N   UNL     1       0.675  11.498  19.363  0.00  0.00    +0.000 NA
ATOM     13  C   UNL     1       0.782  10.387  20.041  0.00  0.00    +0.000 A 
ATOM     14  H   UNL     1      -0.808   8.877  23.920  0.00  0.00    +0.000 HD
ATOM     15  H   UNL     1      -1.108  10.504  23.451  0.00  0.00    +0.000 HD
ENDROOT
BRANCH  11  16
ATOM     16  C   UNL     1      -0.294  13.743  19.903  0.00  0.00    +0.000 A 
ATOM     17  C   UNL     1       0.334  14.458  18.899  0.00  0.00    +0.000 A 
ATOM     18  C   UNL     1      -0.223  15.757  18.906  0.00  0.00    +0.000 A 
ATOM     19  C   UNL     1      -1.152  15.764  19.920  0.00  0.00    +0.000 A 
ATOM     20  O   UNL     1      -1.213  14.547  20.521  0.00  0.00    +0.000 OA
ENDBRANCH  11  16
BRANCH   1  21
ATOM     21  C   UNL     1       2.054   5.752  20.842  0.00  0.00    +0.000 C 
BRANCH  21  22
ATOM     22  C   UNL     1       0.877   4.838  20.514  0.00  0.00    +0.000 C 
BRANCH  22  23
ATOM     23  C   UNL     1       1.349   3.428  20.159  0.00  0.00    +0.000 C 
BRANCH  23  27
ATOM     24  C   UNL     1       4.533   3.477  17.242  0.00  0.00    +0.000 A 
ATOM     25  C   UNL     1       3.229   3.806  16.873  0.00  0.00    +0.000 A 
ATOM     26  C   UNL     1       2.202   3.801  17.815  0.00  0.00    +0.000 A 
ATOM     27  C   UNL     1       2.468   3.452  19.145  0.00  0.00    +0.000 A 
ATOM     28  C   UNL     1       3.774   3.093  19.504  0.00  0.00    +0.000 A 
ATOM     29  C   UNL     1       4.805   3.104  18.556  0.00  0.00    +0.000 A 
BRANCH  24  30
ATOM     30  O   UNL     1       5.437   3.513  16.223  0.00  0.00    +0.000 OA
BRANCH  30  31
ATOM     31  C   UNL     1       5.538   4.732  15.495  0.00  0.00    +0.000 C 
BRANCH  31  32
ATOM     32  C   UNL     1       7.008   5.106  15.413  0.00  0.00    +0.000 C 
ATOM     33  O   UNL     1       7.623   5.379  14.390  0.00  0.00    +0.000 OA
BRANCH  32  34
ATOM     34  O   UNL     1       7.569   5.027  16.657  0.00  0.00    +0.000 OA
BRANCH  34  36
ATOM     35  C   UNL     1       7.325   5.687  18.937  0.00  0.00    +0.000 C 
ATOM     36  C   UNL     1       7.325   6.164  17.497  0.00  0.00    +0.000 C 
ENDBRANCH  34  36
ENDBRANCH  32  34
ENDBRANCH  31  32
ENDBRANCH  30  31
ENDBRANCH  24  30
ENDBRANCH  23  27
ENDBRANCH  22  23
ENDBRANCH  21  22
ENDBRANCH   1  21
TORSDOF 10
ENDMDL
MODEL 8
REMARK VINA RESULT:      -7.7      1.337      1.905
REMARK  Name = 
REMARK  11 active torsions:
REMARK  status: ('A' for Active; 'I' for Inactive)
REMARK    1  A    between atoms: C_1  and  C_2
REMARK    2  A    between atoms: C_2  and  O_3
REMARK    3  A    between atoms: O_3  and  C_4
REMARK    4  A    between atoms: C_4  and  C_6
REMARK    5  A    between atoms: C_6  and  O_7
REMARK    6  A    between atoms: O_7  and  C_8
REMARK    7  A    between atoms: C_11  and  C_12
REMARK    8  A    between atoms: C_12  and  C_13
REMARK    9  A    between atoms: C_13  and  C_14
REMARK   10  A    between atoms: C_14  and  N_15
REMARK   11  A    between atoms: C_25  and  C_26
REMARK                            x       y       z     vdW  Elec       q    Type
REMARK                         _______ _______ _______ _____ _____    ______ ____
ROOT
ATOM      1  N   UNL     1       5.361   4.708  16.639  0.00  0.00    +0.000 N 
ATOM      2  N   UNL     1       4.938   5.438  15.570  0.00  0.00    +0.000 NA
ATOM      3  C   UNL     1       5.566   6.614  15.708  0.00  0.00    +0.000 A 
ATOM      4  C   UNL     1       6.365   6.616  16.838  0.00  0.00    +0.000 A 
ATOM      5  C   UNL     1       6.244   5.385  17.444  0.00  0.00    +0.000 A 
ATOM      6  N   UNL     1       6.854   4.921  18.582  0.00  0.00    +0.000 NA
ATOM      7  C   UNL     1       7.693   5.767  19.153  0.00  0.00    +0.000 A 
ATOM      8  N   UNL     1       8.384   5.412  20.291  0.00  0.00    +0.000 N 
ATOM      9  N   UNL     1       7.900   7.074  18.620  0.00  0.00    +0.000 N 
ATOM     10  N   UNL     1       8.715   8.019  19.144  0.00  0.00    +0.000 NA
ATOM     11  C   UNL     1       8.523   9.029  18.269  0.00  0.00    +0.000 A 
ATOM     12  N   UNL     1       7.618   8.772  17.253  0.00  0.00    +0.000 NA
ATOM     13  C   UNL     1       7.266   7.539  17.504  0.00  0.00    +0.000 A 
ATOM     14  H   UNL     1       7.986   4.649  20.818  0.00  0.00    +0.000 HD
ATOM     15  H   UNL     1       8.770   6.179  20.835  0.00  0.00    +0.000 HD
ENDROOT
BRANCH  11  16
ATOM     16  C   UNL     1       9.230  10.343  18.348  0.00  0.00    +0.000 A 
ATOM     17  C   UNL     1       8.757  11.527  17.810  0.00  0.00    +0.000 A 
ATOM     18  C   UNL     1       9.724  12.522  18.084  0.00  0.00    +0.000 A 
ATOM     19  C   UNL     1      10.736  11.886  18.766  0.00  0.00    +0.000 A 
ATOM     20  O   UNL     1      10.441  10.572  18.944  0.00  0.00    +0.000 OA
ENDBRANCH  11  16
BRANCH   1  21
ATOM     21  C   UNL     1       4.849   3.363  16.826  0.00  0.00    +0.000 C 
BRANCH  21  22
ATOM     22  C   UNL     1       3.382   3.374  17.247  0.00  0.00    +0.000 C 
BRANCH  22  23
ATOM     23  C   UNL     1       3.237   3.580  18.755  0.00  0.00    +0.000 C 
BRANCH  23  27
ATOM     24  C   UNL     1       1.810   7.548  19.685  0.00  0.00    +0.000 A 
ATOM     25  C   UNL     1       2.333   7.261  18.425  0.00  0.00    +0.000 A 
ATOM     26  C   UNL     1       2.785   5.978  18.120  0.00  0.00    +0.000 A 
ATOM     27  C   UNL     1       2.728   4.964  19.083  0.00  0.00    +0.000 A 
ATOM     28  C   UNL     1       2.228   5.265  20.357  0.00  0.00    +0.000 A 
ATOM     29  C   UNL     1       1.771   6.554  20.660  0.00  0.00    +0.000 A 
BRANCH  24  30
ATOM     30  O   UNL     1       1.414   8.841  19.853  0.00  0.00    +0.000 OA
BRANCH  30  31
ATOM     31  C   UNL     1       1.323   9.644  18.682  0.00  0.00    +0.000 C 
BRANCH  31  32
ATOM     32  C   UNL     1      -0.123  10.086  18.531  0.00  0.00    +0.000 C 
ATOM     33  O   UNL     1      -0.865   9.808  17.597  0.00  0.00    +0.000 OA
BRANCH  32  34
ATOM     34  O   UNL     1      -0.459  10.908  19.571  0.00  0.00    +0.000 OA
BRANCH  34  36
ATOM     35  C   UNL     1      -2.365  12.343  19.630  0.00  0.00    +0.000 C 
ATOM     36  C   UNL     1      -0.922  12.209  19.181  0.00  0.00    +0.000 C 
ENDBRANCH  34  36
ENDBRANCH  32  34
ENDBRANCH  31  32
ENDBRANCH  30  31
ENDBRANCH  24  30
ENDBRANCH  23  27
ENDBRANCH  22  23
ENDBRANCH  21  22
ENDBRANCH   1  21
TORSDOF 10
ENDMDL
MODEL 9
REMARK VINA RESULT:      -7.7      4.366      7.904
REMARK  Name = 
REMARK  11 active torsions:
REMARK  status: ('A' for Active; 'I' for Inactive)
REMARK    1  A    between atoms: C_1  and  C_2
REMARK    2  A    between atoms: C_2  and  O_3
REMARK    3  A    between atoms: O_3  and  C_4
REMARK    4  A    between atoms: C_4  and  C_6
REMARK    5  A    between atoms: C_6  and  O_7
REMARK    6  A    between atoms: O_7  and  C_8
REMARK    7  A    between atoms: C_11  and  C_12
REMARK    8  A    between atoms: C_12  and  C_13
REMARK    9  A    between atoms: C_13  and  C_14
REMARK   10  A    between atoms: C_14  and  N_15
REMARK   11  A    between atoms: C_25  and  C_26
REMARK                            x       y       z     vdW  Elec       q    Type
REMARK                         _______ _______ _______ _____ _____    ______ ____
ROOT
ATOM      1  N   UNL     1       2.000   6.958  20.079  0.00  0.00    +0.000 N 
ATOM      2  N   UNL     1       2.443   7.154  18.807  0.00  0.00    +0.000 NA
ATOM      3  C   UNL     1       2.105   8.421  18.533  0.00  0.00    +0.000 A 
ATOM      4  C   UNL     1       1.465   9.005  19.613  0.00  0.00    +0.000 A 
ATOM      5  C   UNL     1       1.397   8.068  20.621  0.00  0.00    +0.000 A 
ATOM      6  N   UNL     1       0.863   8.192  21.878  0.00  0.00    +0.000 NA
ATOM      7  C   UNL     1       0.373   9.386  22.164  0.00  0.00    +0.000 A 
ATOM      8  N   UNL     1      -0.173   9.644  23.402  0.00  0.00    +0.000 N 
ATOM      9  N   UNL     1       0.382  10.437  21.200  0.00  0.00    +0.000 N 
ATOM     10  N   UNL     1      -0.116  11.681  21.385  0.00  0.00    +0.000 NA
ATOM     11  C   UNL     1       0.143  12.238  20.183  0.00  0.00    +0.000 A 
ATOM     12  N   UNL     1       0.748  11.402  19.259  0.00  0.00    +0.000 NA
ATOM     13  C   UNL     1       0.889  10.296  19.939  0.00  0.00    +0.000 A 
ATOM     14  H   UNL     1      -0.465   8.831  23.923  0.00  0.00    +0.000 HD
ATOM     15  H   UNL     1      -0.783  10.456  23.459  0.00  0.00    +0.000 HD
ENDROOT
BRANCH  11  16
ATOM     16  C   UNL     1      -0.170  13.658  19.839  0.00  0.00    +0.000 A 
ATOM     17  C   UNL     1       0.432  14.375  18.820  0.00  0.00    +0.000 A 
ATOM     18  C   UNL     1      -0.128  15.673  18.840  0.00  0.00    +0.000 A 
ATOM     19  C   UNL     1      -1.034  15.677  19.875  0.00  0.00    +0.000 A 
ATOM     20  O   UNL     1      -1.078  14.460  20.477  0.00  0.00    +0.000 OA
ENDBRANCH  11  16
BRANCH   1  21
ATOM     21  C   UNL     1       2.178   5.659  20.700  0.00  0.00    +0.000 C 
BRANCH  21  22
ATOM     22  C   UNL     1       0.943   4.780  20.527  0.00  0.00    +0.000 C 
BRANCH  22  23
ATOM     23  C   UNL     1       1.317   3.385  20.025  0.00  0.00    +0.000 C 
BRANCH  23  27
ATOM     24  C   UNL     1       4.520   3.556  17.134  0.00  0.00    +0.000 A 
ATOM     25  C   UNL     1       4.789   3.269  18.472  0.00  0.00    +0.000 A 
ATOM     26  C   UNL     1       3.754   3.204  19.405  0.00  0.00    +0.000 A 
ATOM     27  C   UNL     1       2.432   3.438  19.008  0.00  0.00    +0.000 A 
ATOM     28  C   UNL     1       2.172   3.755  17.668  0.00  0.00    +0.000 A 
ATOM     29  C   UNL     1       3.213   3.815  16.732  0.00  0.00    +0.000 A 
BRANCH  24  30
ATOM     30  O   UNL     1       5.621   3.598  16.332  0.00  0.00    +0.000 OA
BRANCH  30  31
ATOM     31  C   UNL     1       6.699   4.424  16.761  0.00  0.00    +0.000 C 
BRANCH  31  32
ATOM     32  C   UNL     1       6.830   5.570  15.771  0.00  0.00    +0.000 C 
ATOM     33  O   UNL     1       6.332   5.614  14.654  0.00  0.00    +0.000 OA
BRANCH  32  34
ATOM     34  O   UNL     1       7.654   6.529  16.292  0.00  0.00    +0.000 OA
BRANCH  34  36
ATOM     35  C   UNL     1       8.057   8.371  17.754  0.00  0.00    +0.000 C 
ATOM     36  C   UNL     1       7.122   7.221  17.431  0.00  0.00    +0.000 C 
ENDBRANCH  34  36
ENDBRANCH  32  34
ENDBRANCH  31  32
ENDBRANCH  30  31
ENDBRANCH  24  30
ENDBRANCH  23  27
ENDBRANCH  22  23
ENDBRANCH  21  22
ENDBRANCH   1  21
TORSDOF 10
ENDMDL
