MODEL 1
REMARK VINA RESULT:      -6.2      0.000      0.000
REMARK  Name = 
REMARK  9 active torsions:
REMARK  status: ('A' for Active; 'I' for Inactive)
REMARK    1  A    between atoms: C_1  and  C_2
REMARK    2  A    between atoms: C_2  and  C_3
REMARK    3  A    between atoms: C_3  and  C_4
REMARK    4  A    between atoms: C_4  and  C_5
REMARK    5  A    between atoms: C_5  and  C_6
REMARK    6  A    between atoms: C_8  and  C_9
REMARK    7  A    between atoms: C_9  and  O_11
REMARK    8  A    between atoms: O_11  and  C_12
REMARK    9  A    between atoms: C_13  and  N_14
REMARK                            x       y       z     vdW  Elec       q    Type
REMARK                         _______ _______ _______ _____ _____    ______ ____
ROOT
ATOM      1  C   UNL     1       4.188   5.114  17.956  0.00  0.00    +0.000 A 
ATOM      2  C   UNL     1       4.522   5.112  16.620  0.00  0.00    +0.000 A 
ATOM      3  C   UNL     1       5.910   4.824  16.376  0.00  0.00    +0.000 A 
ATOM      4  C   UNL     1       6.584   4.632  17.575  0.00  0.00    +0.000 A 
ATOM      5  S   UNL     1       5.546   4.785  18.930  0.00  0.00    +0.000 S 
ENDROOT
BRANCH   4   6
ATOM      6  N   UNL     1       7.888   4.356  17.769  0.00  0.00    +0.000 N 
ATOM      7  H   UNL     1       8.544   5.070  18.084  0.00  0.00    +0.000 HD
ATOM      8  H   UNL     1       8.296   3.478  17.466  0.00  0.00    +0.000 HD
ENDBRANCH   4   6
BRANCH   3   9
ATOM      9  C   UNL     1       6.526   4.750  15.054  0.00  0.00    +0.000 C 
ATOM     10  O   UNL     1       7.608   5.251  14.769  0.00  0.00    +0.000 OA
BRANCH   9  11
ATOM     11  O   UNL     1       5.758   4.043  14.165  0.00  0.00    +0.000 OA
ATOM     12  C   UNL     1       6.406   3.747  12.927  0.00  0.00    +0.000 C 
ENDBRANCH   9  11
ENDBRANCH   3   9
BRANCH   1  13
ATOM     13  C   UNL     1       2.840   5.366  18.563  0.00  0.00    +0.000 C 
BRANCH  13  14
ATOM     14  C   UNL     1       1.781   4.442  17.955  0.00  0.00    +0.000 C 
BRANCH  14  15
ATOM     15  C   UNL     1       1.744   3.092  18.669  0.00  0.00    +0.000 C 
BRANCH  15  17
ATOM     16  C   UNL     1       1.476   3.006  21.168  0.00  0.00    +0.000 C 
ATOM     17  C   UNL     1       0.756   3.113  19.835  0.00  0.00    +0.000 C 
ENDBRANCH  15  17
ENDBRANCH  14  15
ENDBRANCH  13  14
ENDBRANCH   1  13
TORSDOF 7
ENDMDL
MODEL 2
REMARK VINA RESULT:      -6.1      1.763      2.233
REMARK  Name = 
REMARK  9 active torsions:
REMARK  status: ('A' for Active; 'I' for Inactive)
REMARK    1  A    between atoms: C_1  and  C_2
REMARK    2  A    between atoms: C_2  and  C_3
REMARK    3  A    between atoms: C_3  and  C_4
REMARK    4  A    between atoms: C_4  and  C_5
REMARK    5  A    between atoms: C_5  and  C_6
REMARK    6  A    between atoms: C_8  and  C_9
REMARK    7  A    between atoms: C_9  and  O_11
REMARK    8  A    between atoms: O_11  and  C_12
REMARK    9  A    between atoms: C_13  and  N_14
REMARK                            x       y       z     vdW  Elec       q    Type
REMARK                         _______ _______ _______ _____ _____    ______ ____
ROOT
ATOM      1  C   UNL     1       3.862   3.476  17.711  0.00  0.00    +0.000 A 
ATOM      2  C   UNL     1       4.670   4.025  16.741  0.00  0.00    +0.000 A 
ATOM      3  C   UNL     1       5.870   4.624  17.264  0.00  0.00    +0.000 A 
ATOM      4  C   UNL     1       5.906   4.510  18.647  0.00  0.00    +0.000 A 
ATOM      5  S   UNL     1       4.532   3.691  19.262  0.00  0.00    +0.000 S 
ENDROOT
BRANCH   4   6
ATOM      6  N   UNL     1       6.849   4.952  19.501  0.00  0.00    +0.000 N 
ATOM      7  H   UNL     1       7.762   5.266  19.173  0.00  0.00    +0.000 HD
ATOM      8  H   UNL     1       6.748   4.846  20.504  0.00  0.00    +0.000 HD
ENDBRANCH   4   6
BRANCH   3   9
ATOM      9  C   UNL     1       6.902   5.266  16.455  0.00  0.00    +0.000 C 
ATOM     10  O   UNL     1       7.819   4.666  15.905  0.00  0.00    +0.000 OA
BRANCH   9  11
ATOM     11  O   UNL     1       6.724   6.623  16.371  0.00  0.00    +0.000 OA
ATOM     12  C   UNL     1       7.502   7.380  17.300  0.00  0.00    +0.000 C 
ENDBRANCH   9  11
ENDBRANCH   3   9
BRANCH   1  13
ATOM     13  C   UNL     1       2.552   2.772  17.521  0.00  0.00    +0.000 C 
BRANCH  13  14
ATOM     14  C   UNL     1       1.398   3.588  18.110  0.00  0.00    +0.000 C 
BRANCH  14  15
ATOM     15  C   UNL     1       0.738   2.856  19.278  0.00  0.00    +0.000 C 
BRANCH  15  17
ATOM     16  C   UNL     1       1.706   2.635  21.589  0.00  0.00    +0.000 C 
ATOM     17  C   UNL     1       1.022   3.565  20.602  0.00  0.00    +0.000 C 
ENDBRANCH  15  17
ENDBRANCH  14  15
ENDBRANCH  13  14
ENDBRANCH   1  13
TORSDOF 7
ENDMDL
MODEL 3
REMARK VINA RESULT:      -6.0      1.276      1.422
REMARK  Name = 
REMARK  9 active torsions:
REMARK  status: ('A' for Active; 'I' for Inactive)
REMARK    1  A    between atoms: C_1  and  C_2
REMARK    2  A    between atoms: C_2  and  C_3
REMARK    3  A    between atoms: C_3  and  C_4
REMARK    4  A    between atoms: C_4  and  C_5
REMARK    5  A    between atoms: C_5  and  C_6
REMARK    6  A    between atoms: C_8  and  C_9
REMARK    7  A    between atoms: C_9  and  O_11
REMARK    8  A    between atoms: O_11  and  C_12
REMARK    9  A    between atoms: C_13  and  N_14
REMARK                            x       y       z     vdW  Elec       q    Type
REMARK                         _______ _______ _______ _____ _____    ______ ____
ROOT
ATOM      1  C   UNL     1       3.926   3.446  17.601  0.00  0.00    +0.000 A 
ATOM      2  C   UNL     1       4.639   3.901  16.515  0.00  0.00    +0.000 A 
ATOM      3  C   UNL     1       5.876   4.544  16.868  0.00  0.00    +0.000 A 
ATOM      4  C   UNL     1       6.038   4.560  18.246  0.00  0.00    +0.000 A 
ATOM      5  S   UNL     1       4.732   3.803  19.058  0.00  0.00    +0.000 S 
ENDROOT
BRANCH   4   6
ATOM      6  N   UNL     1       7.052   5.078  18.966  0.00  0.00    +0.000 N 
ATOM      7  H   UNL     1       6.885   5.618  19.814  0.00  0.00    +0.000 HD
ATOM      8  H   UNL     1       8.003   5.085  18.614  0.00  0.00    +0.000 HD
ENDBRANCH   4   6
BRANCH   3   9
ATOM      9  C   UNL     1       6.826   5.107  15.912  0.00  0.00    +0.000 C 
ATOM     10  O   UNL     1       7.518   6.094  16.128  0.00  0.00    +0.000 OA
BRANCH   9  11
ATOM     11  O   UNL     1       6.862   4.396  14.740  0.00  0.00    +0.000 OA
ATOM     12  C   UNL     1       7.503   5.071  13.656  0.00  0.00    +0.000 C 
ENDBRANCH   9  11
ENDBRANCH   3   9
BRANCH   1  13
ATOM     13  C   UNL     1       2.609   2.728  17.598  0.00  0.00    +0.000 C 
BRANCH  13  14
ATOM     14  C   UNL     1       1.504   3.602  18.199  0.00  0.00    +0.000 C 
BRANCH  14  15
ATOM     15  C   UNL     1       0.822   2.905  19.375  0.00  0.00    +0.000 C 
BRANCH  15  17
ATOM     16  C   UNL     1       2.046   2.811  21.570  0.00  0.00    +0.000 C 
ATOM     17  C   UNL     1       1.116   3.628  20.689  0.00  0.00    +0.000 C 
ENDBRANCH  15  17
ENDBRANCH  14  15
ENDBRANCH  13  14
ENDBRANCH   1  13
TORSDOF 7
ENDMDL
MODEL 4
REMARK VINA RESULT:      -6.0      1.122      1.172
REMARK  Name = 
REMARK  9 active torsions:
REMARK  status: ('A' for Active; 'I' for Inactive)
REMARK    1  A    between atoms: C_1  and  C_2
REMARK    2  A    between atoms: C_2  and  C_3
REMARK    3  A    between atoms: C_3  and  C_4
REMARK    4  A    between atoms: C_4  and  C_5
REMARK    5  A    between atoms: C_5  and  C_6
REMARK    6  A    between atoms: C_8  and  C_9
REMARK    7  A    between atoms: C_9  and  O_11
REMARK    8  A    between atoms: O_11  and  C_12
REMARK    9  A    between atoms: C_13  and  N_14
REMARK                            x       y       z     vdW  Elec       q    Type
REMARK                         _______ _______ _______ _____ _____    ______ ____
ROOT
ATOM      1  C   UNL     1       4.219   4.864  17.235  0.00  0.00    +0.000 A 
ATOM      2  C   UNL     1       4.722   4.414  16.034  0.00  0.00    +0.000 A 
ATOM      3  C   UNL     1       5.981   5.011  15.679  0.00  0.00    +0.000 A 
ATOM      4  C   UNL     1       6.377   5.923  16.648  0.00  0.00    +0.000 A 
ATOM      5  S   UNL     1       5.253   6.020  17.939  0.00  0.00    +0.000 S 
ENDROOT
BRANCH   4   6
ATOM      6  N   UNL     1       7.484   6.690  16.676  0.00  0.00    +0.000 N 
ATOM      7  H   UNL     1       7.866   7.046  17.552  0.00  0.00    +0.000 HD
ATOM      8  H   UNL     1       7.888   7.070  15.827  0.00  0.00    +0.000 HD
ENDBRANCH   4   6
BRANCH   3   9
ATOM      9  C   UNL     1       6.736   4.706  14.466  0.00  0.00    +0.000 C 
ATOM     10  O   UNL     1       7.718   5.335  14.090  0.00  0.00    +0.000 OA
BRANCH   9  11
ATOM     11  O   UNL     1       6.223   3.625  13.797  0.00  0.00    +0.000 OA
ATOM     12  C   UNL     1       6.481   3.621  12.391  0.00  0.00    +0.000 C 
ENDBRANCH   9  11
ENDBRANCH   3   9
BRANCH   1  13
ATOM     13  C   UNL     1       2.944   4.451  17.907  0.00  0.00    +0.000 C 
BRANCH  13  14
ATOM     14  C   UNL     1       2.525   3.043  17.476  0.00  0.00    +0.000 C 
BRANCH  14  15
ATOM     15  C   UNL     1       1.641   2.377  18.529  0.00  0.00    +0.000 C 
BRANCH  15  17
ATOM     16  C   UNL     1       1.279   2.909  20.960  0.00  0.00    +0.000 C 
ATOM     17  C   UNL     1       1.116   3.403  19.533  0.00  0.00    +0.000 C 
ENDBRANCH  15  17
ENDBRANCH  14  15
ENDBRANCH  13  14
ENDBRANCH   1  13
TORSDOF 7
ENDMDL
MODEL 5
REMARK VINA RESULT:      -6.0      1.291      1.651
REMARK  Name = 
REMARK  9 active torsions:
REMARK  status: ('A' for Active; 'I' for Inactive)
REMARK    1  A    between atoms: C_1  and  C_2
REMARK    2  A    between atoms: C_2  and  C_3
REMARK    3  A    between atoms: C_3  and  C_4
REMARK    4  A    between atoms: C_4  and  C_5
REMARK    5  A    between atoms: C_5  and  C_6
REMARK    6  A    between atoms: C_8  and  C_9
REMARK    7  A    between atoms: C_9  and  O_11
REMARK    8  A    between atoms: O_11  and  C_12
REMARK    9  A    between atoms: C_13  and  N_14
REMARK                            x       y       z     vdW  Elec       q    Type
REMARK                         _______ _______ _______ _____ _____    ______ ____
ROOT
ATOM      1  C   UNL     1       3.561   5.293  18.022  0.00  0.00    +0.000 A 
ATOM      2  C   UNL     1       4.452   5.181  16.977  0.00  0.00    +0.000 A 
ATOM      3  C   UNL     1       5.827   5.132  17.398  0.00  0.00    +0.000 A 
ATOM      4  C   UNL     1       5.915   5.229  18.779  0.00  0.00    +0.000 A 
ATOM      5  S   UNL     1       4.374   5.356  19.517  0.00  0.00    +0.000 S 
ENDROOT
BRANCH   4   6
ATOM      6  N   UNL     1       7.020   5.233  19.551  0.00  0.00    +0.000 N 
ATOM      7  H   UNL     1       7.687   4.463  19.534  0.00  0.00    +0.000 HD
ATOM      8  H   UNL     1       7.151   5.921  20.285  0.00  0.00    +0.000 HD
ENDBRANCH   4   6
BRANCH   3   9
ATOM      9  C   UNL     1       6.970   5.005  16.497  0.00  0.00    +0.000 C 
ATOM     10  O   UNL     1       8.011   4.426  16.784  0.00  0.00    +0.000 OA
BRANCH   9  11
ATOM     11  O   UNL     1       6.742   5.603  15.285  0.00  0.00    +0.000 OA
ATOM     12  C   UNL     1       6.874   4.732  14.160  0.00  0.00    +0.000 C 
ENDBRANCH   9  11
ENDBRANCH   3   9
BRANCH   1  13
ATOM     13  C   UNL     1       2.065   5.361  17.946  0.00  0.00    +0.000 C 
BRANCH  13  14
ATOM     14  C   UNL     1       1.456   3.963  17.809  0.00  0.00    +0.000 C 
BRANCH  14  15
ATOM     15  C   UNL     1       1.067   3.389  19.171  0.00  0.00    +0.000 C 
BRANCH  15  17
ATOM     16  C   UNL     1       2.877   1.826  18.393  0.00  0.00    +0.000 C 
ATOM     17  C   UNL     1       1.953   2.200  19.540  0.00  0.00    +0.000 C 
ENDBRANCH  15  17
ENDBRANCH  14  15
ENDBRANCH  13  14
ENDBRANCH   1  13
TORSDOF 7
ENDMDL
MODEL 6
REMARK VINA RESULT:      -6.0      1.544      1.942
REMARK  Name = 
REMARK  9 active torsions:
REMARK  status: ('A' for Active; 'I' for Inactive)
REMARK    1  A    between atoms: C_1  and  C_2
REMARK    2  A    between atoms: C_2  and  C_3
REMARK    3  A    between atoms: C_3  and  C_4
REMARK    4  A    between atoms: C_4  and  C_5
REMARK    5  A    between atoms: C_5  and  C_6
REMARK    6  A    between atoms: C_8  and  C_9
REMARK    7  A    between atoms: C_9  and  O_11
REMARK    8  A    between atoms: O_11  and  C_12
REMARK    9  A    between atoms: C_13  and  N_14
REMARK                            x       y       z     vdW  Elec       q    Type
REMARK                         _______ _______ _______ _____ _____    ______ ____
ROOT
ATOM      1  C   UNL     1       3.751   3.243  17.787  0.00  0.00    +0.000 A 
ATOM      2  C   UNL     1       4.150   4.151  16.833  0.00  0.00    +0.000 A 
ATOM      3  C   UNL     1       5.239   4.989  17.257  0.00  0.00    +0.000 A 
ATOM      4  C   UNL     1       5.613   4.678  18.557  0.00  0.00    +0.000 A 
ATOM      5  S   UNL     1       4.674   3.402  19.210  0.00  0.00    +0.000 S 
ENDROOT
BRANCH   4   6
ATOM      6  N   UNL     1       6.578   5.241  19.311  0.00  0.00    +0.000 N 
ATOM      7  H   UNL     1       6.519   6.211  19.616  0.00  0.00    +0.000 HD
ATOM      8  H   UNL     1       7.464   4.775  19.474  0.00  0.00    +0.000 HD
ENDBRANCH   4   6
BRANCH   3   9
ATOM      9  C   UNL     1       5.861   6.027  16.439  0.00  0.00    +0.000 C 
ATOM     10  O   UNL     1       6.315   7.075  16.883  0.00  0.00    +0.000 OA
BRANCH   9  11
ATOM     11  O   UNL     1       5.887   5.690  15.110  0.00  0.00    +0.000 OA
ATOM     12  C   UNL     1       6.977   4.847  14.734  0.00  0.00    +0.000 C 
ENDBRANCH   9  11
ENDBRANCH   3   9
BRANCH   1  13
ATOM     13  C   UNL     1       2.660   2.220  17.679  0.00  0.00    +0.000 C 
BRANCH  13  14
ATOM     14  C   UNL     1       1.791   2.206  18.940  0.00  0.00    +0.000 C 
BRANCH  14  15
ATOM     15  C   UNL     1       1.067   3.538  19.132  0.00  0.00    +0.000 C 
BRANCH  15  17
ATOM     16  C   UNL     1       1.559   2.829  21.494  0.00  0.00    +0.000 C 
ATOM     17  C   UNL     1       1.065   3.955  20.602  0.00  0.00    +0.000 C 
ENDBRANCH  15  17
ENDBRANCH  14  15
ENDBRANCH  13  14
ENDBRANCH   1  13
TORSDOF 7
ENDMDL
MODEL 7
REMARK VINA RESULT:      -5.9      2.348      3.100
REMARK  Name = 
REMARK  9 active torsions:
REMARK  status: ('A' for Active; 'I' for Inactive)
REMARK    1  A    between atoms: C_1  and  C_2
REMARK    2  A    between atoms: C_2  and  C_3
REMARK    3  A    between atoms: C_3  and  C_4
REMARK    4  A    between atoms: C_4  and  C_5
REMARK    5  A    between atoms: C_5  and  C_6
REMARK    6  A    between atoms: C_8  and  C_9
REMARK    7  A    between atoms: C_9  and  O_11
REMARK    8  A    between atoms: O_11  and  C_12
REMARK    9  A    between atoms: C_13  and  N_14
REMARK                            x       y       z     vdW  Elec       q    Type
REMARK                         _______ _______ _______ _____ _____    ______ ____
ROOT
ATOM      1  C   UNL     1       4.167   4.428  17.536  0.00  0.00    +0.000 A 
ATOM      2  C   UNL     1       4.939   5.012  18.515  0.00  0.00    +0.000 A 
ATOM      3  C   UNL     1       6.327   5.132  18.158  0.00  0.00    +0.000 A 
ATOM      4  C   UNL     1       6.550   4.603  16.894  0.00  0.00    +0.000 A 
ATOM      5  S   UNL     1       5.110   4.004  16.182  0.00  0.00    +0.000 S 
ENDROOT
BRANCH   4   6
ATOM      6  N   UNL     1       7.709   4.517  16.213  0.00  0.00    +0.000 N 
ATOM      7  H   UNL     1       8.609   4.492  16.690  0.00  0.00    +0.000 HD
ATOM      8  H   UNL     1       7.741   4.628  15.205  0.00  0.00    +0.000 HD
ENDBRANCH   4   6
BRANCH   3   9
ATOM      9  C   UNL     1       7.358   5.722  19.007  0.00  0.00    +0.000 C 
ATOM     10  O   UNL     1       7.493   5.476  20.200  0.00  0.00    +0.000 OA
BRANCH   9  11
ATOM     11  O   UNL     1       8.170   6.580  18.312  0.00  0.00    +0.000 OA
ATOM     12  C   UNL     1       7.518   7.761  17.839  0.00  0.00    +0.000 C 
ENDBRANCH   9  11
ENDBRANCH   3   9
BRANCH   1  13
ATOM     13  C   UNL     1       2.692   4.158  17.571  0.00  0.00    +0.000 C 
BRANCH  13  14
ATOM     14  C   UNL     1       2.410   2.655  17.659  0.00  0.00    +0.000 C 
BRANCH  14  15
ATOM     15  C   UNL     1       1.317   2.353  18.683  0.00  0.00    +0.000 C 
BRANCH  15  17
ATOM     16  C   UNL     1       1.412   2.996  21.113  0.00  0.00    +0.000 C 
ATOM     17  C   UNL     1       1.182   3.490  19.695  0.00  0.00    +0.000 C 
ENDBRANCH  15  17
ENDBRANCH  14  15
ENDBRANCH  13  14
ENDBRANCH   1  13
TORSDOF 7
ENDMDL
MODEL 8
REMARK VINA RESULT:      -5.9      1.658      1.843
REMARK  Name = 
REMARK  9 active torsions:
REMARK  status: ('A' for Active; 'I' for Inactive)
REMARK    1  A    between atoms: C_1  and  C_2
REMARK    2  A    between atoms: C_2  and  C_3
REMARK    3  A    between atoms: C_3  and  C_4
REMARK    4  A    between atoms: C_4  and  C_5
REMARK    5  A    between atoms: C_5  and  C_6
REMARK    6  A    between atoms: C_8  and  C_9
REMARK    7  A    between atoms: C_9  and  O_11
REMARK    8  A    between atoms: O_11  and  C_12
REMARK    9  A    between atoms: C_13  and  N_14
REMARK                            x       y       z     vdW  Elec       q    Type
REMARK                         _______ _______ _______ _____ _____    ______ ____
ROOT
ATOM      1  C   UNL     1       3.745   5.270  17.564  0.00  0.00    +0.000 A 
ATOM      2  C   UNL     1       4.844   4.553  17.147  0.00  0.00    +0.000 A 
ATOM      3  C   UNL     1       5.995   5.372  16.875  0.00  0.00    +0.000 A 
ATOM      4  C   UNL     1       5.700   6.711  17.090  0.00  0.00    +0.000 A 
ATOM      5  S   UNL     1       4.085   6.938  17.617  0.00  0.00    +0.000 S 
ENDROOT
BRANCH   4   6
ATOM      6  N   UNL     1       6.502   7.782  16.936  0.00  0.00    +0.000 N 
ATOM      7  H   UNL     1       6.317   8.491  16.228  0.00  0.00    +0.000 HD
ATOM      8  H   UNL     1       7.398   7.847  17.408  0.00  0.00    +0.000 HD
ENDBRANCH   4   6
BRANCH   3   9
ATOM      9  C   UNL     1       7.291   4.867  16.430  0.00  0.00    +0.000 C 
ATOM     10  O   UNL     1       8.019   4.146  17.104  0.00  0.00    +0.000 OA
BRANCH   9  11
ATOM     11  O   UNL     1       7.601   5.285  15.161  0.00  0.00    +0.000 OA
ATOM     12  C   UNL     1       6.853   4.642  14.127  0.00  0.00    +0.000 C 
ENDBRANCH   9  11
ENDBRANCH   3   9
BRANCH   1  13
ATOM     13  C   UNL     1       2.393   4.740  17.937  0.00  0.00    +0.000 C 
BRANCH  13  14
ATOM     14  C   UNL     1       2.234   3.281  17.500  0.00  0.00    +0.000 C 
BRANCH  14  15
ATOM     15  C   UNL     1       1.933   2.373  18.691  0.00  0.00    +0.000 C 
BRANCH  15  17
ATOM     16  C   UNL     1       1.315   2.872  21.077  0.00  0.00    +0.000 C 
ATOM     17  C   UNL     1       0.903   3.010  19.622  0.00  0.00    +0.000 C 
ENDBRANCH  15  17
ENDBRANCH  14  15
ENDBRANCH  13  14
ENDBRANCH   1  13
TORSDOF 7
ENDMDL
MODEL 9
REMARK VINA RESULT:      -5.9      1.267      1.380
REMARK  Name = 
REMARK  9 active torsions:
REMARK  status: ('A' for Active; 'I' for Inactive)
REMARK    1  A    between atoms: C_1  and  C_2
REMARK    2  A    between atoms: C_2  and  C_3
REMARK    3  A    between atoms: C_3  and  C_4
REMARK    4  A    between atoms: C_4  and  C_5
REMARK    5  A    between atoms: C_5  and  C_6
REMARK    6  A    between atoms: C_8  and  C_9
REMARK    7  A    between atoms: C_9  and  O_11
REMARK    8  A    between atoms: O_11  and  C_12
REMARK    9  A    between atoms: C_13  and  N_14
REMARK                            x       y       z     vdW  Elec       q    Type
REMARK                         _______ _______ _______ _____ _____    ______ ____
ROOT
ATOM      1  C   UNL     1       4.535   4.339  17.534  0.00  0.00    +0.000 A 
ATOM      2  C   UNL     1       4.944   4.023  16.257  0.00  0.00    +0.000 A 
ATOM      3  C   UNL     1       6.064   4.804  15.803  0.00  0.00    +0.000 A 
ATOM      4  C   UNL     1       6.450   5.712  16.780  0.00  0.00    +0.000 A 
ATOM      5  S   UNL     1       5.485   5.590  18.191  0.00  0.00    +0.000 S 
ENDROOT
BRANCH   4   6
ATOM      6  N   UNL     1       7.442   6.622  16.734  0.00  0.00    +0.000 N 
ATOM      7  H   UNL     1       8.407   6.372  16.946  0.00  0.00    +0.000 HD
ATOM      8  H   UNL     1       7.249   7.613  16.639  0.00  0.00    +0.000 HD
ENDBRANCH   4   6
BRANCH   3   9
ATOM      9  C   UNL     1       6.701   4.666  14.496  0.00  0.00    +0.000 C 
ATOM     10  O   UNL     1       7.662   5.330  14.125  0.00  0.00    +0.000 OA
BRANCH   9  11
ATOM     11  O   UNL     1       6.105   3.698  13.731  0.00  0.00    +0.000 OA
ATOM     12  C   UNL     1       6.569   3.642  12.380  0.00  0.00    +0.000 C 
ENDBRANCH   9  11
ENDBRANCH   3   9
BRANCH   1  13
ATOM     13  C   UNL     1       3.414   3.722  18.315  0.00  0.00    +0.000 C 
BRANCH  13  14
ATOM     14  C   UNL     1       3.374   4.268  19.745  0.00  0.00    +0.000 C 
BRANCH  14  15
ATOM     15  C   UNL     1       1.989   4.812  20.096  0.00  0.00    +0.000 C 
BRANCH  15  17
ATOM     16  C   UNL     1       1.579   2.788  21.532  0.00  0.00    +0.000 C 
ATOM     17  C   UNL     1       1.023   3.676  20.432  0.00  0.00    +0.000 C 
ENDBRANCH  15  17
ENDBRANCH  14  15
ENDBRANCH  13  14
ENDBRANCH   1  13
TORSDOF 7
ENDMDL
