MODEL 1
REMARK VINA RESULT:      -7.3      0.000      0.000
REMARK  Name = 
REMARK  19 active torsions:
REMARK  status: ('A' for Active; 'I' for Inactive)
REMARK    1  A    between atoms: C_1  and  C_2
REMARK    2  A    between atoms: C_2  and  C_3
REMARK    3  A    between atoms: C_3  and  C_4
REMARK    4  A    between atoms: C_4  and  C_5
REMARK    5  A    between atoms: C_6  and  C_7
REMARK    6  A    between atoms: C_10  and  O_11
REMARK    7  A    between atoms: O_11  and  C_12
REMARK    8  A    between atoms: C_14  and  O_15
REMARK    9  A    between atoms: O_15  and  C_16
REMARK   10  A    between atoms: C_17  and  O_18
REMARK   11  A    between atoms: O_18  and  C_19
REMARK   12  A    between atoms: C_20  and  O_21
REMARK   13  A    between atoms: O_21  and  C_22
REMARK   14  A    between atoms: C_24  and  C_25
REMARK   15  A    between atoms: C_25  and  O_26
REMARK   16  A    between atoms: O_26  and  C_27
REMARK   17  A    between atoms: C_27  and  O_29
REMARK   18  A    between atoms: O_29  and  C_30
REMARK   19  A    between atoms: C_30  and  C_31
REMARK                            x       y       z     vdW  Elec       q    Type
REMARK                         _______ _______ _______ _____ _____    ______ ____
ROOT
ATOM      1  C   UNL     1       5.772   5.451  16.690  0.00  0.00    +0.000 C 
ATOM      2  C   UNL     1       5.186   6.822  16.628  0.00  0.00    +0.000 C 
ATOM      3  C   UNL     1       4.044   7.149  17.251  0.00  0.00    +0.000 C 
ATOM      4  C   UNL     1       3.218   6.166  18.058  0.00  0.00    +0.000 C 
ATOM      5  C   UNL     1       3.876   4.753  18.100  0.00  0.00    +0.000 C 
ATOM      6  O   UNL     1       4.755   4.506  17.029  0.00  0.00    +0.000 OA
ENDROOT
BRANCH   1   8
ATOM      7  C   UNL     1       6.159   4.276  14.151  0.00  0.00    +0.000 C 
ATOM      8  C   UNL     1       5.981   4.818  15.323  0.00  0.00    +0.000 C 
BRANCH   7   9
ATOM      9  C   UNL     1       6.361   3.666  12.831  0.00  0.00    +0.000 C 
BRANCH   9  10
ATOM     10  C   UNL     1       5.038   3.559  12.075  0.00  0.00    +0.000 C 
BRANCH  10  12
ATOM     11  C   UNL     1       6.284   1.518  11.295  0.00  0.00    +0.000 C 
ATOM     12  C   UNL     1       4.961   2.267  11.264  0.00  0.00    +0.000 C 
ENDBRANCH  10  12
ENDBRANCH   9  10
ENDBRANCH   7   9
ENDBRANCH   1   8
BRANCH   4  13
ATOM     13  O   UNL     1       2.946   6.762  19.354  0.00  0.00    +0.000 OA
BRANCH  13  14
ATOM     14  C   UNL     1       2.243   7.940  19.424  0.00  0.00    +0.000 A 
ATOM     15  C   UNL     1       2.120   8.830  18.412  0.00  0.00    +0.000 A 
ATOM     16  C   UNL     1       1.417  10.041  18.524  0.00  0.00    +0.000 A 
ATOM     17  C   UNL     1       0.550  10.221  19.612  0.00  0.00    +0.000 A 
ATOM     18  C   UNL     1       0.578   9.227  20.613  0.00  0.00    +0.000 A 
ATOM     19  C   UNL     1       1.587   8.260  20.608  0.00  0.00    +0.000 A 
BRANCH  16  20
ATOM     20  O   UNL     1       1.591  11.035  17.592  0.00  0.00    +0.000 OA
ATOM     21  C   UNL     1       2.519  12.039  17.997  0.00  0.00    +0.000 C 
ENDBRANCH  16  20
BRANCH  17  22
ATOM     22  O   UNL     1      -0.268  11.303  19.815  0.00  0.00    +0.000 OA
ATOM     23  C   UNL     1      -1.446  11.366  19.015  0.00  0.00    +0.000 C 
ENDBRANCH  17  22
BRANCH  18  24
ATOM     24  O   UNL     1      -0.458   9.240  21.521  0.00  0.00    +0.000 OA
ATOM     25  C   UNL     1      -0.112   9.072  22.900  0.00  0.00    +0.000 C 
ENDBRANCH  18  24
ENDBRANCH  13  14
ENDBRANCH   4  13
BRANCH   5  26
ATOM     26  C   UNL     1       4.596   4.347  19.374  0.00  0.00    +0.000 C 
BRANCH  26  27
ATOM     27  O   UNL     1       5.040   2.957  19.387  0.00  0.00    +0.000 OA
BRANCH  27  28
ATOM     28  C   UNL     1       4.456   2.198  20.345  0.00  0.00    +0.000 C 
ATOM     29  O   UNL     1       5.044   1.485  21.132  0.00  0.00    +0.000 OA
BRANCH  28  30
ATOM     30  O   UNL     1       3.070   2.234  20.207  0.00  0.00    +0.000 OA
BRANCH  30  31
ATOM     31  C   UNL     1       2.386   2.756  21.348  0.00  0.00    +0.000 C 
ATOM     32  C   UNL     1       1.314   3.714  20.869  0.00  0.00    +0.000 C 
ENDBRANCH  30  31
ENDBRANCH  28  30
ENDBRANCH  27  28
ENDBRANCH  26  27
ENDBRANCH   5  26
TORSDOF 14
ENDMDL
MODEL 2
REMARK VINA RESULT:      -7.2      1.162      2.607
REMARK  Name = 
REMARK  19 active torsions:
REMARK  status: ('A' for Active; 'I' for Inactive)
REMARK    1  A    between atoms: C_1  and  C_2
REMARK    2  A    between atoms: C_2  and  C_3
REMARK    3  A    between atoms: C_3  and  C_4
REMARK    4  A    between atoms: C_4  and  C_5
REMARK    5  A    between atoms: C_6  and  C_7
REMARK    6  A    between atoms: C_10  and  O_11
REMARK    7  A    between atoms: O_11  and  C_12
REMARK    8  A    between atoms: C_14  and  O_15
REMARK    9  A    between atoms: O_15  and  C_16
REMARK   10  A    between atoms: C_17  and  O_18
REMARK   11  A    between atoms: O_18  and  C_19
REMARK   12  A    between atoms: C_20  and  O_21
REMARK   13  A    between atoms: O_21  and  C_22
REMARK   14  A    between atoms: C_24  and  C_25
REMARK   15  A    between atoms: C_25  and  O_26
REMARK   16  A    between atoms: O_26  and  C_27
REMARK   17  A    between atoms: C_27  and  O_29
REMARK   18  A    between atoms: O_29  and  C_30
REMARK   19  A    between atoms: C_30  and  C_31
REMARK                            x       y       z     vdW  Elec       q    Type
REMARK                         _______ _______ _______ _____ _____    ______ ____
ROOT
ATOM      1  C   UNL     1       5.444   5.064  16.690  0.00  0.00    +0.000 C 
ATOM      2  C   UNL     1       5.440   6.551  16.813  0.00  0.00    +0.000 C 
ATOM      3  C   UNL     1       4.435   7.226  17.390  0.00  0.00    +0.000 C 
ATOM      4  C   UNL     1       3.193   6.563  17.952  0.00  0.00    +0.000 C 
ATOM      5  C   UNL     1       3.249   5.011  17.808  0.00  0.00    +0.000 C 
ATOM      6  O   UNL     1       4.108   4.568  16.784  0.00  0.00    +0.000 OA
ENDROOT
BRANCH   1   8
ATOM      7  C   UNL     1       5.702   4.153  14.029  0.00  0.00    +0.000 C 
ATOM      8  C   UNL     1       5.583   4.574  15.257  0.00  0.00    +0.000 C 
BRANCH   7   9
ATOM      9  C   UNL     1       5.835   3.680  12.646  0.00  0.00    +0.000 C 
BRANCH   9  10
ATOM     10  C   UNL     1       4.480   3.249  12.089  0.00  0.00    +0.000 C 
BRANCH  10  12
ATOM     11  C   UNL     1       3.121   3.797  10.044  0.00  0.00    +0.000 C 
ATOM     12  C   UNL     1       4.462   3.301  10.562  0.00  0.00    +0.000 C 
ENDBRANCH  10  12
ENDBRANCH   9  10
ENDBRANCH   7   9
ENDBRANCH   1   8
BRANCH   4  13
ATOM     13  O   UNL     1       2.992   7.053  19.305  0.00  0.00    +0.000 OA
BRANCH  13  14
ATOM     14  C   UNL     1       2.064   8.039  19.537  0.00  0.00    +0.000 A 
ATOM     15  C   UNL     1       1.448   8.259  20.721  0.00  0.00    +0.000 A 
ATOM     16  C   UNL     1       0.482   9.259  20.920  0.00  0.00    +0.000 A 
ATOM     17  C   UNL     1       0.350  10.272  19.959  0.00  0.00    +0.000 A 
ATOM     18  C   UNL     1       1.092  10.115  18.769  0.00  0.00    +0.000 A 
ATOM     19  C   UNL     1       1.725   8.898  18.497  0.00  0.00    +0.000 A 
BRANCH  16  20
ATOM     20  O   UNL     1      -0.329   9.232  22.029  0.00  0.00    +0.000 OA
ATOM     21  C   UNL     1       0.383   9.368  23.257  0.00  0.00    +0.000 C 
ENDBRANCH  16  20
BRANCH  17  22
ATOM     22  O   UNL     1      -0.480  11.360  20.048  0.00  0.00    +0.000 OA
ATOM     23  C   UNL     1      -0.072  12.397  20.938  0.00  0.00    +0.000 C 
ENDBRANCH  17  22
BRANCH  18  24
ATOM     24  O   UNL     1       1.199  11.223  17.959  0.00  0.00    +0.000 OA
ATOM     25  C   UNL     1       2.377  12.022  18.106  0.00  0.00    +0.000 C 
ENDBRANCH  18  24
ENDBRANCH  13  14
ENDBRANCH   4  13
BRANCH   5  26
ATOM     26  C   UNL     1       3.576   4.198  19.049  0.00  0.00    +0.000 C 
BRANCH  26  27
ATOM     27  O   UNL     1       3.446   2.757  18.865  0.00  0.00    +0.000 OA
BRANCH  27  28
ATOM     28  C   UNL     1       2.167   2.328  18.737  0.00  0.00    +0.000 C 
ATOM     29  O   UNL     1       1.492   2.420  17.733  0.00  0.00    +0.000 OA
BRANCH  28  30
ATOM     30  O   UNL     1       1.682   1.896  19.971  0.00  0.00    +0.000 OA
BRANCH  30  31
ATOM     31  C   UNL     1       1.092   2.934  20.756  0.00  0.00    +0.000 C 
ATOM     32  C   UNL     1       1.975   3.185  21.963  0.00  0.00    +0.000 C 
ENDBRANCH  30  31
ENDBRANCH  28  30
ENDBRANCH  27  28
ENDBRANCH  26  27
ENDBRANCH   5  26
TORSDOF 14
ENDMDL
MODEL 3
REMARK VINA RESULT:      -7.1      0.996      1.267
REMARK  Name = 
REMARK  19 active torsions:
REMARK  status: ('A' for Active; 'I' for Inactive)
REMARK    1  A    between atoms: C_1  and  C_2
REMARK    2  A    between atoms: C_2  and  C_3
REMARK    3  A    between atoms: C_3  and  C_4
REMARK    4  A    between atoms: C_4  and  C_5
REMARK    5  A    between atoms: C_6  and  C_7
REMARK    6  A    between atoms: C_10  and  O_11
REMARK    7  A    between atoms: O_11  and  C_12
REMARK    8  A    between atoms: C_14  and  O_15
REMARK    9  A    between atoms: O_15  and  C_16
REMARK   10  A    between atoms: C_17  and  O_18
REMARK   11  A    between atoms: O_18  and  C_19
REMARK   12  A    between atoms: C_20  and  O_21
REMARK   13  A    between atoms: O_21  and  C_22
REMARK   14  A    between atoms: C_24  and  C_25
REMARK   15  A    between atoms: C_25  and  O_26
REMARK   16  A    between atoms: O_26  and  C_27
REMARK   17  A    between atoms: C_27  and  O_29
REMARK   18  A    between atoms: O_29  and  C_30
REMARK   19  A    between atoms: C_30  and  C_31
REMARK                            x       y       z     vdW  Elec       q    Type
REMARK                         _______ _______ _______ _____ _____    ______ ____
ROOT
ATOM      1  C   UNL     1       5.339   4.217  16.630  0.00  0.00    +0.000 C 
ATOM      2  C   UNL     1       5.769   5.528  17.200  0.00  0.00    +0.000 C 
ATOM      3  C   UNL     1       4.900   6.421  17.695  0.00  0.00    +0.000 C 
ATOM      4  C   UNL     1       3.398   6.212  17.709  0.00  0.00    +0.000 C 
ATOM      5  C   UNL     1       3.001   4.826  17.113  0.00  0.00    +0.000 C 
ATOM      6  O   UNL     1       3.966   4.287  16.242  0.00  0.00    +0.000 OA
ENDROOT
BRANCH   1   8
ATOM      7  C   UNL     1       6.179   3.816  13.964  0.00  0.00    +0.000 C 
ATOM      8  C   UNL     1       5.791   4.001  15.195  0.00  0.00    +0.000 C 
BRANCH   7   9
ATOM      9  C   UNL     1       6.615   3.607  12.578  0.00  0.00    +0.000 C 
BRANCH   9  10
ATOM     10  C   UNL     1       5.563   2.828  11.792  0.00  0.00    +0.000 C 
BRANCH  10  12
ATOM     11  C   UNL     1       3.327   2.973  10.650  0.00  0.00    +0.000 C 
ATOM     12  C   UNL     1       4.266   3.622  11.654  0.00  0.00    +0.000 C 
ENDBRANCH  10  12
ENDBRANCH   9  10
ENDBRANCH   7   9
ENDBRANCH   1   8
BRANCH   4  13
ATOM     13  O   UNL     1       2.918   6.467  19.055  0.00  0.00    +0.000 OA
BRANCH  13  14
ATOM     14  C   UNL     1       2.222   7.622  19.318  0.00  0.00    +0.000 A 
ATOM     15  C   UNL     1       1.962   8.593  18.412  0.00  0.00    +0.000 A 
ATOM     16  C   UNL     1       1.270   9.777  18.720  0.00  0.00    +0.000 A 
ATOM     17  C   UNL     1       0.552   9.847  19.921  0.00  0.00    +0.000 A 
ATOM     18  C   UNL     1       0.717   8.772  20.820  0.00  0.00    +0.000 A 
ATOM     19  C   UNL     1       1.723   7.827  20.600  0.00  0.00    +0.000 A 
BRANCH  16  20
ATOM     20  O   UNL     1       1.314  10.849  17.862  0.00  0.00    +0.000 OA
ATOM     21  C   UNL     1       2.426  11.713  18.088  0.00  0.00    +0.000 C 
ENDBRANCH  16  20
BRANCH  17  22
ATOM     22  O   UNL     1      -0.241  10.892  20.323  0.00  0.00    +0.000 OA
ATOM     23  C   UNL     1       0.418  11.969  20.984  0.00  0.00    +0.000 C 
ENDBRANCH  17  22
BRANCH  18  24
ATOM     24  O   UNL     1      -0.191   8.687  21.852  0.00  0.00    +0.000 OA
ATOM     25  C   UNL     1       0.213   9.222  23.116  0.00  0.00    +0.000 C 
ENDBRANCH  18  24
ENDBRANCH  13  14
ENDBRANCH   4  13
BRANCH   5  26
ATOM     26  C   UNL     1       2.610   3.725  18.085  0.00  0.00    +0.000 C 
BRANCH  26  27
ATOM     27  O   UNL     1       3.675   2.766  18.354  0.00  0.00    +0.000 OA
BRANCH  27  28
ATOM     28  C   UNL     1       4.180   2.836  19.610  0.00  0.00    +0.000 C 
ATOM     29  O   UNL     1       5.311   3.169  19.895  0.00  0.00    +0.000 OA
BRANCH  28  30
ATOM     30  O   UNL     1       3.259   2.328  20.524  0.00  0.00    +0.000 OA
BRANCH  30  31
ATOM     31  C   UNL     1       2.597   3.330  21.299  0.00  0.00    +0.000 C 
ATOM     32  C   UNL     1       1.268   2.774  21.770  0.00  0.00    +0.000 C 
ENDBRANCH  30  31
ENDBRANCH  28  30
ENDBRANCH  27  28
ENDBRANCH  26  27
ENDBRANCH   5  26
TORSDOF 14
ENDMDL
MODEL 4
REMARK VINA RESULT:      -7.0      1.727      2.385
REMARK  Name = 
REMARK  19 active torsions:
REMARK  status: ('A' for Active; 'I' for Inactive)
REMARK    1  A    between atoms: C_1  and  C_2
REMARK    2  A    between atoms: C_2  and  C_3
REMARK    3  A    between atoms: C_3  and  C_4
REMARK    4  A    between atoms: C_4  and  C_5
REMARK    5  A    between atoms: C_6  and  C_7
REMARK    6  A    between atoms: C_10  and  O_11
REMARK    7  A    between atoms: O_11  and  C_12
REMARK    8  A    between atoms: C_14  and  O_15
REMARK    9  A    between atoms: O_15  and  C_16
REMARK   10  A    between atoms: C_17  and  O_18
REMARK   11  A    between atoms: O_18  and  C_19
REMARK   12  A    between atoms: C_20  and  O_21
REMARK   13  A    between atoms: O_21  and  C_22
REMARK   14  A    between atoms: C_24  and  C_25
REMARK   15  A    between atoms: C_25  and  O_26
REMARK   16  A    between atoms: O_26  and  C_27
REMARK   17  A    between atoms: C_27  and  O_29
REMARK   18  A    between atoms: O_29  and  C_30
REMARK   19  A    between atoms: C_30  and  C_31
REMARK                            x       y       z     vdW  Elec       q    Type
REMARK                         _______ _______ _______ _____ _____    ______ ____
ROOT
ATOM      1  C   UNL     1       4.516   5.960  17.661  0.00  0.00    +0.000 C 
ATOM      2  C   UNL     1       4.412   7.440  17.499  0.00  0.00    +0.000 C 
ATOM      3  C   UNL     1       3.333   8.136  17.885  0.00  0.00    +0.000 C 
ATOM      4  C   UNL     1       2.101   7.500  18.500  0.00  0.00    +0.000 C 
ATOM      5  C   UNL     1       2.262   5.957  18.657  0.00  0.00    +0.000 C 
ATOM      6  O   UNL     1       3.210   5.395  17.780  0.00  0.00    +0.000 OA
ENDROOT
BRANCH   1   8
ATOM      7  C   UNL     1       4.997   4.590  15.238  0.00  0.00    +0.000 C 
ATOM      8  C   UNL     1       4.775   5.223  16.356  0.00  0.00    +0.000 C 
BRANCH   7   9
ATOM      9  C   UNL     1       5.246   3.879  13.979  0.00  0.00    +0.000 C 
BRANCH   9  10
ATOM     10  C   UNL     1       6.683   4.096  13.509  0.00  0.00    +0.000 C 
BRANCH  10  12
ATOM     11  C   UNL     1       6.139   2.445  11.691  0.00  0.00    +0.000 C 
ATOM     12  C   UNL     1       6.846   3.748  12.030  0.00  0.00    +0.000 C 
ENDBRANCH  10  12
ENDBRANCH   9  10
ENDBRANCH   7   9
ENDBRANCH   1   8
BRANCH   4  13
ATOM     13  O   UNL     1       1.785   8.217  19.722  0.00  0.00    +0.000 OA
BRANCH  13  14
ATOM     14  C   UNL     1       0.982   9.331  19.666  0.00  0.00    +0.000 A 
ATOM     15  C   UNL     1       0.092   9.595  18.682  0.00  0.00    +0.000 A 
ATOM     16  C   UNL     1      -0.695  10.757  18.639  0.00  0.00    +0.000 A 
ATOM     17  C   UNL     1      -0.804  11.544  19.795  0.00  0.00    +0.000 A 
ATOM     18  C   UNL     1       0.031  11.194  20.877  0.00  0.00    +0.000 A 
ATOM     19  C   UNL     1       1.059  10.265  20.694  0.00  0.00    +0.000 A 
BRANCH  16  20
ATOM     20  O   UNL     1      -1.333  11.122  17.478  0.00  0.00    +0.000 OA
ATOM     21  C   UNL     1      -2.195  10.110  16.960  0.00  0.00    +0.000 C 
ENDBRANCH  16  20
BRANCH  17  22
ATOM     22  O   UNL     1      -1.598  12.652  19.940  0.00  0.00    +0.000 OA
ATOM     23  C   UNL     1      -2.997  12.416  20.084  0.00  0.00    +0.000 C 
ENDBRANCH  17  22
BRANCH  18  24
ATOM     24  O   UNL     1      -0.270  11.762  22.096  0.00  0.00    +0.000 OA
ATOM     25  C   UNL     1      -0.970  10.943  23.037  0.00  0.00    +0.000 C 
ENDBRANCH  18  24
ENDBRANCH  13  14
ENDBRANCH   4  13
BRANCH   5  26
ATOM     26  C   UNL     1       2.560   5.415  20.045  0.00  0.00    +0.000 C 
BRANCH  26  27
ATOM     27  O   UNL     1       1.571   4.460  20.532  0.00  0.00    +0.000 OA
BRANCH  27  28
ATOM     28  C   UNL     1       2.103   3.335  21.069  0.00  0.00    +0.000 C 
ATOM     29  O   UNL     1       2.142   3.071  22.252  0.00  0.00    +0.000 OA
BRANCH  28  30
ATOM     30  O   UNL     1       2.737   2.587  20.078  0.00  0.00    +0.000 OA
BRANCH  30  31
ATOM     31  C   UNL     1       1.840   1.978  19.148  0.00  0.00    +0.000 C 
ATOM     32  C   UNL     1       2.366   2.216  17.747  0.00  0.00    +0.000 C 
ENDBRANCH  30  31
ENDBRANCH  28  30
ENDBRANCH  27  28
ENDBRANCH  26  27
ENDBRANCH   5  26
TORSDOF 14
ENDMDL
MODEL 5
REMARK VINA RESULT:      -7.0      0.889      2.311
REMARK  Name = 
REMARK  19 active torsions:
REMARK  status: ('A' for Active; 'I' for Inactive)
REMARK    1  A    between atoms: C_1  and  C_2
REMARK    2  A    between atoms: C_2  and  C_3
REMARK    3  A    between atoms: C_3  and  C_4
REMARK    4  A    between atoms: C_4  and  C_5
REMARK    5  A    between atoms: C_6  and  C_7
REMARK    6  A    between atoms: C_10  and  O_11
REMARK    7  A    between atoms: O_11  and  C_12
REMARK    8  A    between atoms: C_14  and  O_15
REMARK    9  A    between atoms: O_15  and  C_16
REMARK   10  A    between atoms: C_17  and  O_18
REMARK   11  A    between atoms: O_18  and  C_19
REMARK   12  A    between atoms: C_20  and  O_21
REMARK   13  A    between atoms: O_21  and  C_22
REMARK   14  A    between atoms: C_24  and  C_25
REMARK   15  A    between atoms: C_25  and  O_26
REMARK   16  A    between atoms: O_26  and  C_27
REMARK   17  A    between atoms: C_27  and  O_29
REMARK   18  A    between atoms: O_29  and  C_30
REMARK   19  A    between atoms: C_30  and  C_31
REMARK                            x       y       z     vdW  Elec       q    Type
REMARK                         _______ _______ _______ _____ _____    ______ ____
ROOT
ATOM      1  C   UNL     1       5.484   4.313  16.798  0.00  0.00    +0.000 C 
ATOM      2  C   UNL     1       5.737   5.714  17.246  0.00  0.00    +0.000 C 
ATOM      3  C   UNL     1       4.775   6.493  17.761  0.00  0.00    +0.000 C 
ATOM      4  C   UNL     1       3.334   6.052  17.921  0.00  0.00    +0.000 C 
ATOM      5  C   UNL     1       3.123   4.580  17.450  0.00  0.00    +0.000 C 
ATOM      6  O   UNL     1       4.092   4.136  16.531  0.00  0.00    +0.000 OA
ENDROOT
BRANCH   1   8
ATOM      7  C   UNL     1       6.166   3.850  14.097  0.00  0.00    +0.000 C 
ATOM      8  C   UNL     1       5.851   4.064  15.344  0.00  0.00    +0.000 C 
BRANCH   7   9
ATOM      9  C   UNL     1       6.519   3.610  12.693  0.00  0.00    +0.000 C 
BRANCH   9  10
ATOM     10  C   UNL     1       5.309   3.106  11.909  0.00  0.00    +0.000 C 
BRANCH  10  12
ATOM     11  C   UNL     1       7.118   1.511  11.196  0.00  0.00    +0.000 C 
ATOM     12  C   UNL     1       5.629   1.816  11.156  0.00  0.00    +0.000 C 
ENDBRANCH  10  12
ENDBRANCH   9  10
ENDBRANCH   7   9
ENDBRANCH   1   8
BRANCH   4  13
ATOM     13  O   UNL     1       2.925   6.329  19.287  0.00  0.00    +0.000 OA
BRANCH  13  14
ATOM     14  C   UNL     1       2.204   7.466  19.561  0.00  0.00    +0.000 A 
ATOM     15  C   UNL     1       1.876   7.895  20.802  0.00  0.00    +0.000 A 
ATOM     16  C   UNL     1       1.113   9.049  21.047  0.00  0.00    +0.000 A 
ATOM     17  C   UNL     1       0.926   9.970  20.007  0.00  0.00    +0.000 A 
ATOM     18  C   UNL     1       1.384   9.582  18.730  0.00  0.00    +0.000 A 
ATOM     19  C   UNL     1       1.779   8.261  18.502  0.00  0.00    +0.000 A 
BRANCH  16  20
ATOM     20  O   UNL     1       0.547   9.257  22.282  0.00  0.00    +0.000 OA
ATOM     21  C   UNL     1      -0.737   8.654  22.429  0.00  0.00    +0.000 C 
ENDBRANCH  16  20
BRANCH  17  22
ATOM     22  O   UNL     1       0.285  11.178  20.110  0.00  0.00    +0.000 OA
ATOM     23  C   UNL     1      -1.103  11.189  19.782  0.00  0.00    +0.000 C 
ENDBRANCH  17  22
BRANCH  18  24
ATOM     24  O   UNL     1       1.471  10.576  17.780  0.00  0.00    +0.000 OA
ATOM     25  C   UNL     1       2.509  11.546  17.951  0.00  0.00    +0.000 C 
ENDBRANCH  18  24
ENDBRANCH  13  14
ENDBRANCH   4  13
BRANCH   5  26
ATOM     26  C   UNL     1       2.994   3.508  18.518  0.00  0.00    +0.000 C 
BRANCH  26  27
ATOM     27  O   UNL     1       3.822   3.742  19.696  0.00  0.00    +0.000 OA
BRANCH  27  28
ATOM     28  C   UNL     1       4.212   2.611  20.333  0.00  0.00    +0.000 C 
ATOM     29  O   UNL     1       4.973   1.779  19.885  0.00  0.00    +0.000 OA
BRANCH  28  30
ATOM     30  O   UNL     1       3.499   2.462  21.521  0.00  0.00    +0.000 OA
BRANCH  30  31
ATOM     31  C   UNL     1       2.456   3.423  21.696  0.00  0.00    +0.000 C 
ATOM     32  C   UNL     1       1.123   2.707  21.611  0.00  0.00    +0.000 C 
ENDBRANCH  30  31
ENDBRANCH  28  30
ENDBRANCH  27  28
ENDBRANCH  26  27
ENDBRANCH   5  26
TORSDOF 14
ENDMDL
MODEL 6
REMARK VINA RESULT:      -6.8      1.454      1.779
REMARK  Name = 
REMARK  19 active torsions:
REMARK  status: ('A' for Active; 'I' for Inactive)
REMARK    1  A    between atoms: C_1  and  C_2
REMARK    2  A    between atoms: C_2  and  C_3
REMARK    3  A    between atoms: C_3  and  C_4
REMARK    4  A    between atoms: C_4  and  C_5
REMARK    5  A    between atoms: C_6  and  C_7
REMARK    6  A    between atoms: C_10  and  O_11
REMARK    7  A    between atoms: O_11  and  C_12
REMARK    8  A    between atoms: C_14  and  O_15
REMARK    9  A    between atoms: O_15  and  C_16
REMARK   10  A    between atoms: C_17  and  O_18
REMARK   11  A    between atoms: O_18  and  C_19
REMARK   12  A    between atoms: C_20  and  O_21
REMARK   13  A    between atoms: O_21  and  C_22
REMARK   14  A    between atoms: C_24  and  C_25
REMARK   15  A    between atoms: C_25  and  O_26
REMARK   16  A    between atoms: O_26  and  C_27
REMARK   17  A    between atoms: C_27  and  O_29
REMARK   18  A    between atoms: O_29  and  C_30
REMARK   19  A    between atoms: C_30  and  C_31
REMARK                            x       y       z     vdW  Elec       q    Type
REMARK                         _______ _______ _______ _____ _____    ______ ____
ROOT
ATOM      1  C   UNL     1       5.102   5.831  17.348  0.00  0.00    +0.000 C 
ATOM      2  C   UNL     1       4.883   7.303  17.240  0.00  0.00    +0.000 C 
ATOM      3  C   UNL     1       3.752   7.898  17.646  0.00  0.00    +0.000 C 
ATOM      4  C   UNL     1       2.572   7.146  18.230  0.00  0.00    +0.000 C 
ATOM      5  C   UNL     1       2.853   5.615  18.331  0.00  0.00    +0.000 C 
ATOM      6  O   UNL     1       3.844   5.162  17.440  0.00  0.00    +0.000 OA
ENDROOT
BRANCH   1   8
ATOM      7  C   UNL     1       5.695   4.594  14.879  0.00  0.00    +0.000 C 
ATOM      8  C   UNL     1       5.422   5.165  16.019  0.00  0.00    +0.000 C 
BRANCH   7   9
ATOM      9  C   UNL     1       6.002   3.952  13.596  0.00  0.00    +0.000 C 
BRANCH   9  10
ATOM     10  C   UNL     1       4.721   3.508  12.892  0.00  0.00    +0.000 C 
BRANCH  10  12
ATOM     11  C   UNL     1       5.806   1.770  11.435  0.00  0.00    +0.000 C 
ATOM     12  C   UNL     1       4.998   3.057  11.459  0.00  0.00    +0.000 C 
ENDBRANCH  10  12
ENDBRANCH   9  10
ENDBRANCH   7   9
ENDBRANCH   1   8
BRANCH   4  13
ATOM     13  O   UNL     1       2.198   7.790  19.477  0.00  0.00    +0.000 OA
BRANCH  13  14
ATOM     14  C   UNL     1       1.248   8.783  19.468  0.00  0.00    +0.000 A 
ATOM     15  C   UNL     1       0.477   9.106  18.404  0.00  0.00    +0.000 A 
ATOM     16  C   UNL     1      -0.468  10.146  18.418  0.00  0.00    +0.000 A 
ATOM     17  C   UNL     1      -0.860  10.687  19.651  0.00  0.00    +0.000 A 
ATOM     18  C   UNL     1      -0.143  10.255  20.787  0.00  0.00    +0.000 A 
ATOM     19  C   UNL     1       1.033   9.515  20.630  0.00  0.00    +0.000 A 
BRANCH  16  20
ATOM     20  O   UNL     1      -0.983  10.633  17.241  0.00  0.00    +0.000 OA
ATOM     21  C   UNL     1      -2.181   9.978  16.831  0.00  0.00    +0.000 C 
ENDBRANCH  16  20
BRANCH  17  22
ATOM     22  O   UNL     1      -1.828  11.639  19.838  0.00  0.00    +0.000 OA
ATOM     23  C   UNL     1      -1.413  12.998  19.717  0.00  0.00    +0.000 C 
ENDBRANCH  17  22
BRANCH  18  24
ATOM     24  O   UNL     1      -0.698  10.547  22.013  0.00  0.00    +0.000 OA
ATOM     25  C   UNL     1      -0.275   9.748  23.123  0.00  0.00    +0.000 C 
ENDBRANCH  18  24
ENDBRANCH  13  14
ENDBRANCH   4  13
BRANCH   5  26
ATOM     26  C   UNL     1       3.189   5.047  19.700  0.00  0.00    +0.000 C 
BRANCH  26  27
ATOM     27  O   UNL     1       3.929   3.791  19.655  0.00  0.00    +0.000 OA
BRANCH  27  28
ATOM     28  C   UNL     1       3.251   2.730  20.156  0.00  0.00    +0.000 C 
ATOM     29  O   UNL     1       2.874   2.615  21.304  0.00  0.00    +0.000 OA
BRANCH  28  30
ATOM     30  O   UNL     1       3.175   1.717  19.202  0.00  0.00    +0.000 OA
BRANCH  30  31
ATOM     31  C   UNL     1       2.290   2.007  18.117  0.00  0.00    +0.000 C 
ATOM     32  C   UNL     1       0.922   2.328  18.685  0.00  0.00    +0.000 C 
ENDBRANCH  30  31
ENDBRANCH  28  30
ENDBRANCH  27  28
ENDBRANCH  26  27
ENDBRANCH   5  26
TORSDOF 14
ENDMDL
MODEL 7
REMARK VINA RESULT:      -6.8      3.371      7.803
REMARK  Name = 
REMARK  19 active torsions:
REMARK  status: ('A' for Active; 'I' for Inactive)
REMARK    1  A    between atoms: C_1  and  C_2
REMARK    2  A    between atoms: C_2  and  C_3
REMARK    3  A    between atoms: C_3  and  C_4
REMARK    4  A    between atoms: C_4  and  C_5
REMARK    5  A    between atoms: C_6  and  C_7
REMARK    6  A    between atoms: C_10  and  O_11
REMARK    7  A    between atoms: O_11  and  C_12
REMARK    8  A    between atoms: C_14  and  O_15
REMARK    9  A    between atoms: O_15  and  C_16
REMARK   10  A    between atoms: C_17  and  O_18
REMARK   11  A    between atoms: O_18  and  C_19
REMARK   12  A    between atoms: C_20  and  O_21
REMARK   13  A    between atoms: O_21  and  C_22
REMARK   14  A    between atoms: C_24  and  C_25
REMARK   15  A    between atoms: C_25  and  O_26
REMARK   16  A    between atoms: O_26  and  C_27
REMARK   17  A    between atoms: C_27  and  O_29
REMARK   18  A    between atoms: O_29  and  C_30
REMARK   19  A    between atoms: C_30  and  C_31
REMARK                            x       y       z     vdW  Elec       q    Type
REMARK                         _______ _______ _______ _____ _____    ______ ____
ROOT
ATOM      1  C   UNL     1       7.497   6.471  17.999  0.00  0.00    +0.000 C 
ATOM      2  C   UNL     1       6.225   6.222  18.740  0.00  0.00    +0.000 C 
ATOM      3  C   UNL     1       5.060   5.988  18.118  0.00  0.00    +0.000 C 
ATOM      4  C   UNL     1       4.901   5.977  16.611  0.00  0.00    +0.000 C 
ATOM      5  C   UNL     1       6.257   6.233  15.883  0.00  0.00    +0.000 C 
ATOM      6  O   UNL     1       7.203   6.913  16.673  0.00  0.00    +0.000 OA
ENDROOT
BRANCH   1   8
ATOM      7  C   UNL     1       8.720   8.930  18.658  0.00  0.00    +0.000 C 
ATOM      8  C   UNL     1       8.156   7.795  18.353  0.00  0.00    +0.000 C 
BRANCH   7   9
ATOM      9  C   UNL     1       9.357  10.207  18.999  0.00  0.00    +0.000 C 
BRANCH   9  10
ATOM     10  C   UNL     1       9.128  11.239  17.897  0.00  0.00    +0.000 C 
BRANCH  10  12
ATOM     11  C   UNL     1       9.995  13.585  17.632  0.00  0.00    +0.000 C 
ATOM     12  C   UNL     1       9.113  12.661  18.457  0.00  0.00    +0.000 C 
ENDBRANCH  10  12
ENDBRANCH   9  10
ENDBRANCH   7   9
ENDBRANCH   1   8
BRANCH   4  13
ATOM     13  O   UNL     1       4.220   4.751  16.237  0.00  0.00    +0.000 OA
BRANCH  13  14
ATOM     14  C   UNL     1       3.595   4.002  17.204  0.00  0.00    +0.000 A 
ATOM     15  C   UNL     1       4.079   2.851  17.726  0.00  0.00    +0.000 A 
ATOM     16  C   UNL     1       3.401   2.093  18.696  0.00  0.00    +0.000 A 
ATOM     17  C   UNL     1       2.329   2.678  19.384  0.00  0.00    +0.000 A 
ATOM     18  C   UNL     1       1.900   3.943  18.927  0.00  0.00    +0.000 A 
ATOM     19  C   UNL     1       2.379   4.445  17.714  0.00  0.00    +0.000 A 
BRANCH  16  20
ATOM     20  O   UNL     1       3.775   0.795  18.950  0.00  0.00    +0.000 OA
ATOM     21  C   UNL     1       4.876   0.687  19.850  0.00  0.00    +0.000 C 
ENDBRANCH  16  20
BRANCH  17  22
ATOM     22  O   UNL     1       1.627   2.105  20.413  0.00  0.00    +0.000 OA
ATOM     23  C   UNL     1       2.134   2.326  21.727  0.00  0.00    +0.000 C 
ENDBRANCH  17  22
BRANCH  18  24
ATOM     24  O   UNL     1       1.059   4.646  19.762  0.00  0.00    +0.000 OA
ATOM     25  C   UNL     1       1.645   5.697  20.536  0.00  0.00    +0.000 C 
ENDBRANCH  18  24
ENDBRANCH  13  14
ENDBRANCH   4  13
BRANCH   5  26
ATOM     26  C   UNL     1       6.964   5.038  15.266  0.00  0.00    +0.000 C 
BRANCH  26  27
ATOM     27  O   UNL     1       7.802   5.372  14.120  0.00  0.00    +0.000 OA
BRANCH  27  28
ATOM     28  C   UNL     1       7.392   4.817  12.954  0.00  0.00    +0.000 C 
ATOM     29  O   UNL     1       7.580   5.285  11.849  0.00  0.00    +0.000 OA
BRANCH  28  30
ATOM     30  O   UNL     1       6.593   3.704  13.208  0.00  0.00    +0.000 OA
BRANCH  30  31
ATOM     31  C   UNL     1       5.625   3.441  12.190  0.00  0.00    +0.000 C 
ATOM     32  C   UNL     1       5.905   2.071  11.605  0.00  0.00    +0.000 C 
ENDBRANCH  30  31
ENDBRANCH  28  30
ENDBRANCH  27  28
ENDBRANCH  26  27
ENDBRANCH   5  26
TORSDOF 14
ENDMDL
MODEL 8
REMARK VINA RESULT:      -6.8      1.797      2.882
REMARK  Name = 
REMARK  19 active torsions:
REMARK  status: ('A' for Active; 'I' for Inactive)
REMARK    1  A    between atoms: C_1  and  C_2
REMARK    2  A    between atoms: C_2  and  C_3
REMARK    3  A    between atoms: C_3  and  C_4
REMARK    4  A    between atoms: C_4  and  C_5
REMARK    5  A    between atoms: C_6  and  C_7
REMARK    6  A    between atoms: C_10  and  O_11
REMARK    7  A    between atoms: O_11  and  C_12
REMARK    8  A    between atoms: C_14  and  O_15
REMARK    9  A    between atoms: O_15  and  C_16
REMARK   10  A    between atoms: C_17  and  O_18
REMARK   11  A    between atoms: O_18  and  C_19
REMARK   12  A    between atoms: C_20  and  O_21
REMARK   13  A    between atoms: O_21  and  C_22
REMARK   14  A    between atoms: C_24  and  C_25
REMARK   15  A    between atoms: C_25  and  O_26
REMARK   16  A    between atoms: O_26  and  C_27
REMARK   17  A    between atoms: C_27  and  O_29
REMARK   18  A    between atoms: O_29  and  C_30
REMARK   19  A    between atoms: C_30  and  C_31
REMARK                            x       y       z     vdW  Elec       q    Type
REMARK                         _______ _______ _______ _____ _____    ______ ____
ROOT
ATOM      1  C   UNL     1       5.670   5.380  16.158  0.00  0.00    +0.000 C 
ATOM      2  C   UNL     1       4.918   6.669  16.128  0.00  0.00    +0.000 C 
ATOM      3  C   UNL     1       3.894   6.928  16.954  0.00  0.00    +0.000 C 
ATOM      4  C   UNL     1       3.374   5.941  17.981  0.00  0.00    +0.000 C 
ATOM      5  C   UNL     1       4.197   4.616  17.980  0.00  0.00    +0.000 C 
ATOM      6  O   UNL     1       4.867   4.368  16.767  0.00  0.00    +0.000 OA
ENDROOT
BRANCH   1   8
ATOM      7  C   UNL     1       5.683   4.025  13.680  0.00  0.00    +0.000 C 
ATOM      8  C   UNL     1       5.676   4.650  14.824  0.00  0.00    +0.000 C 
BRANCH   7   9
ATOM      9  C   UNL     1       5.689   3.319  12.394  0.00  0.00    +0.000 C 
BRANCH   9  10
ATOM     10  C   UNL     1       7.109   3.215  11.840  0.00  0.00    +0.000 C 
BRANCH  10  12
ATOM     11  C   UNL     1       6.216   0.955  11.193  0.00  0.00    +0.000 C 
ATOM     12  C   UNL     1       7.253   2.025  10.894  0.00  0.00    +0.000 C 
ENDBRANCH  10  12
ENDBRANCH   9  10
ENDBRANCH   7   9
ENDBRANCH   1   8
BRANCH   4  13
ATOM     13  O   UNL     1       3.297   6.621  19.262  0.00  0.00    +0.000 OA
BRANCH  13  14
ATOM     14  C   UNL     1       2.440   7.684  19.414  0.00  0.00    +0.000 A 
ATOM     15  C   UNL     1       2.153   8.591  18.452  0.00  0.00    +0.000 A 
ATOM     16  C   UNL     1       1.293   9.685  18.647  0.00  0.00    +0.000 A 
ATOM     17  C   UNL     1       0.455   9.693  19.771  0.00  0.00    +0.000 A 
ATOM     18  C   UNL     1       0.662   8.670  20.721  0.00  0.00    +0.000 A 
ATOM     19  C   UNL     1       1.794   7.856  20.634  0.00  0.00    +0.000 A 
BRANCH  16  20
ATOM     20  O   UNL     1       1.289  10.733  17.759  0.00  0.00    +0.000 OA
ATOM     21  C   UNL     1       2.312  11.695  18.009  0.00  0.00    +0.000 C 
ENDBRANCH  16  20
BRANCH  17  22
ATOM     22  O   UNL     1      -0.497  10.638  20.055  0.00  0.00    +0.000 OA
ATOM     23  C   UNL     1      -0.038  11.827  20.696  0.00  0.00    +0.000 C 
ENDBRANCH  17  22
BRANCH  18  24
ATOM     24  O   UNL     1      -0.327   8.497  21.664  0.00  0.00    +0.000 OA
ATOM     25  C   UNL     1      -0.098   9.067  22.956  0.00  0.00    +0.000 C 
ENDBRANCH  18  24
ENDBRANCH  13  14
ENDBRANCH   4  13
BRANCH   5  26
ATOM     26  C   UNL     1       5.204   4.409  19.098  0.00  0.00    +0.000 C 
BRANCH  26  27
ATOM     27  O   UNL     1       6.012   5.586  19.394  0.00  0.00    +0.000 OA
BRANCH  27  28
ATOM     28  C   UNL     1       7.271   5.535  18.893  0.00  0.00    +0.000 C 
ATOM     29  O   UNL     1       7.847   4.525  18.544  0.00  0.00    +0.000 OA
BRANCH  28  30
ATOM     30  O   UNL     1       7.869   6.791  18.973  0.00  0.00    +0.000 OA
BRANCH  30  31
ATOM     31  C   UNL     1       8.044   7.431  17.707  0.00  0.00    +0.000 C 
ATOM     32  C   UNL     1       7.895   8.927  17.902  0.00  0.00    +0.000 C 
ENDBRANCH  30  31
ENDBRANCH  28  30
ENDBRANCH  27  28
ENDBRANCH  26  27
ENDBRANCH   5  26
TORSDOF 14
ENDMDL
MODEL 9
REMARK VINA RESULT:      -6.7      3.489      7.808
REMARK  Name = 
REMARK  19 active torsions:
REMARK  status: ('A' for Active; 'I' for Inactive)
REMARK    1  A    between atoms: C_1  and  C_2
REMARK    2  A    between atoms: C_2  and  C_3
REMARK    3  A    between atoms: C_3  and  C_4
REMARK    4  A    between atoms: C_4  and  C_5
REMARK    5  A    between atoms: C_6  and  C_7
REMARK    6  A    between atoms: C_10  and  O_11
REMARK    7  A    between atoms: O_11  and  C_12
REMARK    8  A    between atoms: C_14  and  O_15
REMARK    9  A    between atoms: O_15  and  C_16
REMARK   10  A    between atoms: C_17  and  O_18
REMARK   11  A    between atoms: O_18  and  C_19
REMARK   12  A    between atoms: C_20  and  O_21
REMARK   13  A    between atoms: O_21  and  C_22
REMARK   14  A    between atoms: C_24  and  C_25
REMARK   15  A    between atoms: C_25  and  O_26
REMARK   16  A    between atoms: O_26  and  C_27
REMARK   17  A    between atoms: C_27  and  O_29
REMARK   18  A    between atoms: O_29  and  C_30
REMARK   19  A    between atoms: C_30  and  C_31
REMARK                            x       y       z     vdW  Elec       q    Type
REMARK                         _______ _______ _______ _____ _____    ______ ____
ROOT
ATOM      1  C   UNL     1       7.440   6.795  17.873  0.00  0.00    +0.000 C 
ATOM      2  C   UNL     1       6.172   6.633  18.644  0.00  0.00    +0.000 C 
ATOM      3  C   UNL     1       5.014   6.282  18.067  0.00  0.00    +0.000 C 
ATOM      4  C   UNL     1       4.858   6.040  16.578  0.00  0.00    +0.000 C 
ATOM      5  C   UNL     1       6.209   6.213  15.819  0.00  0.00    +0.000 C 
ATOM      6  O   UNL     1       7.139   7.025  16.495  0.00  0.00    +0.000 OA
ENDROOT
BRANCH   1   8
ATOM      7  C   UNL     1       8.607   9.352  18.150  0.00  0.00    +0.000 C 
ATOM      8  C   UNL     1       8.069   8.171  18.021  0.00  0.00    +0.000 C 
BRANCH   7   9
ATOM      9  C   UNL     1       9.215  10.679  18.294  0.00  0.00    +0.000 C 
BRANCH   9  10
ATOM     10  C   UNL     1       9.450  11.011  19.766  0.00  0.00    +0.000 C 
BRANCH  10  12
ATOM     11  C   UNL     1      11.598  11.796  18.721  0.00  0.00    +0.000 C 
ATOM     12  C   UNL     1      10.895  11.436  20.020  0.00  0.00    +0.000 C 
ENDBRANCH  10  12
ENDBRANCH   9  10
ENDBRANCH   7   9
ENDBRANCH   1   8
BRANCH   4  13
ATOM     13  O   UNL     1       4.204   4.756  16.396  0.00  0.00    +0.000 OA
BRANCH  13  14
ATOM     14  C   UNL     1       3.580   4.156  17.462  0.00  0.00    +0.000 A 
ATOM     15  C   UNL     1       2.397   4.550  17.989  0.00  0.00    +0.000 A 
ATOM     16  C   UNL     1       1.798   3.932  19.099  0.00  0.00    +0.000 A 
ATOM     17  C   UNL     1       2.266   2.676  19.508  0.00  0.00    +0.000 A 
ATOM     18  C   UNL     1       3.430   2.197  18.869  0.00  0.00    +0.000 A 
ATOM     19  C   UNL     1       4.179   3.049  18.054  0.00  0.00    +0.000 A 
BRANCH  16  20
ATOM     20  O   UNL     1       0.782   4.560  19.779  0.00  0.00    +0.000 OA
ATOM     21  C   UNL     1       1.218   5.678  20.549  0.00  0.00    +0.000 C 
ENDBRANCH  16  20
BRANCH  17  22
ATOM     22  O   UNL     1       1.733   1.908  20.511  0.00  0.00    +0.000 OA
ATOM     23  C   UNL     1       2.026   2.315  21.846  0.00  0.00    +0.000 C 
ENDBRANCH  17  22
BRANCH  18  24
ATOM     24  O   UNL     1       3.725   0.863  19.048  0.00  0.00    +0.000 OA
ATOM     25  C   UNL     1       4.898   0.556  19.808  0.00  0.00    +0.000 C 
ENDBRANCH  18  24
ENDBRANCH  13  14
ENDBRANCH   4  13
BRANCH   5  26
ATOM     26  C   UNL     1       6.944   4.954  15.388  0.00  0.00    +0.000 C 
BRANCH  26  27
ATOM     27  O   UNL     1       7.865   5.157  14.277  0.00  0.00    +0.000 OA
BRANCH  27  28
ATOM     28  C   UNL     1       7.378   4.767  13.074  0.00  0.00    +0.000 C 
ATOM     29  O   UNL     1       7.741   5.193  11.997  0.00  0.00    +0.000 OA
BRANCH  28  30
ATOM     30  O   UNL     1       6.292   3.912  13.252  0.00  0.00    +0.000 OA
BRANCH  30  31
ATOM     31  C   UNL     1       5.994   3.106  12.110  0.00  0.00    +0.000 C 
ATOM     32  C   UNL     1       4.547   3.338  11.723  0.00  0.00    +0.000 C 
ENDBRANCH  30  31
ENDBRANCH  28  30
ENDBRANCH  27  28
ENDBRANCH  26  27
ENDBRANCH   5  26
TORSDOF 14
ENDMDL
