MODEL 1
REMARK VINA RESULT:      -8.3      0.000      0.000
REMARK  Name = 
REMARK  6 active torsions:
REMARK  status: ('A' for Active; 'I' for Inactive)
REMARK    1  A    between atoms: C_1  and  C_2
REMARK    2  A    between atoms: C_2  and  C_3
REMARK    3  A    between atoms: C_3  and  C_4
REMARK    4  A    between atoms: C_4  and  N_5
REMARK    5  A    between atoms: C_7  and  C_8
REMARK    6  A    between atoms: C_8  and  C_9
REMARK                            x       y       z     vdW  Elec       q    Type
REMARK                         _______ _______ _______ _____ _____    ______ ____
ROOT
ATOM      1  N   UNL     1       2.459   4.282  18.102  0.00  0.00    +0.000 N 
ATOM      2  N   UNL     1       2.181   5.625  18.084  0.00  0.00    +0.000 NA
ATOM      3  C   UNL     1       3.117   6.474  17.783  0.00  0.00    +0.000 A 
ATOM      4  C   UNL     1       4.510   6.068  17.494  0.00  0.00    +0.000 A 
ATOM      5  C   UNL     1       5.548   6.978  17.261  0.00  0.00    +0.000 A 
ATOM      6  C   UNL     1       6.853   6.516  17.065  0.00  0.00    +0.000 A 
ATOM      7  C   UNL     1       7.123   5.149  17.071  0.00  0.00    +0.000 A 
ATOM      8  C   UNL     1       6.088   4.241  17.280  0.00  0.00    +0.000 A 
ATOM      9  C   UNL     1       4.784   4.703  17.505  0.00  0.00    +0.000 A 
ATOM     10  C   UNL     1       3.704   3.739  17.803  0.00  0.00    +0.000 A 
ATOM     11  O   UNL     1       3.956   2.540  17.797  0.00  0.00    +0.000 OA
ENDROOT
BRANCH   1  12
ATOM     12  C   UNL     1       1.364   3.413  18.534  0.00  0.00    +0.000 C 
BRANCH  12  13
ATOM     13  C   UNL     1       0.848   3.733  19.938  0.00  0.00    +0.000 C 
BRANCH  13  15
ATOM     14  C   UNL     1       2.635   2.966  21.537  0.00  0.00    +0.000 C 
ATOM     15  C   UNL     1       1.256   2.677  20.966  0.00  0.00    +0.000 C 
ENDBRANCH  13  15
ENDBRANCH  12  13
ENDBRANCH   1  12
BRANCH   3  16
ATOM     16  C   UNL     1       2.718   7.944  17.753  0.00  0.00    +0.000 C 
BRANCH  16  17
ATOM     17  C   UNL     1       1.962   8.432  18.973  0.00  0.00    +0.000 A 
ATOM     18  C   UNL     1       2.037   7.696  20.166  0.00  0.00    +0.000 A 
ATOM     19  C   UNL     1       1.242   8.033  21.265  0.00  0.00    +0.000 A 
ATOM     20  C   UNL     1       0.350   9.107  21.188  0.00  0.00    +0.000 A 
ATOM     21 CL   UNL     1      -0.642   9.429  22.564  0.00  0.00    +0.000 Cl
ATOM     22  C   UNL     1       0.273   9.857  20.012  0.00  0.00    +0.000 A 
ATOM     23 CL   UNL     1      -0.804  11.198  19.838  0.00  0.00    +0.000 Cl
ATOM     24  C   UNL     1       1.071   9.516  18.912  0.00  0.00    +0.000 A 
ENDBRANCH  16  17
ENDBRANCH   3  16
TORSDOF 5
ENDMDL
MODEL 2
REMARK VINA RESULT:      -8.2      1.787      4.307
REMARK  Name = 
REMARK  6 active torsions:
REMARK  status: ('A' for Active; 'I' for Inactive)
REMARK    1  A    between atoms: C_1  and  C_2
REMARK    2  A    between atoms: C_2  and  C_3
REMARK    3  A    between atoms: C_3  and  C_4
REMARK    4  A    between atoms: C_4  and  N_5
REMARK    5  A    between atoms: C_7  and  C_8
REMARK    6  A    between atoms: C_8  and  C_9
REMARK                            x       y       z     vdW  Elec       q    Type
REMARK                         _______ _______ _______ _____ _____    ______ ____
ROOT
ATOM      1  N   UNL     1       5.960   6.119  17.973  0.00  0.00    +0.000 N 
ATOM      2  N   UNL     1       4.999   7.073  17.747  0.00  0.00    +0.000 NA
ATOM      3  C   UNL     1       3.745   6.734  17.726  0.00  0.00    +0.000 A 
ATOM      4  C   UNL     1       3.287   5.337  17.892  0.00  0.00    +0.000 A 
ATOM      5  C   UNL     1       1.948   4.944  17.778  0.00  0.00    +0.000 A 
ATOM      6  C   UNL     1       1.603   3.593  17.879  0.00  0.00    +0.000 A 
ATOM      7  C   UNL     1       2.584   2.634  18.122  0.00  0.00    +0.000 A 
ATOM      8  C   UNL     1       3.914   3.025  18.258  0.00  0.00    +0.000 A 
ATOM      9  C   UNL     1       4.265   4.375  18.130  0.00  0.00    +0.000 A 
ATOM     10  C   UNL     1       5.687   4.774  18.198  0.00  0.00    +0.000 A 
ATOM     11  O   UNL     1       6.536   3.921  18.420  0.00  0.00    +0.000 OA
ENDROOT
BRANCH   1  12
ATOM     12  C   UNL     1       7.345   6.584  17.893  0.00  0.00    +0.000 C 
BRANCH  12  13
ATOM     13  C   UNL     1       7.472   8.070  17.551  0.00  0.00    +0.000 C 
BRANCH  13  15
ATOM     14  C   UNL     1       8.591  10.262  18.080  0.00  0.00    +0.000 C 
ATOM     15  C   UNL     1       8.526   8.778  18.403  0.00  0.00    +0.000 C 
ENDBRANCH  13  15
ENDBRANCH  12  13
ENDBRANCH   1  12
BRANCH   3  16
ATOM     16  C   UNL     1       2.740   7.856  17.502  0.00  0.00    +0.000 C 
BRANCH  16  17
ATOM     17  C   UNL     1       2.039   8.351  18.752  0.00  0.00    +0.000 A 
ATOM     18  C   UNL     1       2.109   7.587  19.927  0.00  0.00    +0.000 A 
ATOM     19  C   UNL     1       1.359   7.936  21.053  0.00  0.00    +0.000 A 
ATOM     20  C   UNL     1       0.518   9.053  21.022  0.00  0.00    +0.000 A 
ATOM     21 CL   UNL     1      -0.422   9.390  22.431  0.00  0.00    +0.000 Cl
ATOM     22  C   UNL     1       0.448   9.831  19.865  0.00  0.00    +0.000 A 
ATOM     23 CL   UNL     1      -0.568  11.225  19.748  0.00  0.00    +0.000 Cl
ATOM     24  C   UNL     1       1.200   9.477  18.737  0.00  0.00    +0.000 A 
ENDBRANCH  16  17
ENDBRANCH   3  16
TORSDOF 5
ENDMDL
MODEL 3
REMARK VINA RESULT:      -8.2      0.812      1.534
REMARK  Name = 
REMARK  6 active torsions:
REMARK  status: ('A' for Active; 'I' for Inactive)
REMARK    1  A    between atoms: C_1  and  C_2
REMARK    2  A    between atoms: C_2  and  C_3
REMARK    3  A    between atoms: C_3  and  C_4
REMARK    4  A    between atoms: C_4  and  N_5
REMARK    5  A    between atoms: C_7  and  C_8
REMARK    6  A    between atoms: C_8  and  C_9
REMARK                            x       y       z     vdW  Elec       q    Type
REMARK                         _______ _______ _______ _____ _____    ______ ____
ROOT
ATOM      1  N   UNL     1       2.656   4.485  18.394  0.00  0.00    +0.000 N 
ATOM      2  N   UNL     1       2.366   5.796  18.109  0.00  0.00    +0.000 NA
ATOM      3  C   UNL     1       3.320   6.609  17.767  0.00  0.00    +0.000 A 
ATOM      4  C   UNL     1       4.742   6.201  17.708  0.00  0.00    +0.000 A 
ATOM      5  C   UNL     1       5.789   7.089  17.432  0.00  0.00    +0.000 A 
ATOM      6  C   UNL     1       7.113   6.641  17.463  0.00  0.00    +0.000 A 
ATOM      7  C   UNL     1       7.396   5.304  17.739  0.00  0.00    +0.000 A 
ATOM      8  C   UNL     1       6.355   4.415  17.992  0.00  0.00    +0.000 A 
ATOM      9  C   UNL     1       5.028   4.868  17.988  0.00  0.00    +0.000 A 
ATOM     10  C   UNL     1       3.933   3.938  18.333  0.00  0.00    +0.000 A 
ATOM     11  O   UNL     1       4.197   2.765  18.566  0.00  0.00    +0.000 OA
ENDROOT
BRANCH   1  12
ATOM     12  C   UNL     1       1.529   3.672  18.851  0.00  0.00    +0.000 C 
BRANCH  12  13
ATOM     13  C   UNL     1       0.944   4.134  20.187  0.00  0.00    +0.000 C 
BRANCH  13  15
ATOM     14  C   UNL     1       2.319   2.648  21.682  0.00  0.00    +0.000 C 
ATOM     15  C   UNL     1       1.967   4.082  21.322  0.00  0.00    +0.000 C 
ENDBRANCH  13  15
ENDBRANCH  12  13
ENDBRANCH   1  12
BRANCH   3  16
ATOM     16  C   UNL     1       2.911   8.038  17.435  0.00  0.00    +0.000 C 
BRANCH  16  17
ATOM     17  C   UNL     1       1.872   8.641  18.360  0.00  0.00    +0.000 A 
ATOM     18  C   UNL     1       0.933   9.546  17.840  0.00  0.00    +0.000 A 
ATOM     19  C   UNL     1       0.056  10.230  18.686  0.00  0.00    +0.000 A 
ATOM     20  C   UNL     1       0.107  10.028  20.069  0.00  0.00    +0.000 A 
ATOM     21 CL   UNL     1      -0.969  10.950  21.056  0.00  0.00    +0.000 Cl
ATOM     22  C   UNL     1       1.025   9.120  20.599  0.00  0.00    +0.000 A 
ATOM     23 CL   UNL     1       1.151   8.815  22.297  0.00  0.00    +0.000 Cl
ATOM     24  C   UNL     1       1.905   8.437  19.749  0.00  0.00    +0.000 A 
ENDBRANCH  16  17
ENDBRANCH   3  16
TORSDOF 5
ENDMDL
MODEL 4
REMARK VINA RESULT:      -8.1      0.942      1.651
REMARK  Name = 
REMARK  6 active torsions:
REMARK  status: ('A' for Active; 'I' for Inactive)
REMARK    1  A    between atoms: C_1  and  C_2
REMARK    2  A    between atoms: C_2  and  C_3
REMARK    3  A    between atoms: C_3  and  C_4
REMARK    4  A    between atoms: C_4  and  N_5
REMARK    5  A    between atoms: C_7  and  C_8
REMARK    6  A    between atoms: C_8  and  C_9
REMARK                            x       y       z     vdW  Elec       q    Type
REMARK                         _______ _______ _______ _____ _____    ______ ____
ROOT
ATOM      1  N   UNL     1       2.218   4.324  18.270  0.00  0.00    +0.000 N 
ATOM      2  N   UNL     1       2.330   5.691  18.333  0.00  0.00    +0.000 NA
ATOM      3  C   UNL     1       3.311   6.287  17.725  0.00  0.00    +0.000 A 
ATOM      4  C   UNL     1       4.365   5.554  16.988  0.00  0.00    +0.000 A 
ATOM      5  C   UNL     1       5.478   6.176  16.409  0.00  0.00    +0.000 A 
ATOM      6  C   UNL     1       6.467   5.406  15.790  0.00  0.00    +0.000 A 
ATOM      7  C   UNL     1       6.337   4.021  15.719  0.00  0.00    +0.000 A 
ATOM      8  C   UNL     1       5.220   3.402  16.274  0.00  0.00    +0.000 A 
ATOM      9  C   UNL     1       4.241   4.169  16.920  0.00  0.00    +0.000 A 
ATOM     10  C   UNL     1       3.097   3.501  17.575  0.00  0.00    +0.000 A 
ATOM     11  O   UNL     1       2.993   2.283  17.497  0.00  0.00    +0.000 OA
ENDROOT
BRANCH   1  12
ATOM     12  C   UNL     1       1.130   3.741  19.055  0.00  0.00    +0.000 C 
BRANCH  12  13
ATOM     13  C   UNL     1       1.118   4.197  20.516  0.00  0.00    +0.000 C 
BRANCH  13  15
ATOM     14  C   UNL     1       2.856   2.593  21.377  0.00  0.00    +0.000 C 
ATOM     15  C   UNL     1       1.411   3.054  21.487  0.00  0.00    +0.000 C 
ENDBRANCH  13  15
ENDBRANCH  12  13
ENDBRANCH   1  12
BRANCH   3  16
ATOM     16  C   UNL     1       3.345   7.807  17.816  0.00  0.00    +0.000 C 
BRANCH  16  17
ATOM     17  C   UNL     1       2.146   8.439  18.495  0.00  0.00    +0.000 A 
ATOM     18  C   UNL     1       1.296   9.271  17.752  0.00  0.00    +0.000 A 
ATOM     19  C   UNL     1       0.268   9.984  18.376  0.00  0.00    +0.000 A 
ATOM     20  C   UNL     1       0.077   9.882  19.757  0.00  0.00    +0.000 A 
ATOM     21 CL   UNL     1      -1.176  10.835  20.468  0.00  0.00    +0.000 Cl
ATOM     22  C   UNL     1       0.906   9.046  20.509  0.00  0.00    +0.000 A 
ATOM     23 CL   UNL     1       0.734   8.867  22.220  0.00  0.00    +0.000 Cl
ATOM     24  C   UNL     1       1.937   8.335  19.880  0.00  0.00    +0.000 A 
ENDBRANCH  16  17
ENDBRANCH   3  16
TORSDOF 5
ENDMDL
MODEL 5
REMARK VINA RESULT:      -8.1      1.615      3.962
REMARK  Name = 
REMARK  6 active torsions:
REMARK  status: ('A' for Active; 'I' for Inactive)
REMARK    1  A    between atoms: C_1  and  C_2
REMARK    2  A    between atoms: C_2  and  C_3
REMARK    3  A    between atoms: C_3  and  C_4
REMARK    4  A    between atoms: C_4  and  N_5
REMARK    5  A    between atoms: C_7  and  C_8
REMARK    6  A    between atoms: C_8  and  C_9
REMARK                            x       y       z     vdW  Elec       q    Type
REMARK                         _______ _______ _______ _____ _____    ______ ____
ROOT
ATOM      1  N   UNL     1       5.371   5.170  19.100  0.00  0.00    +0.000 N 
ATOM      2  N   UNL     1       4.667   6.216  18.557  0.00  0.00    +0.000 NA
ATOM      3  C   UNL     1       3.414   6.062  18.252  0.00  0.00    +0.000 A 
ATOM      4  C   UNL     1       2.697   4.778  18.420  0.00  0.00    +0.000 A 
ATOM      5  C   UNL     1       1.375   4.572  18.009  0.00  0.00    +0.000 A 
ATOM      6  C   UNL     1       0.790   3.308  18.139  0.00  0.00    +0.000 A 
ATOM      7  C   UNL     1       1.508   2.257  18.704  0.00  0.00    +0.000 A 
ATOM      8  C   UNL     1       2.816   2.465  19.134  0.00  0.00    +0.000 A 
ATOM      9  C   UNL     1       3.414   3.724  18.980  0.00  0.00    +0.000 A 
ATOM     10  C   UNL     1       4.826   3.919  19.367  0.00  0.00    +0.000 A 
ATOM     11  O   UNL     1       5.442   2.987  19.870  0.00  0.00    +0.000 OA
ENDROOT
BRANCH   1  12
ATOM     12  C   UNL     1       6.795   5.416  19.330  0.00  0.00    +0.000 C 
BRANCH  12  13
ATOM     13  C   UNL     1       7.582   5.693  18.048  0.00  0.00    +0.000 C 
BRANCH  13  15
ATOM     14  C   UNL     1       6.848   4.983  15.747  0.00  0.00    +0.000 C 
ATOM     15  C   UNL     1       7.497   4.539  17.049  0.00  0.00    +0.000 C 
ENDBRANCH  13  15
ENDBRANCH  12  13
ENDBRANCH   1  12
BRANCH   3  16
ATOM     16  C   UNL     1       2.696   7.280  17.685  0.00  0.00    +0.000 C 
BRANCH  16  17
ATOM     17  C   UNL     1       2.034   8.174  18.715  0.00  0.00    +0.000 A 
ATOM     18  C   UNL     1       1.921   7.728  20.040  0.00  0.00    +0.000 A 
ATOM     19  C   UNL     1       1.191   8.459  20.981  0.00  0.00    +0.000 A 
ATOM     20  C   UNL     1       0.553   9.646  20.611  0.00  0.00    +0.000 A 
ATOM     21 CL   UNL     1      -0.379  10.467  21.812  0.00  0.00    +0.000 Cl
ATOM     22  C   UNL     1       0.667  10.111  19.299  0.00  0.00    +0.000 A 
ATOM     23 CL   UNL     1      -0.093  11.568  18.764  0.00  0.00    +0.000 Cl
ATOM     24  C   UNL     1       1.398   9.374  18.357  0.00  0.00    +0.000 A 
ENDBRANCH  16  17
ENDBRANCH   3  16
TORSDOF 5
ENDMDL
MODEL 6
REMARK VINA RESULT:      -7.8      1.686      4.212
REMARK  Name = 
REMARK  6 active torsions:
REMARK  status: ('A' for Active; 'I' for Inactive)
REMARK    1  A    between atoms: C_1  and  C_2
REMARK    2  A    between atoms: C_2  and  C_3
REMARK    3  A    between atoms: C_3  and  C_4
REMARK    4  A    between atoms: C_4  and  N_5
REMARK    5  A    between atoms: C_7  and  C_8
REMARK    6  A    between atoms: C_8  and  C_9
REMARK                            x       y       z     vdW  Elec       q    Type
REMARK                         _______ _______ _______ _____ _____    ______ ____
ROOT
ATOM      1  N   UNL     1       5.381   5.119  19.146  0.00  0.00    +0.000 N 
ATOM      2  N   UNL     1       4.777   6.155  18.478  0.00  0.00    +0.000 NA
ATOM      3  C   UNL     1       3.538   6.046  18.103  0.00  0.00    +0.000 A 
ATOM      4  C   UNL     1       2.736   4.822  18.321  0.00  0.00    +0.000 A 
ATOM      5  C   UNL     1       1.431   4.657  17.839  0.00  0.00    +0.000 A 
ATOM      6  C   UNL     1       0.764   3.443  18.026  0.00  0.00    +0.000 A 
ATOM      7  C   UNL     1       1.381   2.402  18.718  0.00  0.00    +0.000 A 
ATOM      8  C   UNL     1       2.670   2.572  19.218  0.00  0.00    +0.000 A 
ATOM      9  C   UNL     1       3.351   3.778  19.007  0.00  0.00    +0.000 A 
ATOM     10  C   UNL     1       4.746   3.925  19.472  0.00  0.00    +0.000 A 
ATOM     11  O   UNL     1       5.271   3.005  20.085  0.00  0.00    +0.000 OA
ENDROOT
BRANCH   1  12
ATOM     12  C   UNL     1       6.800   5.303  19.452  0.00  0.00    +0.000 C 
BRANCH  12  13
ATOM     13  C   UNL     1       7.654   5.618  18.222  0.00  0.00    +0.000 C 
BRANCH  13  15
ATOM     14  C   UNL     1       7.045   4.931  15.878  0.00  0.00    +0.000 C 
ATOM     15  C   UNL     1       7.647   4.481  17.200  0.00  0.00    +0.000 C 
ENDBRANCH  13  15
ENDBRANCH  12  13
ENDBRANCH   1  12
BRANCH   3  16
ATOM     16  C   UNL     1       2.932   7.253  17.397  0.00  0.00    +0.000 C 
BRANCH  16  17
ATOM     17  C   UNL     1       2.101   8.164  18.278  0.00  0.00    +0.000 A 
ATOM     18  C   UNL     1       1.634   9.381  17.760  0.00  0.00    +0.000 A 
ATOM     19  C   UNL     1       0.990  10.309  18.583  0.00  0.00    +0.000 A 
ATOM     20  C   UNL     1       0.810  10.040  19.943  0.00  0.00    +0.000 A 
ATOM     21 CL   UNL     1       0.058  11.257  20.911  0.00  0.00    +0.000 Cl
ATOM     22  C   UNL     1       1.257   8.827  20.471  0.00  0.00    +0.000 A 
ATOM     23 CL   UNL     1       1.072   8.420  22.141  0.00  0.00    +0.000 Cl
ATOM     24  C   UNL     1       1.903   7.899  19.643  0.00  0.00    +0.000 A 
ENDBRANCH  16  17
ENDBRANCH   3  16
TORSDOF 5
ENDMDL
MODEL 7
REMARK VINA RESULT:      -7.7      1.417      4.247
REMARK  Name = 
REMARK  6 active torsions:
REMARK  status: ('A' for Active; 'I' for Inactive)
REMARK    1  A    between atoms: C_1  and  C_2
REMARK    2  A    between atoms: C_2  and  C_3
REMARK    3  A    between atoms: C_3  and  C_4
REMARK    4  A    between atoms: C_4  and  N_5
REMARK    5  A    between atoms: C_7  and  C_8
REMARK    6  A    between atoms: C_8  and  C_9
REMARK                            x       y       z     vdW  Elec       q    Type
REMARK                         _______ _______ _______ _____ _____    ______ ____
ROOT
ATOM      1  N   UNL     1       4.270   5.780  17.384  0.00  0.00    +0.000 N 
ATOM      2  N   UNL     1       3.789   6.585  18.386  0.00  0.00    +0.000 NA
ATOM      3  C   UNL     1       2.888   6.129  19.204  0.00  0.00    +0.000 A 
ATOM      4  C   UNL     1       2.306   4.774  19.086  0.00  0.00    +0.000 A 
ATOM      5  C   UNL     1       1.269   4.304  19.902  0.00  0.00    +0.000 A 
ATOM      6  C   UNL     1       0.725   3.035  19.681  0.00  0.00    +0.000 A 
ATOM      7  C   UNL     1       1.230   2.220  18.671  0.00  0.00    +0.000 A 
ATOM      8  C   UNL     1       2.277   2.676  17.872  0.00  0.00    +0.000 A 
ATOM      9  C   UNL     1       2.805   3.959  18.073  0.00  0.00    +0.000 A 
ATOM     10  C   UNL     1       3.862   4.467  17.174  0.00  0.00    +0.000 A 
ATOM     11  O   UNL     1       4.301   3.736  16.296  0.00  0.00    +0.000 OA
ENDROOT
BRANCH   1  12
ATOM     12  C   UNL     1       5.217   6.411  16.465  0.00  0.00    +0.000 C 
BRANCH  12  13
ATOM     13  C   UNL     1       6.668   5.981  16.692  0.00  0.00    +0.000 C 
BRANCH  13  15
ATOM     14  C   UNL     1       7.823   6.100  18.926  0.00  0.00    +0.000 C 
ATOM     15  C   UNL     1       7.394   6.880  17.693  0.00  0.00    +0.000 C 
ENDBRANCH  13  15
ENDBRANCH  12  13
ENDBRANCH   1  12
BRANCH   3  16
ATOM     16  C   UNL     1       2.431   7.074  20.308  0.00  0.00    +0.000 C 
BRANCH  16  17
ATOM     17  C   UNL     1       1.584   8.244  19.845  0.00  0.00    +0.000 A 
ATOM     18  C   UNL     1       1.694   8.688  18.519  0.00  0.00    +0.000 A 
ATOM     19  C   UNL     1       1.040   9.849  18.098  0.00  0.00    +0.000 A 
ATOM     20  C   UNL     1       0.270  10.591  18.998  0.00  0.00    +0.000 A 
ATOM     21 CL   UNL     1      -0.463  12.046  18.422  0.00  0.00    +0.000 Cl
ATOM     22  C   UNL     1       0.139  10.154  20.318  0.00  0.00    +0.000 A 
ATOM     23 CL   UNL     1      -0.794  11.016  21.491  0.00  0.00    +0.000 Cl
ATOM     24  C   UNL     1       0.797   8.990  20.738  0.00  0.00    +0.000 A 
ENDBRANCH  16  17
ENDBRANCH   3  16
TORSDOF 5
ENDMDL
MODEL 8
REMARK VINA RESULT:      -7.7      1.172      1.879
REMARK  Name = 
REMARK  6 active torsions:
REMARK  status: ('A' for Active; 'I' for Inactive)
REMARK    1  A    between atoms: C_1  and  C_2
REMARK    2  A    between atoms: C_2  and  C_3
REMARK    3  A    between atoms: C_3  and  C_4
REMARK    4  A    between atoms: C_4  and  N_5
REMARK    5  A    between atoms: C_7  and  C_8
REMARK    6  A    between atoms: C_8  and  C_9
REMARK                            x       y       z     vdW  Elec       q    Type
REMARK                         _______ _______ _______ _____ _____    ______ ____
ROOT
ATOM      1  N   UNL     1       3.215   4.677  19.603  0.00  0.00    +0.000 N 
ATOM      2  N   UNL     1       2.720   5.820  19.028  0.00  0.00    +0.000 NA
ATOM      3  C   UNL     1       3.472   6.523  18.236  0.00  0.00    +0.000 A 
ATOM      4  C   UNL     1       4.881   6.175  17.947  0.00  0.00    +0.000 A 
ATOM      5  C   UNL     1       5.731   6.974  17.171  0.00  0.00    +0.000 A 
ATOM      6  C   UNL     1       7.071   6.612  17.002  0.00  0.00    +0.000 A 
ATOM      7  C   UNL     1       7.560   5.442  17.578  0.00  0.00    +0.000 A 
ATOM      8  C   UNL     1       6.712   4.634  18.332  0.00  0.00    +0.000 A 
ATOM      9  C   UNL     1       5.376   5.009  18.525  0.00  0.00    +0.000 A 
ATOM     10  C   UNL     1       4.500   4.190  19.389  0.00  0.00    +0.000 A 
ATOM     11  O   UNL     1       4.943   3.160  19.882  0.00  0.00    +0.000 OA
ENDROOT
BRANCH   1  12
ATOM     12  C   UNL     1       2.321   4.002  20.544  0.00  0.00    +0.000 C 
BRANCH  12  13
ATOM     13  C   UNL     1       0.875   3.908  20.053  0.00  0.00    +0.000 C 
BRANCH  13  15
ATOM     14  C   UNL     1       1.752   1.755  19.086  0.00  0.00    +0.000 C 
ATOM     15  C   UNL     1       0.693   2.841  18.973  0.00  0.00    +0.000 C 
ENDBRANCH  13  15
ENDBRANCH  12  13
ENDBRANCH   1  12
BRANCH   3  16
ATOM     16  C   UNL     1       2.837   7.759  17.612  0.00  0.00    +0.000 C 
BRANCH  16  17
ATOM     17  C   UNL     1       1.830   8.477  18.489  0.00  0.00    +0.000 A 
ATOM     18  C   UNL     1       0.934   9.385  17.904  0.00  0.00    +0.000 A 
ATOM     19  C   UNL     1       0.093  10.170  18.696  0.00  0.00    +0.000 A 
ATOM     20  C   UNL     1       0.138  10.068  20.090  0.00  0.00    +0.000 A 
ATOM     21 CL   UNL     1      -0.890  11.111  21.006  0.00  0.00    +0.000 Cl
ATOM     22  C   UNL     1       1.014   9.160  20.687  0.00  0.00    +0.000 A 
ATOM     23 CL   UNL     1       1.129   8.975  22.402  0.00  0.00    +0.000 Cl
ATOM     24  C   UNL     1       1.858   8.374  19.889  0.00  0.00    +0.000 A 
ENDBRANCH  16  17
ENDBRANCH   3  16
TORSDOF 5
ENDMDL
MODEL 9
REMARK VINA RESULT:      -7.7      0.996      1.038
REMARK  Name = 
REMARK  6 active torsions:
REMARK  status: ('A' for Active; 'I' for Inactive)
REMARK    1  A    between atoms: C_1  and  C_2
REMARK    2  A    between atoms: C_2  and  C_3
REMARK    3  A    between atoms: C_3  and  C_4
REMARK    4  A    between atoms: C_4  and  N_5
REMARK    5  A    between atoms: C_7  and  C_8
REMARK    6  A    between atoms: C_8  and  C_9
REMARK                            x       y       z     vdW  Elec       q    Type
REMARK                         _______ _______ _______ _____ _____    ______ ____
ROOT
ATOM      1  N   UNL     1       3.278   4.060  18.565  0.00  0.00    +0.000 N 
ATOM      2  N   UNL     1       2.753   5.247  18.119  0.00  0.00    +0.000 NA
ATOM      3  C   UNL     1       3.548   6.215  17.773  0.00  0.00    +0.000 A 
ATOM      4  C   UNL     1       5.021   6.123  17.877  0.00  0.00    +0.000 A 
ATOM      5  C   UNL     1       5.884   7.190  17.598  0.00  0.00    +0.000 A 
ATOM      6  C   UNL     1       7.261   7.045  17.788  0.00  0.00    +0.000 A 
ATOM      7  C   UNL     1       7.786   5.831  18.227  0.00  0.00    +0.000 A 
ATOM      8  C   UNL     1       6.931   4.762  18.485  0.00  0.00    +0.000 A 
ATOM      9  C   UNL     1       5.548   4.913  18.322  0.00  0.00    +0.000 A 
ATOM     10  C   UNL     1       4.640   3.801  18.670  0.00  0.00    +0.000 A 
ATOM     11  O   UNL     1       5.117   2.737  19.048  0.00  0.00    +0.000 OA
ENDROOT
BRANCH   1  12
ATOM     12  C   UNL     1       2.304   3.064  19.009  0.00  0.00    +0.000 C 
BRANCH  12  13
ATOM     13  C   UNL     1       1.118   3.664  19.767  0.00  0.00    +0.000 C 
BRANCH  13  15
ATOM     14  C   UNL     1       2.398   2.549  21.626  0.00  0.00    +0.000 C 
ATOM     15  C   UNL     1       1.134   3.308  21.254  0.00  0.00    +0.000 C 
ENDBRANCH  13  15
ENDBRANCH  12  13
ENDBRANCH   1  12
BRANCH   3  16
ATOM     16  C   UNL     1       2.887   7.487  17.258  0.00  0.00    +0.000 C 
BRANCH  16  17
ATOM     17  C   UNL     1       2.155   8.303  18.306  0.00  0.00    +0.000 A 
ATOM     18  C   UNL     1       2.104   7.835  19.628  0.00  0.00    +0.000 A 
ATOM     19  C   UNL     1       1.320   8.482  20.586  0.00  0.00    +0.000 A 
ATOM     20  C   UNL     1       0.566   9.607  20.237  0.00  0.00    +0.000 A 
ATOM     21 CL   UNL     1      -0.424  10.322  21.459  0.00  0.00    +0.000 Cl
ATOM     22  C   UNL     1       0.617  10.094  18.930  0.00  0.00    +0.000 A 
ATOM     23 CL   UNL     1      -0.286  11.477  18.421  0.00  0.00    +0.000 Cl
ATOM     24  C   UNL     1       1.403   9.441  17.970  0.00  0.00    +0.000 A 
ENDBRANCH  16  17
ENDBRANCH   3  16
TORSDOF 5
ENDMDL
