MODEL 1
REMARK VINA RESULT:      -7.0      0.000      0.000
REMARK  Name = 
REMARK  8 active torsions:
REMARK  status: ('A' for Active; 'I' for Inactive)
REMARK    1  A    between atoms: C_1  and  C_2
REMARK    2  A    between atoms: C_2  and  C_17
REMARK    3  A    between atoms: N_3  and  N_4
REMARK    4  A    between atoms: C_5  and  C_7
REMARK    5  A    between atoms: C_7  and  O_8
REMARK    6  A    between atoms: O_8  and  C_9
REMARK    7  A    between atoms: C_10  and  C_11
REMARK    8  A    between atoms: C_15  and  C_16
REMARK                            x       y       z     vdW  Elec       q    Type
REMARK                         _______ _______ _______ _____ _____    ______ ____
ROOT
ATOM      1  N   UNL     1       2.783   6.732  20.115  0.00  0.00    +0.000 N 
ATOM      2  C   UNL     1       2.387   5.413  20.260  0.00  0.00    +0.000 C 
ATOM      3  O   UNL     1       1.261   5.054  20.611  0.00  0.00    +0.000 OA
ATOM      4  H   UNL     1       3.749   6.957  19.911  0.00  0.00    +0.000 HD
ENDROOT
BRANCH   1   7
ATOM      5  C   UNL     1       2.162   8.561  17.998  0.00  0.00    +0.000 C 
ATOM      6  C   UNL     1       1.588   8.584  19.401  0.00  0.00    +0.000 C 
ATOM      7  N   UNL     1       1.870   7.716  20.331  0.00  0.00    +0.000 NA
BRANCH   6   8
ATOM      8  C   UNL     1       0.601   9.611  19.748  0.00  0.00    +0.000 A 
ATOM      9  C   UNL     1       0.304  10.098  21.011  0.00  0.00    +0.000 A 
ATOM     10  C   UNL     1      -0.723  11.085  21.000  0.00  0.00    +0.000 A 
ATOM     11  C   UNL     1      -1.188  11.324  19.727  0.00  0.00    +0.000 A 
ATOM     12  S   UNL     1      -0.379  10.371  18.563  0.00  0.00    +0.000 S 
ENDBRANCH   6   8
ENDBRANCH   1   7
BRANCH   2  13
ATOM     13  C   UNL     1       3.439   4.400  19.814  0.00  0.00    +0.000 C 
BRANCH  13  14
ATOM     14  O   UNL     1       4.678   5.004  19.491  0.00  0.00    +0.000 OA
BRANCH  14  15
ATOM     15  C   UNL     1       5.235   4.744  18.259  0.00  0.00    +0.000 A 
ATOM     16  C   UNL     1       6.625   5.007  18.174  0.00  0.00    +0.000 A 
ATOM     17  C   UNL     1       7.432   5.572  19.315  0.00  0.00    +0.000 C 
ATOM     18  C   UNL     1       7.316   4.766  16.972  0.00  0.00    +0.000 A 
ATOM     19  C   UNL     1       6.662   4.234  15.872  0.00  0.00    +0.000 A 
ATOM     20  C   UNL     1       5.311   3.939  15.962  0.00  0.00    +0.000 A 
ATOM     21  C   UNL     1       4.581   4.162  17.149  0.00  0.00    +0.000 A 
ATOM     22  C   UNL     1       3.152   3.697  17.118  0.00  0.00    +0.000 C 
ENDBRANCH  14  15
ENDBRANCH  13  14
ENDBRANCH   2  13
TORSDOF 5
ENDMDL
MODEL 2
REMARK VINA RESULT:      -7.0      2.055      3.647
REMARK  Name = 
REMARK  8 active torsions:
REMARK  status: ('A' for Active; 'I' for Inactive)
REMARK    1  A    between atoms: C_1  and  C_2
REMARK    2  A    between atoms: C_2  and  C_17
REMARK    3  A    between atoms: N_3  and  N_4
REMARK    4  A    between atoms: C_5  and  C_7
REMARK    5  A    between atoms: C_7  and  O_8
REMARK    6  A    between atoms: O_8  and  C_9
REMARK    7  A    between atoms: C_10  and  C_11
REMARK    8  A    between atoms: C_15  and  C_16
REMARK                            x       y       z     vdW  Elec       q    Type
REMARK                         _______ _______ _______ _____ _____    ______ ____
ROOT
ATOM      1  N   UNL     1       1.745   8.458  19.720  0.00  0.00    +0.000 N 
ATOM      2  C   UNL     1       2.043   8.465  18.368  0.00  0.00    +0.000 C 
ATOM      3  O   UNL     1       1.853   9.421  17.614  0.00  0.00    +0.000 OA
ATOM      4  H   UNL     1       1.842   7.609  20.263  0.00  0.00    +0.000 HD
ENDROOT
BRANCH   1   7
ATOM      5  C   UNL     1      -0.338   8.250  21.677  0.00  0.00    +0.000 C 
ATOM      6  C   UNL     1       0.275   9.533  21.154  0.00  0.00    +0.000 C 
ATOM      7  N   UNL     1       1.245   9.590  20.285  0.00  0.00    +0.000 NA
BRANCH   6   8
ATOM      8  C   UNL     1      -0.197  10.815  21.685  0.00  0.00    +0.000 A 
ATOM      9  C   UNL     1      -1.018  11.018  22.783  0.00  0.00    +0.000 A 
ATOM     10  C   UNL     1      -1.302  12.395  23.019  0.00  0.00    +0.000 A 
ATOM     11  C   UNL     1      -0.692  13.207  22.092  0.00  0.00    +0.000 A 
ATOM     12  S   UNL     1       0.219  12.311  20.959  0.00  0.00    +0.000 S 
ENDBRANCH   6   8
ENDBRANCH   1   7
BRANCH   2  13
ATOM     13  C   UNL     1       2.765   7.208  17.890  0.00  0.00    +0.000 C 
BRANCH  13  14
ATOM     14  O   UNL     1       3.036   6.298  18.940  0.00  0.00    +0.000 OA
BRANCH  14  15
ATOM     15  C   UNL     1       2.945   4.949  18.681  0.00  0.00    +0.000 A 
ATOM     16  C   UNL     1       1.954   4.270  19.433  0.00  0.00    +0.000 A 
ATOM     17  C   UNL     1       1.095   4.946  20.470  0.00  0.00    +0.000 C 
ATOM     18  C   UNL     1       1.751   2.890  19.248  0.00  0.00    +0.000 A 
ATOM     19  C   UNL     1       2.484   2.185  18.306  0.00  0.00    +0.000 A 
ATOM     20  C   UNL     1       3.428   2.852  17.541  0.00  0.00    +0.000 A 
ATOM     21  C   UNL     1       3.662   4.235  17.693  0.00  0.00    +0.000 A 
ATOM     22  C   UNL     1       4.643   4.828  16.721  0.00  0.00    +0.000 C 
ENDBRANCH  14  15
ENDBRANCH  13  14
ENDBRANCH   2  13
TORSDOF 5
ENDMDL
MODEL 3
REMARK VINA RESULT:      -6.9      2.494      3.873
REMARK  Name = 
REMARK  8 active torsions:
REMARK  status: ('A' for Active; 'I' for Inactive)
REMARK    1  A    between atoms: C_1  and  C_2
REMARK    2  A    between atoms: C_2  and  C_17
REMARK    3  A    between atoms: N_3  and  N_4
REMARK    4  A    between atoms: C_5  and  C_7
REMARK    5  A    between atoms: C_7  and  O_8
REMARK    6  A    between atoms: O_8  and  C_9
REMARK    7  A    between atoms: C_10  and  C_11
REMARK    8  A    between atoms: C_15  and  C_16
REMARK                            x       y       z     vdW  Elec       q    Type
REMARK                         _______ _______ _______ _____ _____    ______ ____
ROOT
ATOM      1  N   UNL     1       0.647   9.858  17.880  0.00  0.00    +0.000 N 
ATOM      2  C   UNL     1       1.458   9.040  18.649  0.00  0.00    +0.000 C 
ATOM      3  O   UNL     1       1.377   8.926  19.873  0.00  0.00    +0.000 OA
ATOM      4  H   UNL     1       0.827   9.973  16.890  0.00  0.00    +0.000 HD
ENDROOT
BRANCH   1   7
ATOM      5  C   UNL     1      -1.998   9.822  16.777  0.00  0.00    +0.000 C 
ATOM      6  C   UNL     1      -1.547  10.594  18.001  0.00  0.00    +0.000 C 
ATOM      7  N   UNL     1      -0.340  10.563  18.494  0.00  0.00    +0.000 NA
BRANCH   6   8
ATOM      8  C   UNL     1      -2.528  11.399  18.735  0.00  0.00    +0.000 A 
ATOM      9  C   UNL     1      -3.886  11.504  18.482  0.00  0.00    +0.000 A 
ATOM     10  C   UNL     1      -4.552  12.389  19.378  0.00  0.00    +0.000 A 
ATOM     11  C   UNL     1      -3.683  12.941  20.291  0.00  0.00    +0.000 A 
ATOM     12  S   UNL     1      -2.085  12.382  20.068  0.00  0.00    +0.000 S 
ENDBRANCH   6   8
ENDBRANCH   1   7
BRANCH   2  13
ATOM     13  C   UNL     1       2.403   8.164  17.831  0.00  0.00    +0.000 C 
BRANCH  13  14
ATOM     14  O   UNL     1       3.188   7.304  18.637  0.00  0.00    +0.000 OA
BRANCH  14  15
ATOM     15  C   UNL     1       3.442   6.028  18.184  0.00  0.00    +0.000 A 
ATOM     16  C   UNL     1       2.688   5.014  18.826  0.00  0.00    +0.000 A 
ATOM     17  C   UNL     1       1.721   5.288  19.949  0.00  0.00    +0.000 C 
ATOM     18  C   UNL     1       2.844   3.670  18.442  0.00  0.00    +0.000 A 
ATOM     19  C   UNL     1       3.701   3.322  17.410  0.00  0.00    +0.000 A 
ATOM     20  C   UNL     1       4.412   4.313  16.753  0.00  0.00    +0.000 A 
ATOM     21  C   UNL     1       4.284   5.674  17.105  0.00  0.00    +0.000 A 
ATOM     22  C   UNL     1       5.043   6.634  16.233  0.00  0.00    +0.000 C 
ENDBRANCH  14  15
ENDBRANCH  13  14
ENDBRANCH   2  13
TORSDOF 5
ENDMDL
MODEL 4
REMARK VINA RESULT:      -6.9      2.092      3.628
REMARK  Name = 
REMARK  8 active torsions:
REMARK  status: ('A' for Active; 'I' for Inactive)
REMARK    1  A    between atoms: C_1  and  C_2
REMARK    2  A    between atoms: C_2  and  C_17
REMARK    3  A    between atoms: N_3  and  N_4
REMARK    4  A    between atoms: C_5  and  C_7
REMARK    5  A    between atoms: C_7  and  O_8
REMARK    6  A    between atoms: O_8  and  C_9
REMARK    7  A    between atoms: C_10  and  C_11
REMARK    8  A    between atoms: C_15  and  C_16
REMARK                            x       y       z     vdW  Elec       q    Type
REMARK                         _______ _______ _______ _____ _____    ______ ____
ROOT
ATOM      1  N   UNL     1       1.615   8.499  19.523  0.00  0.00    +0.000 N 
ATOM      2  C   UNL     1       2.176   8.333  18.268  0.00  0.00    +0.000 C 
ATOM      3  O   UNL     1       2.065   9.136  17.340  0.00  0.00    +0.000 OA
ATOM      4  H   UNL     1       1.668   7.759  20.211  0.00  0.00    +0.000 HD
ENDROOT
BRANCH   1   7
ATOM      5  C   UNL     1      -0.268   8.539  21.683  0.00  0.00    +0.000 C 
ATOM      6  C   UNL     1       0.035   9.684  20.738  0.00  0.00    +0.000 C 
ATOM      7  N   UNL     1       0.922   9.641  19.783  0.00  0.00    +0.000 NA
BRANCH   6   8
ATOM      8  C   UNL     1      -0.663  10.960  20.919  0.00  0.00    +0.000 A 
ATOM      9  C   UNL     1      -1.162  11.792  19.929  0.00  0.00    +0.000 A 
ATOM     10  C   UNL     1      -1.772  12.971  20.450  0.00  0.00    +0.000 A 
ATOM     11  C   UNL     1      -1.718  13.009  21.824  0.00  0.00    +0.000 A 
ATOM     12  S   UNL     1      -0.949  11.629  22.471  0.00  0.00    +0.000 S 
ENDBRANCH   6   8
ENDBRANCH   1   7
BRANCH   2  13
ATOM     13  C   UNL     1       3.078   7.107  18.154  0.00  0.00    +0.000 C 
BRANCH  13  14
ATOM     14  O   UNL     1       2.350   5.893  18.109  0.00  0.00    +0.000 OA
BRANCH  14  15
ATOM     15  C   UNL     1       2.923   4.762  18.645  0.00  0.00    +0.000 A 
ATOM     16  C   UNL     1       2.380   4.359  19.890  0.00  0.00    +0.000 A 
ATOM     17  C   UNL     1       1.297   5.125  20.606  0.00  0.00    +0.000 C 
ATOM     18  C   UNL     1       2.869   3.207  20.533  0.00  0.00    +0.000 A 
ATOM     19  C   UNL     1       3.855   2.431  19.945  0.00  0.00    +0.000 A 
ATOM     20  C   UNL     1       4.363   2.799  18.710  0.00  0.00    +0.000 A 
ATOM     21  C   UNL     1       3.900   3.944  18.029  0.00  0.00    +0.000 A 
ATOM     22  C   UNL     1       4.477   4.151  16.657  0.00  0.00    +0.000 C 
ENDBRANCH  14  15
ENDBRANCH  13  14
ENDBRANCH   2  13
TORSDOF 5
ENDMDL
MODEL 5
REMARK VINA RESULT:      -6.9      1.001      1.215
REMARK  Name = 
REMARK  8 active torsions:
REMARK  status: ('A' for Active; 'I' for Inactive)
REMARK    1  A    between atoms: C_1  and  C_2
REMARK    2  A    between atoms: C_2  and  C_17
REMARK    3  A    between atoms: N_3  and  N_4
REMARK    4  A    between atoms: C_5  and  C_7
REMARK    5  A    between atoms: C_7  and  O_8
REMARK    6  A    between atoms: O_8  and  C_9
REMARK    7  A    between atoms: C_10  and  C_11
REMARK    8  A    between atoms: C_15  and  C_16
REMARK                            x       y       z     vdW  Elec       q    Type
REMARK                         _______ _______ _______ _____ _____    ______ ____
ROOT
ATOM      1  N   UNL     1       3.108   6.060  20.087  0.00  0.00    +0.000 N 
ATOM      2  C   UNL     1       2.603   4.783  19.909  0.00  0.00    +0.000 C 
ATOM      3  O   UNL     1       1.407   4.513  19.791  0.00  0.00    +0.000 OA
ATOM      4  H   UNL     1       4.094   6.201  20.267  0.00  0.00    +0.000 HD
ENDROOT
BRANCH   1   7
ATOM      5  C   UNL     1       2.977   7.789  17.805  0.00  0.00    +0.000 C 
ATOM      6  C   UNL     1       2.181   7.934  19.086  0.00  0.00    +0.000 C 
ATOM      7  N   UNL     1       2.243   7.109  20.094  0.00  0.00    +0.000 NA
BRANCH   6   8
ATOM      8  C   UNL     1       1.225   9.038  19.208  0.00  0.00    +0.000 A 
ATOM      9  C   UNL     1       0.686   9.800  18.183  0.00  0.00    +0.000 A 
ATOM     10  C   UNL     1      -0.204  10.811  18.649  0.00  0.00    +0.000 A 
ATOM     11  C   UNL     1      -0.318  10.797  20.020  0.00  0.00    +0.000 A 
ATOM     12  S   UNL     1       0.633   9.567  20.728  0.00  0.00    +0.000 S 
ENDBRANCH   6   8
ENDBRANCH   1   7
BRANCH   2  13
ATOM     13  C   UNL     1       3.679   3.714  19.735  0.00  0.00    +0.000 C 
BRANCH  13  14
ATOM     14  O   UNL     1       4.954   4.260  19.448  0.00  0.00    +0.000 OA
BRANCH  14  15
ATOM     15  C   UNL     1       5.300   4.470  18.132  0.00  0.00    +0.000 A 
ATOM     16  C   UNL     1       6.517   5.173  17.948  0.00  0.00    +0.000 A 
ATOM     17  C   UNL     1       7.349   5.698  19.089  0.00  0.00    +0.000 C 
ATOM     18  C   UNL     1       6.989   5.436  16.649  0.00  0.00    +0.000 A 
ATOM     19  C   UNL     1       6.298   4.980  15.538  0.00  0.00    +0.000 A 
ATOM     20  C   UNL     1       5.128   4.259  15.713  0.00  0.00    +0.000 A 
ATOM     21  C   UNL     1       4.620   3.971  16.997  0.00  0.00    +0.000 A 
ATOM     22  C   UNL     1       3.399   3.095  17.021  0.00  0.00    +0.000 C 
ENDBRANCH  14  15
ENDBRANCH  13  14
ENDBRANCH   2  13
TORSDOF 5
ENDMDL
MODEL 6
REMARK VINA RESULT:      -6.9      2.670      3.972
REMARK  Name = 
REMARK  8 active torsions:
REMARK  status: ('A' for Active; 'I' for Inactive)
REMARK    1  A    between atoms: C_1  and  C_2
REMARK    2  A    between atoms: C_2  and  C_17
REMARK    3  A    between atoms: N_3  and  N_4
REMARK    4  A    between atoms: C_5  and  C_7
REMARK    5  A    between atoms: C_7  and  O_8
REMARK    6  A    between atoms: O_8  and  C_9
REMARK    7  A    between atoms: C_10  and  C_11
REMARK    8  A    between atoms: C_15  and  C_16
REMARK                            x       y       z     vdW  Elec       q    Type
REMARK                         _______ _______ _______ _____ _____    ______ ____
ROOT
ATOM      1  N   UNL     1       0.295   9.874  17.740  0.00  0.00    +0.000 N 
ATOM      2  C   UNL     1       1.299   9.253  18.464  0.00  0.00    +0.000 C 
ATOM      3  O   UNL     1       1.409   9.298  19.690  0.00  0.00    +0.000 OA
ATOM      4  H   UNL     1       0.316   9.872  16.728  0.00  0.00    +0.000 HD
ENDROOT
BRANCH   1   7
ATOM      5  C   UNL     1      -2.270  10.248  16.518  0.00  0.00    +0.000 C 
ATOM      6  C   UNL     1      -1.839  10.768  17.875  0.00  0.00    +0.000 C 
ATOM      7  N   UNL     1      -0.672  10.552  18.414  0.00  0.00    +0.000 NA
BRANCH   6   8
ATOM      8  C   UNL     1      -2.800  11.524  18.684  0.00  0.00    +0.000 A 
ATOM      9  C   UNL     1      -2.534  12.275  19.818  0.00  0.00    +0.000 A 
ATOM     10  C   UNL     1      -3.703  12.871  20.376  0.00  0.00    +0.000 A 
ATOM     11  C   UNL     1      -4.831  12.554  19.656  0.00  0.00    +0.000 A 
ATOM     12  S   UNL     1      -4.474  11.558  18.315  0.00  0.00    +0.000 S 
ENDBRANCH   6   8
ENDBRANCH   1   7
BRANCH   2  13
ATOM     13  C   UNL     1       2.216   8.375  17.617  0.00  0.00    +0.000 C 
BRANCH  13  14
ATOM     14  O   UNL     1       3.185   7.689  18.389  0.00  0.00    +0.000 OA
BRANCH  14  15
ATOM     15  C   UNL     1       3.197   6.312  18.358  0.00  0.00    +0.000 A 
ATOM     16  C   UNL     1       4.061   5.752  17.383  0.00  0.00    +0.000 A 
ATOM     17  C   UNL     1       4.868   6.582  16.419  0.00  0.00    +0.000 C 
ATOM     18  C   UNL     1       4.176   4.355  17.263  0.00  0.00    +0.000 A 
ATOM     19  C   UNL     1       3.483   3.510  18.115  0.00  0.00    +0.000 A 
ATOM     20  C   UNL     1       2.667   4.053  19.095  0.00  0.00    +0.000 A 
ATOM     21  C   UNL     1       2.524   5.447  19.252  0.00  0.00    +0.000 A 
ATOM     22  C   UNL     1       1.685   5.877  20.422  0.00  0.00    +0.000 C 
ENDBRANCH  14  15
ENDBRANCH  13  14
ENDBRANCH   2  13
TORSDOF 5
ENDMDL
MODEL 7
REMARK VINA RESULT:      -6.9      1.660      1.912
REMARK  Name = 
REMARK  8 active torsions:
REMARK  status: ('A' for Active; 'I' for Inactive)
REMARK    1  A    between atoms: C_1  and  C_2
REMARK    2  A    between atoms: C_2  and  C_17
REMARK    3  A    between atoms: N_3  and  N_4
REMARK    4  A    between atoms: C_5  and  C_7
REMARK    5  A    between atoms: C_7  and  O_8
REMARK    6  A    between atoms: O_8  and  C_9
REMARK    7  A    between atoms: C_10  and  C_11
REMARK    8  A    between atoms: C_15  and  C_16
REMARK                            x       y       z     vdW  Elec       q    Type
REMARK                         _______ _______ _______ _____ _____    ______ ____
ROOT
ATOM      1  N   UNL     1       2.322   6.988  20.364  0.00  0.00    +0.000 N 
ATOM      2  C   UNL     1       2.060   5.629  20.417  0.00  0.00    +0.000 C 
ATOM      3  O   UNL     1       1.160   5.116  21.085  0.00  0.00    +0.000 OA
ATOM      4  H   UNL     1       3.133   7.335  19.867  0.00  0.00    +0.000 HD
ENDROOT
BRANCH   1   7
ATOM      5  C   UNL     1       1.277   9.315  19.057  0.00  0.00    +0.000 C 
ATOM      6  C   UNL     1       1.050   8.921  20.504  0.00  0.00    +0.000 C 
ATOM      7  N   UNL     1       1.517   7.837  21.058  0.00  0.00    +0.000 NA
BRANCH   6   8
ATOM      8  C   UNL     1       0.206   9.771  21.348  0.00  0.00    +0.000 A 
ATOM      9  C   UNL     1      -0.233   9.504  22.635  0.00  0.00    +0.000 A 
ATOM     10  C   UNL     1      -1.057  10.538  23.167  0.00  0.00    +0.000 A 
ATOM     11  C   UNL     1      -1.229  11.566  22.270  0.00  0.00    +0.000 A 
ATOM     12  S   UNL     1      -0.393  11.284  20.808  0.00  0.00    +0.000 S 
ENDBRANCH   6   8
ENDBRANCH   1   7
BRANCH   2  13
ATOM     13  C   UNL     1       2.910   4.799  19.459  0.00  0.00    +0.000 C 
BRANCH  13  14
ATOM     14  O   UNL     1       2.769   5.204  18.110  0.00  0.00    +0.000 OA
BRANCH  14  15
ATOM     15  C   UNL     1       3.847   5.066  17.265  0.00  0.00    +0.000 A 
ATOM     16  C   UNL     1       4.448   6.288  16.871  0.00  0.00    +0.000 A 
ATOM     17  C   UNL     1       3.929   7.638  17.294  0.00  0.00    +0.000 C 
ATOM     18  C   UNL     1       5.569   6.281  16.021  0.00  0.00    +0.000 A 
ATOM     19  C   UNL     1       6.125   5.086  15.591  0.00  0.00    +0.000 A 
ATOM     20  C   UNL     1       5.565   3.888  16.004  0.00  0.00    +0.000 A 
ATOM     21  C   UNL     1       4.442   3.850  16.857  0.00  0.00    +0.000 A 
ATOM     22  C   UNL     1       4.017   2.476  17.294  0.00  0.00    +0.000 C 
ENDBRANCH  14  15
ENDBRANCH  13  14
ENDBRANCH   2  13
TORSDOF 5
ENDMDL
MODEL 8
REMARK VINA RESULT:      -6.8      2.111      3.556
REMARK  Name = 
REMARK  8 active torsions:
REMARK  status: ('A' for Active; 'I' for Inactive)
REMARK    1  A    between atoms: C_1  and  C_2
REMARK    2  A    between atoms: C_2  and  C_17
REMARK    3  A    between atoms: N_3  and  N_4
REMARK    4  A    between atoms: C_5  and  C_7
REMARK    5  A    between atoms: C_7  and  O_8
REMARK    6  A    between atoms: O_8  and  C_9
REMARK    7  A    between atoms: C_10  and  C_11
REMARK    8  A    between atoms: C_15  and  C_16
REMARK                            x       y       z     vdW  Elec       q    Type
REMARK                         _______ _______ _______ _____ _____    ______ ____
ROOT
ATOM      1  N   UNL     1       1.262   9.384  19.512  0.00  0.00    +0.000 N 
ATOM      2  C   UNL     1       1.672   8.157  20.005  0.00  0.00    +0.000 C 
ATOM      3  O   UNL     1       1.428   7.741  21.139  0.00  0.00    +0.000 OA
ATOM      4  H   UNL     1       1.574   9.702  18.603  0.00  0.00    +0.000 HD
ENDROOT
BRANCH   1   7
ATOM      5  C   UNL     1      -1.228  10.393  18.513  0.00  0.00    +0.000 C 
ATOM      6  C   UNL     1      -0.620  10.688  19.871  0.00  0.00    +0.000 C 
ATOM      7  N   UNL     1       0.502  10.186  20.305  0.00  0.00    +0.000 NA
BRANCH   6   8
ATOM      8  C   UNL     1      -1.350  11.551  20.804  0.00  0.00    +0.000 A 
ATOM      9  C   UNL     1      -1.216  11.601  22.182  0.00  0.00    +0.000 A 
ATOM     10  C   UNL     1      -2.093  12.544  22.792  0.00  0.00    +0.000 A 
ATOM     11  C   UNL     1      -2.877  13.188  21.863  0.00  0.00    +0.000 A 
ATOM     12  S   UNL     1      -2.545  12.661  20.273  0.00  0.00    +0.000 S 
ENDBRANCH   6   8
ENDBRANCH   1   7
BRANCH   2  13
ATOM     13  C   UNL     1       2.358   7.273  18.966  0.00  0.00    +0.000 C 
BRANCH  13  14
ATOM     14  O   UNL     1       2.944   6.116  19.532  0.00  0.00    +0.000 OA
BRANCH  14  15
ATOM     15  C   UNL     1       2.879   4.934  18.829  0.00  0.00    +0.000 A 
ATOM     16  C   UNL     1       1.912   4.015  19.308  0.00  0.00    +0.000 A 
ATOM     17  C   UNL     1       1.052   4.276  20.518  0.00  0.00    +0.000 C 
ATOM     18  C   UNL     1       1.736   2.776  18.664  0.00  0.00    +0.000 A 
ATOM     19  C   UNL     1       2.472   2.453  17.535  0.00  0.00    +0.000 A 
ATOM     20  C   UNL     1       3.392   3.363  17.040  0.00  0.00    +0.000 A 
ATOM     21  C   UNL     1       3.598   4.617  17.653  0.00  0.00    +0.000 A 
ATOM     22  C   UNL     1       4.555   5.529  16.938  0.00  0.00    +0.000 C 
ENDBRANCH  14  15
ENDBRANCH  13  14
ENDBRANCH   2  13
TORSDOF 5
ENDMDL
MODEL 9
REMARK VINA RESULT:      -6.8      2.793      8.435
REMARK  Name = 
REMARK  8 active torsions:
REMARK  status: ('A' for Active; 'I' for Inactive)
REMARK    1  A    between atoms: C_1  and  C_2
REMARK    2  A    between atoms: C_2  and  C_17
REMARK    3  A    between atoms: N_3  and  N_4
REMARK    4  A    between atoms: C_5  and  C_7
REMARK    5  A    between atoms: C_7  and  O_8
REMARK    6  A    between atoms: O_8  and  C_9
REMARK    7  A    between atoms: C_10  and  C_11
REMARK    8  A    between atoms: C_15  and  C_16
REMARK                            x       y       z     vdW  Elec       q    Type
REMARK                         _______ _______ _______ _____ _____    ______ ____
ROOT
ATOM      1  N   UNL     1       2.323   7.854  18.842  0.00  0.00    +0.000 N 
ATOM      2  C   UNL     1       1.776   9.023  18.339  0.00  0.00    +0.000 C 
ATOM      3  O   UNL     1       2.147   9.582  17.305  0.00  0.00    +0.000 OA
ATOM      4  H   UNL     1       2.033   7.499  19.743  0.00  0.00    +0.000 HD
ENDROOT
BRANCH   1   7
ATOM      5  C   UNL     1       2.162   5.034  18.359  0.00  0.00    +0.000 C 
ATOM      6  C   UNL     1       3.286   5.955  17.928  0.00  0.00    +0.000 C 
ATOM      7  N   UNL     1       3.312   7.241  18.138  0.00  0.00    +0.000 NA
BRANCH   6   8
ATOM      8  C   UNL     1       4.412   5.397  17.172  0.00  0.00    +0.000 A 
ATOM      9  C   UNL     1       4.458   4.180  16.510  0.00  0.00    +0.000 A 
ATOM     10  C   UNL     1       5.715   3.934  15.887  0.00  0.00    +0.000 A 
ATOM     11  C   UNL     1       6.599   4.968  16.092  0.00  0.00    +0.000 A 
ATOM     12  S   UNL     1       5.906   6.224  17.019  0.00  0.00    +0.000 S 
ENDBRANCH   6   8
ENDBRANCH   1   7
BRANCH   2  13
ATOM     13  C   UNL     1       0.558   9.516  19.115  0.00  0.00    +0.000 C 
BRANCH  13  14
ATOM     14  O   UNL     1       0.888  10.470  20.107  0.00  0.00    +0.000 OA
BRANCH  14  15
ATOM     15  C   UNL     1      -0.114  10.948  20.921  0.00  0.00    +0.000 A 
ATOM     16  C   UNL     1      -0.163  10.354  22.207  0.00  0.00    +0.000 A 
ATOM     17  C   UNL     1       0.768   9.252  22.645  0.00  0.00    +0.000 C 
ATOM     18  C   UNL     1      -1.132  10.768  23.139  0.00  0.00    +0.000 A 
ATOM     19  C   UNL     1      -2.023  11.784  22.832  0.00  0.00    +0.000 A 
ATOM     20  C   UNL     1      -1.955  12.395  21.590  0.00  0.00    +0.000 A 
ATOM     21  C   UNL     1      -0.998  12.012  20.627  0.00  0.00    +0.000 A 
ATOM     22  C   UNL     1      -0.988  12.838  19.371  0.00  0.00    +0.000 C 
ENDBRANCH  14  15
ENDBRANCH  13  14
ENDBRANCH   2  13
TORSDOF 5
ENDMDL
