MODEL 1
REMARK VINA RESULT:      -7.2      0.000      0.000
REMARK  Name = 
REMARK  10 active torsions:
REMARK  status: ('A' for Active; 'I' for Inactive)
REMARK    1  A    between atoms: C_1  and  C_2
REMARK    2  A    between atoms: C_2  and  O_3
REMARK    3  A    between atoms: O_3  and  C_4
REMARK    4  A    between atoms: C_4  and  C_6
REMARK    5  A    between atoms: N_13  and  C_14
REMARK    6  A    between atoms: C_14  and  C_15
REMARK    7  A    between atoms: C_16  and  N_17
REMARK    8  A    between atoms: N_17  and  N_18
REMARK    9  A    between atoms: C_19  and  C_20
REMARK   10  A    between atoms: C_19  and  C_21
REMARK                            x       y       z     vdW  Elec       q    Type
REMARK                         _______ _______ _______ _____ _____    ______ ____
ROOT
ATOM      1  C   UNL     1       4.693   5.641  17.017  0.00  0.00    +0.000 A 
ATOM      2  C   UNL     1       3.767   6.174  17.924  0.00  0.00    +0.000 A 
ATOM      3  N   UNL     1       2.907   5.466  18.702  0.00  0.00    +0.000 NA
ATOM      4  C   UNL     1       3.009   4.134  18.515  0.00  0.00    +0.000 A 
ATOM      5  C   UNL     1       3.913   3.490  17.671  0.00  0.00    +0.000 A 
ATOM      6  C   UNL     1       3.610   2.117  17.832  0.00  0.00    +0.000 A 
ATOM      7  N   UNL     1       2.614   1.893  18.687  0.00  0.00    +0.000 NA
ATOM      8  N   UNL     1       2.253   3.138  19.082  0.00  0.00    +0.000 N 
ATOM      9  C   UNL     1       4.811   4.238  16.892  0.00  0.00    +0.000 A 
ENDROOT
BRANCH   1  10
ATOM     10  C   UNL     1       5.441   6.614  16.190  0.00  0.00    +0.000 C 
ATOM     11  O   UNL     1       4.939   7.274  15.300  0.00  0.00    +0.000 OA
BRANCH  10  12
ATOM     12  O   UNL     1       6.771   6.532  16.477  0.00  0.00    +0.000 OA
BRANCH  12  14
ATOM     13  C   UNL     1       7.891   6.549  18.636  0.00  0.00    +0.000 C 
ATOM     14  C   UNL     1       7.205   7.361  17.561  0.00  0.00    +0.000 C 
ENDBRANCH  12  14
ENDBRANCH  10  12
ENDBRANCH   1  10
BRANCH   8  15
ATOM     15  C   UNL     1       1.191   3.258  20.058  0.00  0.00    +0.000 C 
ATOM     16  C   UNL     1       1.516   2.748  21.455  0.00  0.00    +0.000 C 
ENDBRANCH   8  15
BRANCH   9  17
ATOM     17  N   UNL     1       5.783   3.613  16.085  0.00  0.00    +0.000 N 
ATOM     18  H   UNL     1       6.700   3.485  16.494  0.00  0.00    +0.000 HD
BRANCH  17  19
ATOM     19  N   UNL     1       5.472   3.330  14.809  0.00  0.00    +0.000 NA
ATOM     20  C   UNL     1       6.196   3.816  13.838  0.00  0.00    +0.000 C 
ATOM     21  C   UNL     1       7.350   4.776  13.967  0.00  0.00    +0.000 C 
ATOM     22  C   UNL     1       5.845   3.362  12.443  0.00  0.00    +0.000 C 
ENDBRANCH  17  19
ENDBRANCH   9  17
TORSDOF 6
ENDMDL
MODEL 2
REMARK VINA RESULT:      -6.9      1.392      1.848
REMARK  Name = 
REMARK  10 active torsions:
REMARK  status: ('A' for Active; 'I' for Inactive)
REMARK    1  A    between atoms: C_1  and  C_2
REMARK    2  A    between atoms: C_2  and  O_3
REMARK    3  A    between atoms: O_3  and  C_4
REMARK    4  A    between atoms: C_4  and  C_6
REMARK    5  A    between atoms: N_13  and  C_14
REMARK    6  A    between atoms: C_14  and  C_15
REMARK    7  A    between atoms: C_16  and  N_17
REMARK    8  A    between atoms: N_17  and  N_18
REMARK    9  A    between atoms: C_19  and  C_20
REMARK   10  A    between atoms: C_19  and  C_21
REMARK                            x       y       z     vdW  Elec       q    Type
REMARK                         _______ _______ _______ _____ _____    ______ ____
ROOT
ATOM      1  C   UNL     1       6.124   4.951  18.459  0.00  0.00    +0.000 A 
ATOM      2  C   UNL     1       5.322   5.290  19.557  0.00  0.00    +0.000 A 
ATOM      3  N   UNL     1       4.015   4.960  19.730  0.00  0.00    +0.000 NA
ATOM      4  C   UNL     1       3.515   4.251  18.696  0.00  0.00    +0.000 A 
ATOM      5  C   UNL     1       4.223   3.826  17.573  0.00  0.00    +0.000 A 
ATOM      6  C   UNL     1       3.256   3.138  16.801  0.00  0.00    +0.000 A 
ATOM      7  N   UNL     1       2.049   3.120  17.363  0.00  0.00    +0.000 NA
ATOM      8  N   UNL     1       2.226   3.815  18.512  0.00  0.00    +0.000 N 
ATOM      9  C   UNL     1       5.580   4.157  17.424  0.00  0.00    +0.000 A 
ENDROOT
BRANCH   1  10
ATOM     10  C   UNL     1       7.487   5.525  18.436  0.00  0.00    +0.000 C 
ATOM     11  O   UNL     1       8.263   5.466  19.371  0.00  0.00    +0.000 OA
BRANCH  10  12
ATOM     12  O   UNL     1       7.662   6.244  17.291  0.00  0.00    +0.000 OA
BRANCH  12  14
ATOM     13  C   UNL     1       8.090   8.576  17.836  0.00  0.00    +0.000 C 
ATOM     14  C   UNL     1       7.098   7.560  17.315  0.00  0.00    +0.000 C 
ENDBRANCH  12  14
ENDBRANCH  10  12
ENDBRANCH   1  10
BRANCH   8  15
ATOM     15  C   UNL     1       1.090   3.962  19.397  0.00  0.00    +0.000 C 
ATOM     16  C   UNL     1       1.129   3.125  20.668  0.00  0.00    +0.000 C 
ENDBRANCH   8  15
BRANCH   9  17
ATOM     17  N   UNL     1       6.339   3.681  16.335  0.00  0.00    +0.000 N 
ATOM     18  H   UNL     1       7.337   3.592  16.480  0.00  0.00    +0.000 HD
BRANCH  17  19
ATOM     19  N   UNL     1       5.719   3.485  15.159  0.00  0.00    +0.000 NA
ATOM     20  C   UNL     1       6.187   4.039  14.075  0.00  0.00    +0.000 C 
ATOM     21  C   UNL     1       7.348   4.994  13.979  0.00  0.00    +0.000 C 
ATOM     22  C   UNL     1       5.497   3.679  12.782  0.00  0.00    +0.000 C 
ENDBRANCH  17  19
ENDBRANCH   9  17
TORSDOF 6
ENDMDL
MODEL 3
REMARK VINA RESULT:      -6.7      2.772      6.385
REMARK  Name = 
REMARK  10 active torsions:
REMARK  status: ('A' for Active; 'I' for Inactive)
REMARK    1  A    between atoms: C_1  and  C_2
REMARK    2  A    between atoms: C_2  and  O_3
REMARK    3  A    between atoms: O_3  and  C_4
REMARK    4  A    between atoms: C_4  and  C_6
REMARK    5  A    between atoms: N_13  and  C_14
REMARK    6  A    between atoms: C_14  and  C_15
REMARK    7  A    between atoms: C_16  and  N_17
REMARK    8  A    between atoms: N_17  and  N_18
REMARK    9  A    between atoms: C_19  and  C_20
REMARK   10  A    between atoms: C_19  and  C_21
REMARK                            x       y       z     vdW  Elec       q    Type
REMARK                         _______ _______ _______ _____ _____    ______ ____
ROOT
ATOM      1  C   UNL     1       2.959   4.323  18.110  0.00  0.00    +0.000 A 
ATOM      2  C   UNL     1       3.640   3.350  17.366  0.00  0.00    +0.000 A 
ATOM      3  N   UNL     1       4.760   3.547  16.622  0.00  0.00    +0.000 NA
ATOM      4  C   UNL     1       5.183   4.829  16.644  0.00  0.00    +0.000 A 
ATOM      5  C   UNL     1       4.610   5.870  17.373  0.00  0.00    +0.000 A 
ATOM      6  C   UNL     1       5.412   6.991  17.052  0.00  0.00    +0.000 A 
ATOM      7  N   UNL     1       6.399   6.708  16.204  0.00  0.00    +0.000 NA
ATOM      8  N   UNL     1       6.234   5.387  15.958  0.00  0.00    +0.000 N 
ATOM      9  C   UNL     1       3.466   5.641  18.155  0.00  0.00    +0.000 A 
ENDROOT
BRANCH   1  10
ATOM     10  C   UNL     1       1.691   3.899  18.744  0.00  0.00    +0.000 C 
ATOM     11  O   UNL     1       0.804   3.309  18.157  0.00  0.00    +0.000 OA
BRANCH  10  12
ATOM     12  O   UNL     1       1.620   4.404  20.009  0.00  0.00    +0.000 OA
BRANCH  12  14
ATOM     13  C   UNL     1       2.468   2.689  21.512  0.00  0.00    +0.000 C 
ATOM     14  C   UNL     1       1.260   3.453  21.017  0.00  0.00    +0.000 C 
ENDBRANCH  12  14
ENDBRANCH  10  12
ENDBRANCH   1  10
BRANCH   8  15
ATOM     15  C   UNL     1       7.181   4.737  15.077  0.00  0.00    +0.000 C 
ATOM     16  C   UNL     1       6.654   4.366  13.698  0.00  0.00    +0.000 C 
ENDBRANCH   8  15
BRANCH   9  17
ATOM     17  N   UNL     1       2.908   6.657  18.957  0.00  0.00    +0.000 N 
ATOM     18  H   UNL     1       2.878   6.485  19.954  0.00  0.00    +0.000 HD
BRANCH  17  19
ATOM     19  N   UNL     1       2.359   7.724  18.352  0.00  0.00    +0.000 NA
ATOM     20  C   UNL     1       1.681   8.592  19.050  0.00  0.00    +0.000 C 
ATOM     21  C   UNL     1       1.340   8.504  20.514  0.00  0.00    +0.000 C 
ATOM     22  C   UNL     1       1.192   9.815  18.313  0.00  0.00    +0.000 C 
ENDBRANCH  17  19
ENDBRANCH   9  17
TORSDOF 6
ENDMDL
MODEL 4
REMARK VINA RESULT:      -6.6      1.467      2.056
REMARK  Name = 
REMARK  10 active torsions:
REMARK  status: ('A' for Active; 'I' for Inactive)
REMARK    1  A    between atoms: C_1  and  C_2
REMARK    2  A    between atoms: C_2  and  O_3
REMARK    3  A    between atoms: O_3  and  C_4
REMARK    4  A    between atoms: C_4  and  C_6
REMARK    5  A    between atoms: N_13  and  C_14
REMARK    6  A    between atoms: C_14  and  C_15
REMARK    7  A    between atoms: C_16  and  N_17
REMARK    8  A    between atoms: N_17  and  N_18
REMARK    9  A    between atoms: C_19  and  C_20
REMARK   10  A    between atoms: C_19  and  C_21
REMARK                            x       y       z     vdW  Elec       q    Type
REMARK                         _______ _______ _______ _____ _____    ______ ____
ROOT
ATOM      1  C   UNL     1       5.765   4.426  18.202  0.00  0.00    +0.000 A 
ATOM      2  C   UNL     1       5.523   3.683  19.365  0.00  0.00    +0.000 A 
ATOM      3  N   UNL     1       4.337   3.131  19.733  0.00  0.00    +0.000 NA
ATOM      4  C   UNL     1       3.349   3.379  18.847  0.00  0.00    +0.000 A 
ATOM      5  C   UNL     1       3.479   4.071  17.644  0.00  0.00    +0.000 A 
ATOM      6  C   UNL     1       2.171   4.058  17.101  0.00  0.00    +0.000 A 
ATOM      7  N   UNL     1       1.287   3.428  17.871  0.00  0.00    +0.000 NA
ATOM      8  N   UNL     1       2.023   3.031  18.937  0.00  0.00    +0.000 N 
ATOM      9  C   UNL     1       4.719   4.613  17.270  0.00  0.00    +0.000 A 
ENDROOT
BRANCH   1  10
ATOM     10  C   UNL     1       7.110   5.030  18.073  0.00  0.00    +0.000 C 
ATOM     11  O   UNL     1       8.143   4.445  18.337  0.00  0.00    +0.000 OA
BRANCH  10  12
ATOM     12  O   UNL     1       6.990   6.354  17.774  0.00  0.00    +0.000 OA
BRANCH  12  14
ATOM     13  C   UNL     1       7.959   8.586  17.744  0.00  0.00    +0.000 C 
ATOM     14  C   UNL     1       8.016   7.190  18.323  0.00  0.00    +0.000 C 
ENDBRANCH  12  14
ENDBRANCH  10  12
ENDBRANCH   1  10
BRANCH   8  15
ATOM     15  C   UNL     1       1.359   2.273  19.975  0.00  0.00    +0.000 C 
ATOM     16  C   UNL     1       1.339   2.917  21.355  0.00  0.00    +0.000 C 
ENDBRANCH   8  15
BRANCH   9  17
ATOM     17  N   UNL     1       4.897   5.256  16.027  0.00  0.00    +0.000 N 
ATOM     18  H   UNL     1       4.903   6.269  16.036  0.00  0.00    +0.000 HD
BRANCH  17  19
ATOM     19  N   UNL     1       4.934   4.504  14.915  0.00  0.00    +0.000 NA
ATOM     20  C   UNL     1       6.040   4.406  14.231  0.00  0.00    +0.000 C 
ATOM     21  C   UNL     1       7.331   5.136  14.494  0.00  0.00    +0.000 C 
ATOM     22  C   UNL     1       6.027   3.456  13.059  0.00  0.00    +0.000 C 
ENDBRANCH  17  19
ENDBRANCH   9  17
TORSDOF 6
ENDMDL
MODEL 5
REMARK VINA RESULT:      -6.5      2.677      5.917
REMARK  Name = 
REMARK  10 active torsions:
REMARK  status: ('A' for Active; 'I' for Inactive)
REMARK    1  A    between atoms: C_1  and  C_2
REMARK    2  A    between atoms: C_2  and  O_3
REMARK    3  A    between atoms: O_3  and  C_4
REMARK    4  A    between atoms: C_4  and  C_6
REMARK    5  A    between atoms: N_13  and  C_14
REMARK    6  A    between atoms: C_14  and  C_15
REMARK    7  A    between atoms: C_16  and  N_17
REMARK    8  A    between atoms: N_17  and  N_18
REMARK    9  A    between atoms: C_19  and  C_20
REMARK   10  A    between atoms: C_19  and  C_21
REMARK                            x       y       z     vdW  Elec       q    Type
REMARK                         _______ _______ _______ _____ _____    ______ ____
ROOT
ATOM      1  C   UNL     1       2.880   7.059  18.144  0.00  0.00    +0.000 A 
ATOM      2  C   UNL     1       3.984   7.551  17.434  0.00  0.00    +0.000 A 
ATOM      3  N   UNL     1       4.907   6.809  16.768  0.00  0.00    +0.000 NA
ATOM      4  C   UNL     1       4.674   5.482  16.859  0.00  0.00    +0.000 A 
ATOM      5  C   UNL     1       3.594   4.880  17.504  0.00  0.00    +0.000 A 
ATOM      6  C   UNL     1       3.815   3.495  17.316  0.00  0.00    +0.000 A 
ATOM      7  N   UNL     1       4.922   3.226  16.625  0.00  0.00    +0.000 NA
ATOM      8  N   UNL     1       5.437   4.452  16.367  0.00  0.00    +0.000 N 
ATOM      9  C   UNL     1       2.637   5.667  18.166  0.00  0.00    +0.000 A 
ENDROOT
BRANCH   1  10
ATOM     10  C   UNL     1       2.079   8.054  18.891  0.00  0.00    +0.000 C 
ATOM     11  O   UNL     1       1.827   7.966  20.078  0.00  0.00    +0.000 OA
BRANCH  10  12
ATOM     12  O   UNL     1       1.557   8.966  18.024  0.00  0.00    +0.000 OA
BRANCH  12  14
ATOM     13  C   UNL     1      -0.559  10.155  18.193  0.00  0.00    +0.000 C 
ATOM     14  C   UNL     1       0.882  10.067  18.643  0.00  0.00    +0.000 C 
ENDBRANCH  12  14
ENDBRANCH  10  12
ENDBRANCH   1  10
BRANCH   8  15
ATOM     15  C   UNL     1       6.654   4.526  15.588  0.00  0.00    +0.000 C 
ATOM     16  C   UNL     1       6.519   4.169  14.114  0.00  0.00    +0.000 C 
ENDBRANCH   8  15
BRANCH   9  17
ATOM     17  N   UNL     1       1.498   5.090  18.765  0.00  0.00    +0.000 N 
ATOM     18  H   UNL     1       0.621   5.198  18.271  0.00  0.00    +0.000 HD
BRANCH  17  19
ATOM     19  N   UNL     1       1.624   4.540  19.985  0.00  0.00    +0.000 NA
ATOM     20  C   UNL     1       1.338   3.280  20.164  0.00  0.00    +0.000 C 
ATOM     21  C   UNL     1       0.773   2.329  19.141  0.00  0.00    +0.000 C 
ATOM     22  C   UNL     1       1.610   2.715  21.536  0.00  0.00    +0.000 C 
ENDBRANCH  17  19
ENDBRANCH   9  17
TORSDOF 6
ENDMDL
MODEL 6
REMARK VINA RESULT:      -6.5      1.712      2.141
REMARK  Name = 
REMARK  10 active torsions:
REMARK  status: ('A' for Active; 'I' for Inactive)
REMARK    1  A    between atoms: C_1  and  C_2
REMARK    2  A    between atoms: C_2  and  O_3
REMARK    3  A    between atoms: O_3  and  C_4
REMARK    4  A    between atoms: C_4  and  C_6
REMARK    5  A    between atoms: N_13  and  C_14
REMARK    6  A    between atoms: C_14  and  C_15
REMARK    7  A    between atoms: C_16  and  N_17
REMARK    8  A    between atoms: N_17  and  N_18
REMARK    9  A    between atoms: C_19  and  C_20
REMARK   10  A    between atoms: C_19  and  C_21
REMARK                            x       y       z     vdW  Elec       q    Type
REMARK                         _______ _______ _______ _____ _____    ______ ____
ROOT
ATOM      1  C   UNL     1       6.159   4.582  18.161  0.00  0.00    +0.000 A 
ATOM      2  C   UNL     1       5.548   4.931  19.373  0.00  0.00    +0.000 A 
ATOM      3  N   UNL     1       4.229   4.802  19.674  0.00  0.00    +0.000 NA
ATOM      4  C   UNL     1       3.508   4.293  18.653  0.00  0.00    +0.000 A 
ATOM      5  C   UNL     1       4.010   3.877  17.421  0.00  0.00    +0.000 A 
ATOM      6  C   UNL     1       2.863   3.438  16.717  0.00  0.00    +0.000 A 
ATOM      7  N   UNL     1       1.737   3.558  17.417  0.00  0.00    +0.000 NA
ATOM      8  N   UNL     1       2.151   4.094  18.590  0.00  0.00    +0.000 N 
ATOM      9  C   UNL     1       5.381   3.997  17.137  0.00  0.00    +0.000 A 
ENDROOT
BRANCH   1  10
ATOM     10  C   UNL     1       7.592   4.927  18.021  0.00  0.00    +0.000 C 
ATOM     11  O   UNL     1       8.458   4.120  17.744  0.00  0.00    +0.000 OA
BRANCH  10  12
ATOM     12  O   UNL     1       7.790   6.222  18.398  0.00  0.00    +0.000 OA
BRANCH  12  14
ATOM     13  C   UNL     1       8.014   8.564  17.782  0.00  0.00    +0.000 C 
ATOM     14  C   UNL     1       7.518   7.193  17.381  0.00  0.00    +0.000 C 
ENDBRANCH  12  14
ENDBRANCH  10  12
ENDBRANCH   1  10
BRANCH   8  15
ATOM     15  C   UNL     1       1.158   4.331  19.616  0.00  0.00    +0.000 C 
ATOM     16  C   UNL     1       1.690   4.842  20.947  0.00  0.00    +0.000 C 
ENDBRANCH   8  15
BRANCH   9  17
ATOM     17  N   UNL     1       5.926   3.519  15.928  0.00  0.00    +0.000 N 
ATOM     18  H   UNL     1       5.713   2.561  15.680  0.00  0.00    +0.000 HD
BRANCH  17  19
ATOM     19  N   UNL     1       6.770   4.313  15.247  0.00  0.00    +0.000 NA
ATOM     20  C   UNL     1       6.707   4.367  13.945  0.00  0.00    +0.000 C 
ATOM     21  C   UNL     1       5.818   3.544  13.051  0.00  0.00    +0.000 C 
ATOM     22  C   UNL     1       7.615   5.363  13.267  0.00  0.00    +0.000 C 
ENDBRANCH  17  19
ENDBRANCH   9  17
TORSDOF 6
ENDMDL
MODEL 7
REMARK VINA RESULT:      -6.5      2.675      5.867
REMARK  Name = 
REMARK  10 active torsions:
REMARK  status: ('A' for Active; 'I' for Inactive)
REMARK    1  A    between atoms: C_1  and  C_2
REMARK    2  A    between atoms: C_2  and  O_3
REMARK    3  A    between atoms: O_3  and  C_4
REMARK    4  A    between atoms: C_4  and  C_6
REMARK    5  A    between atoms: N_13  and  C_14
REMARK    6  A    between atoms: C_14  and  C_15
REMARK    7  A    between atoms: C_16  and  N_17
REMARK    8  A    between atoms: N_17  and  N_18
REMARK    9  A    between atoms: C_19  and  C_20
REMARK   10  A    between atoms: C_19  and  C_21
REMARK                            x       y       z     vdW  Elec       q    Type
REMARK                         _______ _______ _______ _____ _____    ______ ____
ROOT
ATOM      1  C   UNL     1       2.791   7.076  18.195  0.00  0.00    +0.000 A 
ATOM      2  C   UNL     1       3.894   7.572  17.487  0.00  0.00    +0.000 A 
ATOM      3  N   UNL     1       4.838   6.831  16.849  0.00  0.00    +0.000 NA
ATOM      4  C   UNL     1       4.627   5.504  16.968  0.00  0.00    +0.000 A 
ATOM      5  C   UNL     1       3.551   4.897  17.613  0.00  0.00    +0.000 A 
ATOM      6  C   UNL     1       3.799   3.512  17.460  0.00  0.00    +0.000 A 
ATOM      7  N   UNL     1       4.918   3.248  16.788  0.00  0.00    +0.000 NA
ATOM      8  N   UNL     1       5.415   4.476  16.508  0.00  0.00    +0.000 N 
ATOM      9  C   UNL     1       2.572   5.681  18.246  0.00  0.00    +0.000 A 
ENDROOT
BRANCH   1  10
ATOM     10  C   UNL     1       1.963   8.073  18.910  0.00  0.00    +0.000 C 
ATOM     11  O   UNL     1       1.572   9.111  18.411  0.00  0.00    +0.000 OA
BRANCH  10  12
ATOM     12  O   UNL     1       1.852   7.720  20.222  0.00  0.00    +0.000 OA
BRANCH  12  14
ATOM     13  C   UNL     1      -0.080   8.457  21.503  0.00  0.00    +0.000 C 
ATOM     14  C   UNL     1       1.342   8.747  21.080  0.00  0.00    +0.000 C 
ENDBRANCH  12  14
ENDBRANCH  10  12
ENDBRANCH   1  10
BRANCH   8  15
ATOM     15  C   UNL     1       6.640   4.554  15.742  0.00  0.00    +0.000 C 
ATOM     16  C   UNL     1       6.491   4.381  14.237  0.00  0.00    +0.000 C 
ENDBRANCH   8  15
BRANCH   9  17
ATOM     17  N   UNL     1       1.436   5.098  18.845  0.00  0.00    +0.000 N 
ATOM     18  H   UNL     1       0.553   5.229  18.367  0.00  0.00    +0.000 HD
BRANCH  17  19
ATOM     19  N   UNL     1       1.574   4.510  20.045  0.00  0.00    +0.000 NA
ATOM     20  C   UNL     1       1.281   3.247  20.190  0.00  0.00    +0.000 C 
ATOM     21  C   UNL     1       0.693   2.332  19.147  0.00  0.00    +0.000 C 
ATOM     22  C   UNL     1       1.567   2.639  21.540  0.00  0.00    +0.000 C 
ENDBRANCH  17  19
ENDBRANCH   9  17
TORSDOF 6
ENDMDL
MODEL 8
REMARK VINA RESULT:      -6.5      2.262      4.350
REMARK  Name = 
REMARK  10 active torsions:
REMARK  status: ('A' for Active; 'I' for Inactive)
REMARK    1  A    between atoms: C_1  and  C_2
REMARK    2  A    between atoms: C_2  and  O_3
REMARK    3  A    between atoms: O_3  and  C_4
REMARK    4  A    between atoms: C_4  and  C_6
REMARK    5  A    between atoms: N_13  and  C_14
REMARK    6  A    between atoms: C_14  and  C_15
REMARK    7  A    between atoms: C_16  and  N_17
REMARK    8  A    between atoms: N_17  and  N_18
REMARK    9  A    between atoms: C_19  and  C_20
REMARK   10  A    between atoms: C_19  and  C_21
REMARK                            x       y       z     vdW  Elec       q    Type
REMARK                         _______ _______ _______ _____ _____    ______ ____
ROOT
ATOM      1  C   UNL     1       4.598   5.939  17.238  0.00  0.00    +0.000 A 
ATOM      2  C   UNL     1       4.883   4.598  17.530  0.00  0.00    +0.000 A 
ATOM      3  N   UNL     1       4.323   3.855  18.520  0.00  0.00    +0.000 NA
ATOM      4  C   UNL     1       3.428   4.551  19.252  0.00  0.00    +0.000 A 
ATOM      5  C   UNL     1       3.038   5.871  19.034  0.00  0.00    +0.000 A 
ATOM      6  C   UNL     1       2.098   6.123  20.063  0.00  0.00    +0.000 A 
ATOM      7  N   UNL     1       1.901   5.077  20.864  0.00  0.00    +0.000 NA
ATOM      8  N   UNL     1       2.731   4.133  20.359  0.00  0.00    +0.000 N 
ATOM      9  C   UNL     1       3.612   6.616  17.990  0.00  0.00    +0.000 A 
ENDROOT
BRANCH   1  10
ATOM     10  C   UNL     1       5.424   6.575  16.188  0.00  0.00    +0.000 C 
ATOM     11  O   UNL     1       4.968   7.060  15.170  0.00  0.00    +0.000 OA
BRANCH  10  12
ATOM     12  O   UNL     1       6.745   6.391  16.469  0.00  0.00    +0.000 OA
BRANCH  12  14
ATOM     13  C   UNL     1       7.887   6.581  18.609  0.00  0.00    +0.000 C 
ATOM     14  C   UNL     1       7.291   7.308  17.424  0.00  0.00    +0.000 C 
ENDBRANCH  12  14
ENDBRANCH  10  12
ENDBRANCH   1  10
BRANCH   8  15
ATOM     15  C   UNL     1       2.742   2.832  20.992  0.00  0.00    +0.000 C 
ATOM     16  C   UNL     1       1.533   2.508  21.859  0.00  0.00    +0.000 C 
ENDBRANCH   8  15
BRANCH   9  17
ATOM     17  N   UNL     1       3.186   7.929  17.703  0.00  0.00    +0.000 N 
ATOM     18  H   UNL     1       3.910   8.608  17.502  0.00  0.00    +0.000 HD
BRANCH  17  19
ATOM     19  N   UNL     1       1.880   8.220  17.819  0.00  0.00    +0.000 NA
ATOM     20  C   UNL     1       1.497   9.460  17.950  0.00  0.00    +0.000 C 
ATOM     21  C   UNL     1       2.386  10.669  18.080  0.00  0.00    +0.000 C 
ATOM     22  C   UNL     1       0.009   9.709  17.964  0.00  0.00    +0.000 C 
ENDBRANCH  17  19
ENDBRANCH   9  17
TORSDOF 6
ENDMDL
MODEL 9
REMARK VINA RESULT:      -6.4      2.127      4.372
REMARK  Name = 
REMARK  10 active torsions:
REMARK  status: ('A' for Active; 'I' for Inactive)
REMARK    1  A    between atoms: C_1  and  C_2
REMARK    2  A    between atoms: C_2  and  O_3
REMARK    3  A    between atoms: O_3  and  C_4
REMARK    4  A    between atoms: C_4  and  C_6
REMARK    5  A    between atoms: N_13  and  C_14
REMARK    6  A    between atoms: C_14  and  C_15
REMARK    7  A    between atoms: C_16  and  N_17
REMARK    8  A    between atoms: N_17  and  N_18
REMARK    9  A    between atoms: C_19  and  C_20
REMARK   10  A    between atoms: C_19  and  C_21
REMARK                            x       y       z     vdW  Elec       q    Type
REMARK                         _______ _______ _______ _____ _____    ______ ____
ROOT
ATOM      1  C   UNL     1       5.871   4.463  15.588  0.00  0.00    +0.000 A 
ATOM      2  C   UNL     1       4.625   3.825  15.648  0.00  0.00    +0.000 A 
ATOM      3  N   UNL     1       3.859   3.662  16.758  0.00  0.00    +0.000 NA
ATOM      4  C   UNL     1       4.430   4.178  17.867  0.00  0.00    +0.000 A 
ATOM      5  C   UNL     1       5.643   4.863  17.923  0.00  0.00    +0.000 A 
ATOM      6  C   UNL     1       5.788   5.185  19.294  0.00  0.00    +0.000 A 
ATOM      7  N   UNL     1       4.779   4.753  20.047  0.00  0.00    +0.000 NA
ATOM      8  N   UNL     1       3.967   4.131  19.159  0.00  0.00    +0.000 N 
ATOM      9  C   UNL     1       6.409   5.043  16.760  0.00  0.00    +0.000 A 
ENDROOT
BRANCH   1  10
ATOM     10  C   UNL     1       6.576   4.414  14.288  0.00  0.00    +0.000 C 
ATOM     11  O   UNL     1       7.308   5.296  13.881  0.00  0.00    +0.000 OA
BRANCH  10  12
ATOM     12  O   UNL     1       6.156   3.327  13.580  0.00  0.00    +0.000 OA
BRANCH  12  14
ATOM     13  C   UNL     1       4.697   3.255  11.634  0.00  0.00    +0.000 C 
ATOM     14  C   UNL     1       6.088   3.522  12.163  0.00  0.00    +0.000 C 
ENDBRANCH  12  14
ENDBRANCH  10  12
ENDBRANCH   1  10
BRANCH   8  15
ATOM     15  C   UNL     1       2.732   3.560  19.653  0.00  0.00    +0.000 C 
ATOM     16  C   UNL     1       1.465   4.335  19.319  0.00  0.00    +0.000 C 
ENDBRANCH   8  15
BRANCH   9  17
ATOM     17  N   UNL     1       7.603   5.792  16.774  0.00  0.00    +0.000 N 
ATOM     18  H   UNL     1       8.465   5.271  16.875  0.00  0.00    +0.000 HD
BRANCH  17  19
ATOM     19  N   UNL     1       7.520   7.133  16.765  0.00  0.00    +0.000 NA
ATOM     20  C   UNL     1       7.944   7.819  17.790  0.00  0.00    +0.000 C 
ATOM     21  C   UNL     1       8.465   7.268  19.091  0.00  0.00    +0.000 C 
ATOM     22  C   UNL     1       7.915   9.321  17.654  0.00  0.00    +0.000 C 
ENDBRANCH  17  19
ENDBRANCH   9  17
TORSDOF 6
ENDMDL
