MODEL 1
REMARK VINA RESULT:      -8.3      0.000      0.000
REMARK  Name = 
REMARK  6 active torsions:
REMARK  status: ('A' for Active; 'I' for Inactive)
REMARK    1  A    between atoms: C_1  and  O_2
REMARK    2  A    between atoms: O_2  and  C_3
REMARK    3  A    between atoms: C_6  and  C_7
REMARK    4  A    between atoms: C_9  and  C_10
REMARK    5  A    between atoms: C_16  and  C_17
REMARK    6  A    between atoms: C_17  and  O_19
REMARK                            x       y       z     vdW  Elec       q    Type
REMARK                         _______ _______ _______ _____ _____    ______ ____
ROOT
ATOM      1  C   UNL     1       2.781   6.742  18.501  0.00  0.00    +0.000 A 
ATOM      2  C   UNL     1       2.422   5.310  18.763  0.00  0.00    +0.000 A 
ATOM      3  C   UNL     1       3.111   4.373  18.084  0.00  0.00    +0.000 A 
ATOM      4  N   UNL     1       4.082   4.775  17.181  0.00  0.00    +0.000 N 
ATOM      5  N   UNL     1       4.901   4.039  16.404  0.00  0.00    +0.000 NA
ATOM      6  C   UNL     1       5.623   4.958  15.752  0.00  0.00    +0.000 A 
ATOM      7  N   UNL     1       5.296   6.260  16.061  0.00  0.00    +0.000 NA
ATOM      8  C   UNL     1       4.340   6.139  16.957  0.00  0.00    +0.000 A 
ATOM      9  N   UNL     1       3.670   7.123  17.626  0.00  0.00    +0.000 NA
ENDROOT
BRANCH   1  13
ATOM     10  C   UNL     1       0.608   9.692  20.756  0.00  0.00    +0.000 A 
ATOM     11  C   UNL     1       0.994   8.494  21.358  0.00  0.00    +0.000 A 
ATOM     12  C   UNL     1       1.721   7.540  20.643  0.00  0.00    +0.000 A 
ATOM     13  C   UNL     1       2.040   7.763  19.298  0.00  0.00    +0.000 A 
ATOM     14  C   UNL     1       1.662   8.968  18.696  0.00  0.00    +0.000 A 
ATOM     15  C   UNL     1       0.941   9.928  19.421  0.00  0.00    +0.000 A 
BRANCH  10  17
ATOM     16  C   UNL     1      -0.364  10.062  22.879  0.00  0.00    +0.000 C 
ATOM     17  O   UNL     1      -0.118  10.527  21.557  0.00  0.00    +0.000 OA
ENDBRANCH  10  17
ENDBRANCH   1  13
BRANCH   3  18
ATOM     18  C   UNL     1       2.849   2.927  18.276  0.00  0.00    +0.000 C 
ATOM     19  F   UNL     1       3.899   2.168  18.653  0.00  0.00    +0.000 F 
ATOM     20  F   UNL     1       1.883   2.743  19.217  0.00  0.00    +0.000 F 
ATOM     21  F   UNL     1       2.362   2.375  17.131  0.00  0.00    +0.000 F 
ENDBRANCH   3  18
BRANCH   6  22
ATOM     22  C   UNL     1       6.690   4.658  14.783  0.00  0.00    +0.000 C 
ATOM     23  O   UNL     1       7.693   5.334  14.595  0.00  0.00    +0.000 OA
BRANCH  22  24
ATOM     24  O   UNL     1       6.442   3.513  14.081  0.00  0.00    +0.000 OA
ATOM     25  H   UNL     1       5.624   3.101  14.440  0.00  0.00    +0.000 HD
ENDBRANCH  22  24
ENDBRANCH   6  22
TORSDOF 5
ENDMDL
MODEL 2
REMARK VINA RESULT:      -8.2      0.281      1.271
REMARK  Name = 
REMARK  6 active torsions:
REMARK  status: ('A' for Active; 'I' for Inactive)
REMARK    1  A    between atoms: C_1  and  O_2
REMARK    2  A    between atoms: O_2  and  C_3
REMARK    3  A    between atoms: C_6  and  C_7
REMARK    4  A    between atoms: C_9  and  C_10
REMARK    5  A    between atoms: C_16  and  C_17
REMARK    6  A    between atoms: C_17  and  O_19
REMARK                            x       y       z     vdW  Elec       q    Type
REMARK                         _______ _______ _______ _____ _____    ______ ____
ROOT
ATOM      1  C   UNL     1       2.819   6.897  18.310  0.00  0.00    +0.000 A 
ATOM      2  C   UNL     1       2.437   5.472  18.573  0.00  0.00    +0.000 A 
ATOM      3  C   UNL     1       3.133   4.523  17.918  0.00  0.00    +0.000 A 
ATOM      4  N   UNL     1       4.131   4.908  17.038  0.00  0.00    +0.000 N 
ATOM      5  N   UNL     1       4.961   4.157  16.286  0.00  0.00    +0.000 NA
ATOM      6  C   UNL     1       5.709   5.063  15.646  0.00  0.00    +0.000 A 
ATOM      7  N   UNL     1       5.389   6.371  15.938  0.00  0.00    +0.000 NA
ATOM      8  C   UNL     1       4.409   6.267  16.810  0.00  0.00    +0.000 A 
ATOM      9  N   UNL     1       3.734   7.262  17.455  0.00  0.00    +0.000 NA
ENDROOT
BRANCH   1  13
ATOM     10  C   UNL     1       0.697   9.874  20.579  0.00  0.00    +0.000 A 
ATOM     11  C   UNL     1       0.992  10.097  19.234  0.00  0.00    +0.000 A 
ATOM     12  C   UNL     1       1.658   9.127  18.481  0.00  0.00    +0.000 A 
ATOM     13  C   UNL     1       2.070   7.932  19.082  0.00  0.00    +0.000 A 
ATOM     14  C   UNL     1       1.766   7.703  20.429  0.00  0.00    +0.000 A 
ATOM     15  C   UNL     1       1.087   8.675  21.178  0.00  0.00    +0.000 A 
BRANCH  10  17
ATOM     16  C   UNL     1      -0.441  10.635  22.507  0.00  0.00    +0.000 C 
ATOM     17  O   UNL     1       0.064  10.910  21.205  0.00  0.00    +0.000 OA
ENDBRANCH  10  17
ENDBRANCH   1  13
BRANCH   3  18
ATOM     18  C   UNL     1       2.850   3.081  18.113  0.00  0.00    +0.000 C 
ATOM     19  F   UNL     1       2.456   2.390  17.023  0.00  0.00    +0.000 F 
ATOM     20  F   UNL     1       3.951   2.444  18.596  0.00  0.00    +0.000 F 
ATOM     21  F   UNL     1       1.879   2.910  19.053  0.00  0.00    +0.000 F 
ENDBRANCH   3  18
BRANCH   6  22
ATOM     22  C   UNL     1       6.797   4.745  14.706  0.00  0.00    +0.000 C 
ATOM     23  O   UNL     1       7.811   5.409  14.538  0.00  0.00    +0.000 OA
BRANCH  22  24
ATOM     24  O   UNL     1       6.555   3.597  14.008  0.00  0.00    +0.000 OA
ATOM     25  H   UNL     1       6.748   2.831  14.596  0.00  0.00    +0.000 HD
ENDBRANCH  22  24
ENDBRANCH   6  22
TORSDOF 5
ENDMDL
MODEL 3
REMARK VINA RESULT:      -8.0      0.642      1.197
REMARK  Name = 
REMARK  6 active torsions:
REMARK  status: ('A' for Active; 'I' for Inactive)
REMARK    1  A    between atoms: C_1  and  O_2
REMARK    2  A    between atoms: O_2  and  C_3
REMARK    3  A    between atoms: C_6  and  C_7
REMARK    4  A    between atoms: C_9  and  C_10
REMARK    5  A    between atoms: C_16  and  C_17
REMARK    6  A    between atoms: C_17  and  O_19
REMARK                            x       y       z     vdW  Elec       q    Type
REMARK                         _______ _______ _______ _____ _____    ______ ____
ROOT
ATOM      1  C   UNL     1       2.836   6.928  18.234  0.00  0.00    +0.000 A 
ATOM      2  C   UNL     1       2.495   5.508  18.572  0.00  0.00    +0.000 A 
ATOM      3  C   UNL     1       3.180   4.545  17.926  0.00  0.00    +0.000 A 
ATOM      4  N   UNL     1       4.131   4.910  16.988  0.00  0.00    +0.000 N 
ATOM      5  N   UNL     1       4.943   4.144  16.232  0.00  0.00    +0.000 NA
ATOM      6  C   UNL     1       5.645   5.035  15.523  0.00  0.00    +0.000 A 
ATOM      7  N   UNL     1       5.311   6.349  15.775  0.00  0.00    +0.000 NA
ATOM      8  C   UNL     1       4.373   6.263  16.693  0.00  0.00    +0.000 A 
ATOM      9  N   UNL     1       3.706   7.273  17.325  0.00  0.00    +0.000 NA
ENDROOT
BRANCH   1  13
ATOM     10  C   UNL     1       0.679   9.968  20.382  0.00  0.00    +0.000 A 
ATOM     11  C   UNL     1       1.071   8.797  21.031  0.00  0.00    +0.000 A 
ATOM     12  C   UNL     1       1.793   7.814  20.350  0.00  0.00    +0.000 A 
ATOM     13  C   UNL     1       2.101   7.981  18.995  0.00  0.00    +0.000 A 
ATOM     14  C   UNL     1       1.717   9.160  18.346  0.00  0.00    +0.000 A 
ATOM     15  C   UNL     1       1.001  10.149  19.036  0.00  0.00    +0.000 A 
BRANCH  10  17
ATOM     16  C   UNL     1       0.379  12.194  21.119  0.00  0.00    +0.000 C 
ATOM     17  O   UNL     1      -0.041  10.835  21.154  0.00  0.00    +0.000 OA
ENDBRANCH  10  17
ENDBRANCH   1  13
BRANCH   3  18
ATOM     18  C   UNL     1       2.934   3.108  18.193  0.00  0.00    +0.000 C 
ATOM     19  F   UNL     1       2.543   2.357  17.142  0.00  0.00    +0.000 F 
ATOM     20  F   UNL     1       4.056   2.520  18.691  0.00  0.00    +0.000 F 
ATOM     21  F   UNL     1       1.979   2.959  19.153  0.00  0.00    +0.000 F 
ENDBRANCH   3  18
BRANCH   6  22
ATOM     22  C   UNL     1       6.696   4.697  14.550  0.00  0.00    +0.000 C 
ATOM     23  O   UNL     1       6.594   3.881  13.644  0.00  0.00    +0.000 OA
BRANCH  22  24
ATOM     24  O   UNL     1       7.844   5.404  14.766  0.00  0.00    +0.000 OA
ATOM     25  H   UNL     1       8.608   4.843  14.500  0.00  0.00    +0.000 HD
ENDBRANCH  22  24
ENDBRANCH   6  22
TORSDOF 5
ENDMDL
MODEL 4
REMARK VINA RESULT:      -8.0      1.216      1.521
REMARK  Name = 
REMARK  6 active torsions:
REMARK  status: ('A' for Active; 'I' for Inactive)
REMARK    1  A    between atoms: C_1  and  O_2
REMARK    2  A    between atoms: O_2  and  C_3
REMARK    3  A    between atoms: C_6  and  C_7
REMARK    4  A    between atoms: C_9  and  C_10
REMARK    5  A    between atoms: C_16  and  C_17
REMARK    6  A    between atoms: C_17  and  O_19
REMARK                            x       y       z     vdW  Elec       q    Type
REMARK                         _______ _______ _______ _____ _____    ______ ____
ROOT
ATOM      1  C   UNL     1       2.564   7.353  18.284  0.00  0.00    +0.000 A 
ATOM      2  C   UNL     1       2.017   5.962  18.393  0.00  0.00    +0.000 A 
ATOM      3  C   UNL     1       2.797   4.962  17.939  0.00  0.00    +0.000 A 
ATOM      4  N   UNL     1       4.031   5.268  17.389  0.00  0.00    +0.000 N 
ATOM      5  N   UNL     1       4.982   4.455  16.886  0.00  0.00    +0.000 NA
ATOM      6  C   UNL     1       5.947   5.300  16.507  0.00  0.00    +0.000 A 
ATOM      7  N   UNL     1       5.657   6.629  16.728  0.00  0.00    +0.000 NA
ATOM      8  C   UNL     1       4.464   6.601  17.283  0.00  0.00    +0.000 A 
ATOM      9  N   UNL     1       3.710   7.646  17.734  0.00  0.00    +0.000 NA
ENDROOT
BRANCH   1  13
ATOM     10  C   UNL     1       0.054  10.487  19.830  0.00  0.00    +0.000 A 
ATOM     11  C   UNL     1       0.548   9.500  20.684  0.00  0.00    +0.000 A 
ATOM     12  C   UNL     1       1.384   8.492  20.197  0.00  0.00    +0.000 A 
ATOM     13  C   UNL     1       1.706   8.442  18.836  0.00  0.00    +0.000 A 
ATOM     14  C   UNL     1       1.219   9.438  17.981  0.00  0.00    +0.000 A 
ATOM     15  C   UNL     1       0.389  10.454  18.475  0.00  0.00    +0.000 A 
BRANCH  10  17
ATOM     16  C   UNL     1      -1.810  11.924  19.611  0.00  0.00    +0.000 C 
ATOM     17  O   UNL     1      -0.770  11.398  20.427  0.00  0.00    +0.000 OA
ENDBRANCH  10  17
ENDBRANCH   1  13
BRANCH   3  18
ATOM     18  C   UNL     1       2.362   3.547  18.011  0.00  0.00    +0.000 C 
ATOM     19  F   UNL     1       2.404   2.843  16.860  0.00  0.00    +0.000 F 
ATOM     20  F   UNL     1       3.123   2.863  18.909  0.00  0.00    +0.000 F 
ATOM     21  F   UNL     1       1.083   3.465  18.470  0.00  0.00    +0.000 F 
ENDBRANCH   3  18
BRANCH   6  22
ATOM     22  C   UNL     1       7.230   4.899  15.908  0.00  0.00    +0.000 C 
ATOM     23  O   UNL     1       7.614   5.191  14.783  0.00  0.00    +0.000 OA
BRANCH  22  24
ATOM     24  O   UNL     1       7.979   4.134  16.756  0.00  0.00    +0.000 OA
ATOM     25  H   UNL     1       8.001   3.214  16.405  0.00  0.00    +0.000 HD
ENDBRANCH  22  24
ENDBRANCH   6  22
TORSDOF 5
ENDMDL
MODEL 5
REMARK VINA RESULT:      -7.9      2.944      3.918
REMARK  Name = 
REMARK  6 active torsions:
REMARK  status: ('A' for Active; 'I' for Inactive)
REMARK    1  A    between atoms: C_1  and  O_2
REMARK    2  A    between atoms: O_2  and  C_3
REMARK    3  A    between atoms: C_6  and  C_7
REMARK    4  A    between atoms: C_9  and  C_10
REMARK    5  A    between atoms: C_16  and  C_17
REMARK    6  A    between atoms: C_17  and  O_19
REMARK                            x       y       z     vdW  Elec       q    Type
REMARK                         _______ _______ _______ _____ _____    ______ ____
ROOT
ATOM      1  C   UNL     1       2.594   7.134  18.902  0.00  0.00    +0.000 A 
ATOM      2  C   UNL     1       3.471   7.191  17.689  0.00  0.00    +0.000 A 
ATOM      3  C   UNL     1       4.202   6.094  17.411  0.00  0.00    +0.000 A 
ATOM      4  N   UNL     1       4.119   5.000  18.256  0.00  0.00    +0.000 N 
ATOM      5  N   UNL     1       4.732   3.801  18.185  0.00  0.00    +0.000 NA
ATOM      6  C   UNL     1       4.272   3.150  19.259  0.00  0.00    +0.000 A 
ATOM      7  N   UNL     1       3.399   3.882  20.035  0.00  0.00    +0.000 NA
ATOM      8  C   UNL     1       3.303   5.031  19.400  0.00  0.00    +0.000 A 
ATOM      9  N   UNL     1       2.542   6.119  19.719  0.00  0.00    +0.000 NA
ENDROOT
BRANCH   1  13
ATOM     10  C   UNL     1       0.211  10.624  19.712  0.00  0.00    +0.000 A 
ATOM     11  C   UNL     1       0.697  10.391  18.425  0.00  0.00    +0.000 A 
ATOM     12  C   UNL     1       1.451   9.248  18.145  0.00  0.00    +0.000 A 
ATOM     13  C   UNL     1       1.756   8.341  19.166  0.00  0.00    +0.000 A 
ATOM     14  C   UNL     1       1.261   8.569  20.455  0.00  0.00    +0.000 A 
ATOM     15  C   UNL     1       0.495   9.712  20.730  0.00  0.00    +0.000 A 
BRANCH  10  17
ATOM     16  C   UNL     1      -0.480  12.662  18.734  0.00  0.00    +0.000 C 
ATOM     17  O   UNL     1      -0.490  11.787  19.856  0.00  0.00    +0.000 OA
ENDBRANCH  10  17
ENDBRANCH   1  13
BRANCH   3  18
ATOM     18  C   UNL     1       5.092   6.036  16.227  0.00  0.00    +0.000 C 
ATOM     19  F   UNL     1       5.046   4.904  15.493  0.00  0.00    +0.000 F 
ATOM     20  F   UNL     1       4.814   7.059  15.375  0.00  0.00    +0.000 F 
ATOM     21  F   UNL     1       6.391   6.205  16.600  0.00  0.00    +0.000 F 
ENDBRANCH   3  18
BRANCH   6  22
ATOM     22  C   UNL     1       4.630   1.770  19.625  0.00  0.00    +0.000 C 
ATOM     23  O   UNL     1       5.217   1.432  20.645  0.00  0.00    +0.000 OA
BRANCH  22  24
ATOM     24  O   UNL     1       4.236   0.867  18.679  0.00  0.00    +0.000 OA
ATOM     25  H   UNL     1       4.951   0.794  18.006  0.00  0.00    +0.000 HD
ENDBRANCH  22  24
ENDBRANCH   6  22
TORSDOF 5
ENDMDL
MODEL 6
REMARK VINA RESULT:      -7.9      1.198      1.815
REMARK  Name = 
REMARK  6 active torsions:
REMARK  status: ('A' for Active; 'I' for Inactive)
REMARK    1  A    between atoms: C_1  and  O_2
REMARK    2  A    between atoms: O_2  and  C_3
REMARK    3  A    between atoms: C_6  and  C_7
REMARK    4  A    between atoms: C_9  and  C_10
REMARK    5  A    between atoms: C_16  and  C_17
REMARK    6  A    between atoms: C_17  and  O_19
REMARK                            x       y       z     vdW  Elec       q    Type
REMARK                         _______ _______ _______ _____ _____    ______ ____
ROOT
ATOM      1  C   UNL     1       2.574   7.370  18.301  0.00  0.00    +0.000 A 
ATOM      2  C   UNL     1       2.011   5.983  18.383  0.00  0.00    +0.000 A 
ATOM      3  C   UNL     1       2.784   4.982  17.919  0.00  0.00    +0.000 A 
ATOM      4  N   UNL     1       4.025   5.284  17.382  0.00  0.00    +0.000 N 
ATOM      5  N   UNL     1       4.971   4.469  16.874  0.00  0.00    +0.000 NA
ATOM      6  C   UNL     1       5.948   5.309  16.516  0.00  0.00    +0.000 A 
ATOM      7  N   UNL     1       5.670   6.638  16.756  0.00  0.00    +0.000 NA
ATOM      8  C   UNL     1       4.473   6.614  17.302  0.00  0.00    +0.000 A 
ATOM      9  N   UNL     1       3.727   7.659  17.764  0.00  0.00    +0.000 NA
ENDROOT
BRANCH   1  13
ATOM     10  C   UNL     1       0.160  10.516  19.969  0.00  0.00    +0.000 A 
ATOM     11  C   UNL     1       0.461  10.512  18.607  0.00  0.00    +0.000 A 
ATOM     12  C   UNL     1       1.223   9.482  18.050  0.00  0.00    +0.000 A 
ATOM     13  C   UNL     1       1.724   8.459  18.864  0.00  0.00    +0.000 A 
ATOM     14  C   UNL     1       1.414   8.458  20.230  0.00  0.00    +0.000 A 
ATOM     15  C   UNL     1       0.640   9.488  20.783  0.00  0.00    +0.000 A 
BRANCH  10  17
ATOM     16  C   UNL     1      -0.191  12.851  19.850  0.00  0.00    +0.000 C 
ATOM     17  O   UNL     1      -0.571  11.591  20.390  0.00  0.00    +0.000 OA
ENDBRANCH  10  17
ENDBRANCH   1  13
BRANCH   3  18
ATOM     18  C   UNL     1       2.333   3.571  17.964  0.00  0.00    +0.000 C 
ATOM     19  F   UNL     1       2.377   2.885  16.803  0.00  0.00    +0.000 F 
ATOM     20  F   UNL     1       3.078   2.865  18.857  0.00  0.00    +0.000 F 
ATOM     21  F   UNL     1       1.049   3.496  18.411  0.00  0.00    +0.000 F 
ENDBRANCH   3  18
BRANCH   6  22
ATOM     22  C   UNL     1       7.231   4.904  15.919  0.00  0.00    +0.000 C 
ATOM     23  O   UNL     1       7.620   5.196  14.796  0.00  0.00    +0.000 OA
BRANCH  22  24
ATOM     24  O   UNL     1       7.974   4.135  16.768  0.00  0.00    +0.000 OA
ATOM     25  H   UNL     1       8.838   4.584  16.916  0.00  0.00    +0.000 HD
ENDBRANCH  22  24
ENDBRANCH   6  22
TORSDOF 5
ENDMDL
MODEL 7
REMARK VINA RESULT:      -7.8      2.940      3.760
REMARK  Name = 
REMARK  6 active torsions:
REMARK  status: ('A' for Active; 'I' for Inactive)
REMARK    1  A    between atoms: C_1  and  O_2
REMARK    2  A    between atoms: O_2  and  C_3
REMARK    3  A    between atoms: C_6  and  C_7
REMARK    4  A    between atoms: C_9  and  C_10
REMARK    5  A    between atoms: C_16  and  C_17
REMARK    6  A    between atoms: C_17  and  O_19
REMARK                            x       y       z     vdW  Elec       q    Type
REMARK                         _______ _______ _______ _____ _____    ______ ____
ROOT
ATOM      1  C   UNL     1       2.556   7.149  18.950  0.00  0.00    +0.000 A 
ATOM      2  C   UNL     1       3.429   7.218  17.733  0.00  0.00    +0.000 A 
ATOM      3  C   UNL     1       4.165   6.126  17.447  0.00  0.00    +0.000 A 
ATOM      4  N   UNL     1       4.092   5.027  18.287  0.00  0.00    +0.000 N 
ATOM      5  N   UNL     1       4.711   3.832  18.207  0.00  0.00    +0.000 NA
ATOM      6  C   UNL     1       4.259   3.173  19.280  0.00  0.00    +0.000 A 
ATOM      7  N   UNL     1       3.384   3.896  20.062  0.00  0.00    +0.000 NA
ATOM      8  C   UNL     1       3.280   5.047  19.434  0.00  0.00    +0.000 A 
ATOM      9  N   UNL     1       2.514   6.129  19.761  0.00  0.00    +0.000 NA
ENDROOT
BRANCH   1  13
ATOM     10  C   UNL     1       0.095  10.600  19.688  0.00  0.00    +0.000 A 
ATOM     11  C   UNL     1       0.379   9.708  20.723  0.00  0.00    +0.000 A 
ATOM     12  C   UNL     1       1.198   8.598  20.500  0.00  0.00    +0.000 A 
ATOM     13  C   UNL     1       1.713   8.350  19.223  0.00  0.00    +0.000 A 
ATOM     14  C   UNL     1       1.436   9.249  18.187  0.00  0.00    +0.000 A 
ATOM     15  C   UNL     1       0.623  10.369  18.417  0.00  0.00    +0.000 A 
BRANCH  10  17
ATOM     16  C   UNL     1      -1.849  11.844  19.172  0.00  0.00    +0.000 C 
ATOM     17  O   UNL     1      -0.736  11.628  20.032  0.00  0.00    +0.000 OA
ENDBRANCH  10  17
ENDBRANCH   1  13
BRANCH   3  18
ATOM     18  C   UNL     1       5.051   6.079  16.260  0.00  0.00    +0.000 C 
ATOM     19  F   UNL     1       4.881   7.053  15.341  0.00  0.00    +0.000 F 
ATOM     20  F   UNL     1       6.356   6.133  16.641  0.00  0.00    +0.000 F 
ATOM     21  F   UNL     1       4.904   4.895  15.603  0.00  0.00    +0.000 F 
ENDBRANCH   3  18
BRANCH   6  22
ATOM     22  C   UNL     1       4.626   1.793  19.637  0.00  0.00    +0.000 C 
ATOM     23  O   UNL     1       5.200   1.451  20.662  0.00  0.00    +0.000 OA
BRANCH  22  24
ATOM     24  O   UNL     1       4.256   0.896  18.677  0.00  0.00    +0.000 OA
ATOM     25  H   UNL     1       3.835   1.391  17.937  0.00  0.00    +0.000 HD
ENDBRANCH  22  24
ENDBRANCH   6  22
TORSDOF 5
ENDMDL
MODEL 8
REMARK VINA RESULT:      -7.8      1.284      1.788
REMARK  Name = 
REMARK  6 active torsions:
REMARK  status: ('A' for Active; 'I' for Inactive)
REMARK    1  A    between atoms: C_1  and  O_2
REMARK    2  A    between atoms: O_2  and  C_3
REMARK    3  A    between atoms: C_6  and  C_7
REMARK    4  A    between atoms: C_9  and  C_10
REMARK    5  A    between atoms: C_16  and  C_17
REMARK    6  A    between atoms: C_17  and  O_19
REMARK                            x       y       z     vdW  Elec       q    Type
REMARK                         _______ _______ _______ _____ _____    ______ ____
ROOT
ATOM      1  C   UNL     1       2.524   7.345  18.312  0.00  0.00    +0.000 A 
ATOM      2  C   UNL     1       1.941   5.965  18.329  0.00  0.00    +0.000 A 
ATOM      3  C   UNL     1       2.731   4.962  17.898  0.00  0.00    +0.000 A 
ATOM      4  N   UNL     1       4.008   5.257  17.451  0.00  0.00    +0.000 N 
ATOM      5  N   UNL     1       4.976   4.440  16.990  0.00  0.00    +0.000 NA
ATOM      6  C   UNL     1       5.985   5.274  16.715  0.00  0.00    +0.000 A 
ATOM      7  N   UNL     1       5.708   6.601  16.962  0.00  0.00    +0.000 NA
ATOM      8  C   UNL     1       4.477   6.583  17.427  0.00  0.00    +0.000 A 
ATOM      9  N   UNL     1       3.714   7.629  17.859  0.00  0.00    +0.000 NA
ENDROOT
BRANCH   1  13
ATOM     10  C   UNL     1       0.047  10.496  19.875  0.00  0.00    +0.000 A 
ATOM     11  C   UNL     1       0.313  10.427  18.507  0.00  0.00    +0.000 A 
ATOM     12  C   UNL     1       1.096   9.394  17.986  0.00  0.00    +0.000 A 
ATOM     13  C   UNL     1       1.652   8.435  18.839  0.00  0.00    +0.000 A 
ATOM     14  C   UNL     1       1.377   8.498  20.211  0.00  0.00    +0.000 A 
ATOM     15  C   UNL     1       0.582   9.530  20.729  0.00  0.00    +0.000 A 
BRANCH  10  17
ATOM     16  C   UNL     1      -1.656  12.032  19.301  0.00  0.00    +0.000 C 
ATOM     17  O   UNL     1      -0.710  11.567  20.257  0.00  0.00    +0.000 OA
ENDBRANCH  10  17
ENDBRANCH   1  13
BRANCH   3  18
ATOM     18  C   UNL     1       2.261   3.556  17.886  0.00  0.00    +0.000 C 
ATOM     19  F   UNL     1       2.907   2.697  18.702  0.00  0.00    +0.000 F 
ATOM     20  F   UNL     1       0.945   3.495  18.225  0.00  0.00    +0.000 F 
ATOM     21  F   UNL     1       2.346   3.037  16.630  0.00  0.00    +0.000 F 
ENDBRANCH   3  18
BRANCH   6  22
ATOM     22  C   UNL     1       7.300   4.863  16.197  0.00  0.00    +0.000 C 
ATOM     23  O   UNL     1       8.128   4.195  16.802  0.00  0.00    +0.000 OA
BRANCH  22  24
ATOM     24  O   UNL     1       7.521   5.320  14.929  0.00  0.00    +0.000 OA
ATOM     25  H   UNL     1       8.340   5.867  14.936  0.00  0.00    +0.000 HD
ENDBRANCH  22  24
ENDBRANCH   6  22
TORSDOF 5
ENDMDL
MODEL 9
REMARK VINA RESULT:      -7.8      1.105      1.630
REMARK  Name = 
REMARK  6 active torsions:
REMARK  status: ('A' for Active; 'I' for Inactive)
REMARK    1  A    between atoms: C_1  and  O_2
REMARK    2  A    between atoms: O_2  and  C_3
REMARK    3  A    between atoms: C_6  and  C_7
REMARK    4  A    between atoms: C_9  and  C_10
REMARK    5  A    between atoms: C_16  and  C_17
REMARK    6  A    between atoms: C_17  and  O_19
REMARK                            x       y       z     vdW  Elec       q    Type
REMARK                         _______ _______ _______ _____ _____    ______ ____
ROOT
ATOM      1  C   UNL     1       2.595   6.819  19.204  0.00  0.00    +0.000 A 
ATOM      2  C   UNL     1       2.469   5.486  19.879  0.00  0.00    +0.000 A 
ATOM      3  C   UNL     1       3.238   4.487  19.406  0.00  0.00    +0.000 A 
ATOM      4  N   UNL     1       4.074   4.733  18.329  0.00  0.00    +0.000 N 
ATOM      5  N   UNL     1       4.935   3.913  17.695  0.00  0.00    +0.000 NA
ATOM      6  C   UNL     1       5.467   4.691  16.745  0.00  0.00    +0.000 A 
ATOM      7  N   UNL     1       4.976   5.978  16.726  0.00  0.00    +0.000 NA
ATOM      8  C   UNL     1       4.113   5.999  17.719  0.00  0.00    +0.000 A 
ATOM      9  N   UNL     1       3.355   7.043  18.167  0.00  0.00    +0.000 NA
ENDROOT
BRANCH   1  13
ATOM     10  C   UNL     1       0.252  10.007  20.892  0.00  0.00    +0.000 A 
ATOM     11  C   UNL     1       0.726  10.103  19.584  0.00  0.00    +0.000 A 
ATOM     12  C   UNL     1       1.467   9.063  19.017  0.00  0.00    +0.000 A 
ATOM     13  C   UNL     1       1.772   7.925  19.772  0.00  0.00    +0.000 A 
ATOM     14  C   UNL     1       1.288   7.823  21.082  0.00  0.00    +0.000 A 
ATOM     15  C   UNL     1       0.535   8.865  21.644  0.00  0.00    +0.000 A 
BRANCH  10  17
ATOM     16  C   UNL     1      -0.843  11.073  22.697  0.00  0.00    +0.000 C 
ATOM     17  O   UNL     1      -0.438  11.101  21.333  0.00  0.00    +0.000 OA
ENDBRANCH  10  17
ENDBRANCH   1  13
BRANCH   3  18
ATOM     18  C   UNL     1       3.205   3.133  20.008  0.00  0.00    +0.000 C 
ATOM     19  F   UNL     1       4.393   2.601  20.364  0.00  0.00    +0.000 F 
ATOM     20  F   UNL     1       2.431   3.132  21.127  0.00  0.00    +0.000 F 
ATOM     21  F   UNL     1       2.624   2.246  19.153  0.00  0.00    +0.000 F 
ENDBRANCH   3  18
BRANCH   6  22
ATOM     22  C   UNL     1       6.495   4.262  15.783  0.00  0.00    +0.000 C 
ATOM     23  O   UNL     1       6.282   3.745  14.694  0.00  0.00    +0.000 OA
BRANCH  22  24
ATOM     24  O   UNL     1       7.760   4.500  16.239  0.00  0.00    +0.000 OA
ATOM     25  H   UNL     1       8.329   3.738  15.985  0.00  0.00    +0.000 HD
ENDBRANCH  22  24
ENDBRANCH   6  22
TORSDOF 5
ENDMDL
