MODEL 1
REMARK VINA RESULT:      -8.1      0.000      0.000
REMARK  Name = 
REMARK  4 active torsions:
REMARK  status: ('A' for Active; 'I' for Inactive)
REMARK    1  A    between atoms: C_1  and  N_2
REMARK    2  A    between atoms: N_5  and  C_6
REMARK    3  A    between atoms: C_6  and  C_7
REMARK    4  A    between atoms: C_10  and  C_11
REMARK                            x       y       z     vdW  Elec       q    Type
REMARK                         _______ _______ _______ _____ _____    ______ ____
ROOT
ATOM      1  C   UNL     1       2.058   7.532  19.155  0.00  0.00    +0.000 C 
ATOM      2  N   UNL     1       3.235   6.746  18.834  0.00  0.00    +0.000 N 
ATOM      3  C   UNL     1       4.258   7.308  17.953  0.00  0.00    +0.000 C 
ATOM      4  C   UNL     1       4.673   6.281  16.892  0.00  0.00    +0.000 C 
ATOM      5  N   UNL     1       5.189   5.089  17.559  0.00  0.00    +0.000 N 
ATOM      6  C   UNL     1       4.373   4.571  18.569  0.00  0.00    +0.000 A 
ATOM      7  C   UNL     1       4.499   3.235  18.996  0.00  0.00    +0.000 A 
ATOM      8  C   UNL     1       3.685   2.708  19.999  0.00  0.00    +0.000 A 
ATOM      9  C   UNL     1       2.729   3.513  20.598  0.00  0.00    +0.000 A 
ATOM     10 CL   UNL     1       1.736   2.870  21.850  0.00  0.00    +0.000 Cl
ATOM     11  C   UNL     1       2.570   4.839  20.203  0.00  0.00    +0.000 A 
ATOM     12  C   UNL     1       3.375   5.399  19.194  0.00  0.00    +0.000 A 
ENDROOT
BRANCH   5  13
ATOM     13  C   UNL     1       6.376   4.428  17.011  0.00  0.00    +0.000 C 
BRANCH  13  14
ATOM     14  C   UNL     1       6.679   4.543  15.547  0.00  0.00    +0.000 A 
ATOM     15  N   UNL     1       7.604   5.393  15.078  0.00  0.00    +0.000 NA
ATOM     16  O   UNL     1       7.540   5.209  13.701  0.00  0.00    +0.000 OA
ATOM     17  C   UNL     1       6.577   4.265  13.470  0.00  0.00    +0.000 A 
ATOM     18  N   UNL     1       5.997   3.846  14.574  0.00  0.00    +0.000 NA
BRANCH  17  19
ATOM     19  C   UNL     1       6.240   3.732  12.091  0.00  0.00    +0.000 C 
ATOM     20  C   UNL     1       6.617   2.236  11.871  0.00  0.00    +0.000 C 
ATOM     21  C   UNL     1       5.293   2.083  11.101  0.00  0.00    +0.000 C 
ATOM     22  C   UNL     1       4.765   3.248  11.955  0.00  0.00    +0.000 C 
ENDBRANCH  17  19
ENDBRANCH  13  14
ENDBRANCH   5  13
TORSDOF 3
ENDMDL
MODEL 2
REMARK VINA RESULT:      -8.0      1.951      2.956
REMARK  Name = 
REMARK  4 active torsions:
REMARK  status: ('A' for Active; 'I' for Inactive)
REMARK    1  A    between atoms: C_1  and  N_2
REMARK    2  A    between atoms: N_5  and  C_6
REMARK    3  A    between atoms: C_6  and  C_7
REMARK    4  A    between atoms: C_10  and  C_11
REMARK                            x       y       z     vdW  Elec       q    Type
REMARK                         _______ _______ _______ _____ _____    ______ ____
ROOT
ATOM      1  C   UNL     1       1.107   3.515  18.753  0.00  0.00    +0.000 C 
ATOM      2  N   UNL     1       2.383   3.821  18.133  0.00  0.00    +0.000 N 
ATOM      3  C   UNL     1       3.302   2.734  17.800  0.00  0.00    +0.000 C 
ATOM      4  C   UNL     1       4.725   3.076  18.260  0.00  0.00    +0.000 C 
ATOM      5  N   UNL     1       5.153   4.309  17.605  0.00  0.00    +0.000 N 
ATOM      6  C   UNL     1       4.252   5.374  17.692  0.00  0.00    +0.000 A 
ATOM      7  C   UNL     1       4.674   6.704  17.507  0.00  0.00    +0.000 A 
ATOM      8  C   UNL     1       3.782   7.774  17.598  0.00  0.00    +0.000 A 
ATOM      9  C   UNL     1       2.446   7.529  17.873  0.00  0.00    +0.000 A 
ATOM     10 CL   UNL     1       1.340   8.847  17.966  0.00  0.00    +0.000 Cl
ATOM     11  C   UNL     1       1.988   6.228  18.064  0.00  0.00    +0.000 A 
ATOM     12  C   UNL     1       2.863   5.129  17.979  0.00  0.00    +0.000 A 
ENDROOT
BRANCH   5  13
ATOM     13  C   UNL     1       6.525   4.403  17.100  0.00  0.00    +0.000 C 
BRANCH  13  14
ATOM     14  C   UNL     1       6.764   4.564  15.628  0.00  0.00    +0.000 A 
ATOM     15  N   UNL     1       7.626   5.470  15.143  0.00  0.00    +0.000 NA
ATOM     16  O   UNL     1       7.517   5.311  13.765  0.00  0.00    +0.000 OA
ATOM     17  C   UNL     1       6.595   4.324  13.550  0.00  0.00    +0.000 A 
ATOM     18  N   UNL     1       6.080   3.853  14.667  0.00  0.00    +0.000 NA
BRANCH  17  19
ATOM     19  C   UNL     1       6.231   3.802  12.173  0.00  0.00    +0.000 C 
ATOM     20  C   UNL     1       6.768   2.371  11.867  0.00  0.00    +0.000 C 
ATOM     21  C   UNL     1       5.423   2.086  11.176  0.00  0.00    +0.000 C 
ATOM     22  C   UNL     1       4.819   3.147  12.110  0.00  0.00    +0.000 C 
ENDBRANCH  17  19
ENDBRANCH  13  14
ENDBRANCH   5  13
TORSDOF 3
ENDMDL
MODEL 3
REMARK VINA RESULT:      -7.3      1.304      1.317
REMARK  Name = 
REMARK  4 active torsions:
REMARK  status: ('A' for Active; 'I' for Inactive)
REMARK    1  A    between atoms: C_1  and  N_2
REMARK    2  A    between atoms: N_5  and  C_6
REMARK    3  A    between atoms: C_6  and  C_7
REMARK    4  A    between atoms: C_10  and  C_11
REMARK                            x       y       z     vdW  Elec       q    Type
REMARK                         _______ _______ _______ _____ _____    ______ ____
ROOT
ATOM      1  C   UNL     1       2.244   6.797  19.879  0.00  0.00    +0.000 C 
ATOM      2  N   UNL     1       3.325   6.006  19.322  0.00  0.00    +0.000 N 
ATOM      3  C   UNL     1       4.660   6.591  19.204  0.00  0.00    +0.000 C 
ATOM      4  C   UNL     1       5.248   6.306  17.817  0.00  0.00    +0.000 C 
ATOM      5  N   UNL     1       5.319   4.861  17.618  0.00  0.00    +0.000 N 
ATOM      6  C   UNL     1       4.139   4.164  17.893  0.00  0.00    +0.000 A 
ATOM      7  C   UNL     1       3.906   2.882  17.359  0.00  0.00    +0.000 A 
ATOM      8  C   UNL     1       2.729   2.181  17.625  0.00  0.00    +0.000 A 
ATOM      9  C   UNL     1       1.762   2.752  18.436  0.00  0.00    +0.000 A 
ATOM     10 CL   UNL     1       0.316   1.880  18.781  0.00  0.00    +0.000 Cl
ATOM     11  C   UNL     1       1.951   4.018  18.982  0.00  0.00    +0.000 A 
ATOM     12  C   UNL     1       3.127   4.750  18.734  0.00  0.00    +0.000 A 
ENDROOT
BRANCH   5  13
ATOM     13  C   UNL     1       6.506   4.291  16.976  0.00  0.00    +0.000 C 
BRANCH  13  14
ATOM     14  C   UNL     1       6.710   4.473  15.502  0.00  0.00    +0.000 A 
ATOM     15  N   UNL     1       7.436   5.486  15.006  0.00  0.00    +0.000 NA
ATOM     16  O   UNL     1       7.342   5.306  13.630  0.00  0.00    +0.000 OA
ATOM     17  C   UNL     1       6.563   4.200  13.426  0.00  0.00    +0.000 A 
ATOM     18  N   UNL     1       6.125   3.669  14.549  0.00  0.00    +0.000 NA
BRANCH  17  19
ATOM     19  C   UNL     1       6.266   3.625  12.055  0.00  0.00    +0.000 C 
ATOM     20  C   UNL     1       6.556   2.099  11.922  0.00  0.00    +0.000 C 
ATOM     21  C   UNL     1       5.268   1.993  11.086  0.00  0.00    +0.000 C 
ATOM     22  C   UNL     1       4.772   3.227  11.857  0.00  0.00    +0.000 C 
ENDBRANCH  17  19
ENDBRANCH  13  14
ENDBRANCH   5  13
TORSDOF 3
ENDMDL
MODEL 4
REMARK VINA RESULT:      -7.1      2.891      4.765
REMARK  Name = 
REMARK  4 active torsions:
REMARK  status: ('A' for Active; 'I' for Inactive)
REMARK    1  A    between atoms: C_1  and  N_2
REMARK    2  A    between atoms: N_5  and  C_6
REMARK    3  A    between atoms: C_6  and  C_7
REMARK    4  A    between atoms: C_10  and  C_11
REMARK                            x       y       z     vdW  Elec       q    Type
REMARK                         _______ _______ _______ _____ _____    ______ ____
ROOT
ATOM      1  C   UNL     1       1.803   2.978  21.915  0.00  0.00    +0.000 C 
ATOM      2  N   UNL     1       2.068   3.318  20.530  0.00  0.00    +0.000 N 
ATOM      3  C   UNL     1       2.421   2.262  19.583  0.00  0.00    +0.000 C 
ATOM      4  C   UNL     1       3.630   2.683  18.738  0.00  0.00    +0.000 C 
ATOM      5  N   UNL     1       3.301   3.910  18.016  0.00  0.00    +0.000 N 
ATOM      6  C   UNL     1       2.764   4.935  18.799  0.00  0.00    +0.000 A 
ATOM      7  C   UNL     1       2.799   6.276  18.369  0.00  0.00    +0.000 A 
ATOM      8  C   UNL     1       2.271   7.307  19.147  0.00  0.00    +0.000 A 
ATOM      9  C   UNL     1       1.692   7.013  20.371  0.00  0.00    +0.000 A 
ATOM     10 CL   UNL     1       1.022   8.283  21.324  0.00  0.00    +0.000 Cl
ATOM     11  C   UNL     1       1.640   5.701  20.834  0.00  0.00    +0.000 A 
ATOM     12  C   UNL     1       2.163   4.640  20.073  0.00  0.00    +0.000 A 
ENDROOT
BRANCH   5  13
ATOM     13  C   UNL     1       3.727   4.047  16.621  0.00  0.00    +0.000 C 
BRANCH  13  14
ATOM     14  C   UNL     1       5.000   4.773  16.303  0.00  0.00    +0.000 A 
ATOM     15  N   UNL     1       5.502   4.814  15.060  0.00  0.00    +0.000 NA
ATOM     16  O   UNL     1       6.678   5.541  15.213  0.00  0.00    +0.000 OA
ATOM     17  C   UNL     1       6.776   5.866  16.537  0.00  0.00    +0.000 A 
ATOM     18  N   UNL     1       5.780   5.390  17.256  0.00  0.00    +0.000 NA
BRANCH  17  19
ATOM     19  C   UNL     1       7.892   6.716  17.112  0.00  0.00    +0.000 C 
ATOM     20  C   UNL     1       7.498   8.201  17.374  0.00  0.00    +0.000 C 
ATOM     21  C   UNL     1       8.314   8.120  18.676  0.00  0.00    +0.000 C 
ATOM     22  C   UNL     1       8.021   6.611  18.661  0.00  0.00    +0.000 C 
ENDBRANCH  17  19
ENDBRANCH  13  14
ENDBRANCH   5  13
TORSDOF 3
ENDMDL
MODEL 5
REMARK VINA RESULT:      -7.0      4.448      7.148
REMARK  Name = 
REMARK  4 active torsions:
REMARK  status: ('A' for Active; 'I' for Inactive)
REMARK    1  A    between atoms: C_1  and  N_2
REMARK    2  A    between atoms: N_5  and  C_6
REMARK    3  A    between atoms: C_6  and  C_7
REMARK    4  A    between atoms: C_10  and  C_11
REMARK                            x       y       z     vdW  Elec       q    Type
REMARK                         _______ _______ _______ _____ _____    ______ ____
ROOT
ATOM      1  C   UNL     1       2.966   3.356  17.264  0.00  0.00    +0.000 C 
ATOM      2  N   UNL     1       4.300   3.857  17.537  0.00  0.00    +0.000 N 
ATOM      3  C   UNL     1       4.681   4.185  18.910  0.00  0.00    +0.000 C 
ATOM      4  C   UNL     1       5.385   5.546  18.959  0.00  0.00    +0.000 C 
ATOM      5  N   UNL     1       6.573   5.499  18.111  0.00  0.00    +0.000 N 
ATOM      6  C   UNL     1       6.363   5.010  16.819  0.00  0.00    +0.000 A 
ATOM      7  C   UNL     1       7.264   5.294  15.775  0.00  0.00    +0.000 A 
ATOM      8  C   UNL     1       7.058   4.815  14.481  0.00  0.00    +0.000 A 
ATOM      9  C   UNL     1       5.945   4.036  14.208  0.00  0.00    +0.000 A 
ATOM     10 CL   UNL     1       5.700   3.427  12.615  0.00  0.00    +0.000 Cl
ATOM     11  C   UNL     1       5.028   3.733  15.211  0.00  0.00    +0.000 A 
ATOM     12  C   UNL     1       5.207   4.202  16.526  0.00  0.00    +0.000 A 
ENDROOT
BRANCH   5  13
ATOM     13  C   UNL     1       7.808   6.129  18.584  0.00  0.00    +0.000 C 
BRANCH  13  14
ATOM     14  C   UNL     1       8.024   7.596  18.360  0.00  0.00    +0.000 A 
ATOM     15  N   UNL     1       7.340   8.280  17.430  0.00  0.00    +0.000 NA
ATOM     16  O   UNL     1       7.862   9.566  17.530  0.00  0.00    +0.000 OA
ATOM     17  C   UNL     1       8.814   9.534  18.511  0.00  0.00    +0.000 A 
ATOM     18  N   UNL     1       8.972   8.335  19.032  0.00  0.00    +0.000 NA
BRANCH  17  19
ATOM     19  C   UNL     1       9.582  10.757  18.974  0.00  0.00    +0.000 C 
ATOM     20  C   UNL     1       8.883  12.113  18.652  0.00  0.00    +0.000 C 
ATOM     21  C   UNL     1       9.339  12.602  20.038  0.00  0.00    +0.000 C 
ATOM     22  C   UNL     1       9.324  11.126  20.466  0.00  0.00    +0.000 C 
ENDBRANCH  17  19
ENDBRANCH  13  14
ENDBRANCH   5  13
TORSDOF 3
ENDMDL
MODEL 6
REMARK VINA RESULT:      -6.9      3.557      5.725
REMARK  Name = 
REMARK  4 active torsions:
REMARK  status: ('A' for Active; 'I' for Inactive)
REMARK    1  A    between atoms: C_1  and  N_2
REMARK    2  A    between atoms: N_5  and  C_6
REMARK    3  A    between atoms: C_6  and  C_7
REMARK    4  A    between atoms: C_10  and  C_11
REMARK                            x       y       z     vdW  Elec       q    Type
REMARK                         _______ _______ _______ _____ _____    ______ ____
ROOT
ATOM      1  C   UNL     1       0.241  12.120  18.286  0.00  0.00    +0.000 C 
ATOM      2  N   UNL     1       0.903  10.942  18.814  0.00  0.00    +0.000 N 
ATOM      3  C   UNL     1       1.888  10.240  17.993  0.00  0.00    +0.000 C 
ATOM      4  C   UNL     1       1.636   8.727  18.031  0.00  0.00    +0.000 C 
ATOM      5  N   UNL     1       1.720   8.265  19.414  0.00  0.00    +0.000 N 
ATOM      6  C   UNL     1       0.961   8.995  20.333  0.00  0.00    +0.000 A 
ATOM      7  C   UNL     1       0.594   8.447  21.576  0.00  0.00    +0.000 A 
ATOM      8  C   UNL     1      -0.169   9.166  22.497  0.00  0.00    +0.000 A 
ATOM      9  C   UNL     1      -0.575  10.455  22.190  0.00  0.00    +0.000 A 
ATOM     10 CL   UNL     1      -1.500  11.353  23.334  0.00  0.00    +0.000 Cl
ATOM     11  C   UNL     1      -0.235  11.034  20.971  0.00  0.00    +0.000 A 
ATOM     12  C   UNL     1       0.532  10.334  20.021  0.00  0.00    +0.000 A 
ENDROOT
BRANCH   5  13
ATOM     13  C   UNL     1       2.402   7.001  19.699  0.00  0.00    +0.000 C 
BRANCH  13  14
ATOM     14  C   UNL     1       3.084   6.261  18.587  0.00  0.00    +0.000 A 
ATOM     15  N   UNL     1       2.561   5.149  18.048  0.00  0.00    +0.000 NA
ATOM     16  O   UNL     1       3.509   4.775  17.100  0.00  0.00    +0.000 OA
ATOM     17  C   UNL     1       4.517   5.698  17.161  0.00  0.00    +0.000 A 
ATOM     18  N   UNL     1       4.316   6.616  18.082  0.00  0.00    +0.000 NA
BRANCH  17  19
ATOM     19  C   UNL     1       5.721   5.685  16.239  0.00  0.00    +0.000 C 
ATOM     20  C   UNL     1       6.769   4.579  16.568  0.00  0.00    +0.000 C 
ATOM     21  C   UNL     1       6.926   4.368  15.052  0.00  0.00    +0.000 C 
ATOM     22  C   UNL     1       5.486   4.889  14.920  0.00  0.00    +0.000 C 
ENDBRANCH  17  19
ENDBRANCH  13  14
ENDBRANCH   5  13
TORSDOF 3
ENDMDL
MODEL 7
REMARK VINA RESULT:      -6.8      0.820      1.023
REMARK  Name = 
REMARK  4 active torsions:
REMARK  status: ('A' for Active; 'I' for Inactive)
REMARK    1  A    between atoms: C_1  and  N_2
REMARK    2  A    between atoms: N_5  and  C_6
REMARK    3  A    between atoms: C_6  and  C_7
REMARK    4  A    between atoms: C_10  and  C_11
REMARK                            x       y       z     vdW  Elec       q    Type
REMARK                         _______ _______ _______ _____ _____    ______ ____
ROOT
ATOM      1  C   UNL     1       1.461   7.298  19.662  0.00  0.00    +0.000 C 
ATOM      2  N   UNL     1       2.756   6.688  19.429  0.00  0.00    +0.000 N 
ATOM      3  C   UNL     1       3.790   7.438  18.717  0.00  0.00    +0.000 C 
ATOM      4  C   UNL     1       4.445   6.560  17.644  0.00  0.00    +0.000 C 
ATOM      5  N   UNL     1       5.034   5.386  18.284  0.00  0.00    +0.000 N 
ATOM      6  C   UNL     1       4.185   4.693  19.151  0.00  0.00    +0.000 A 
ATOM      7  C   UNL     1       4.433   3.351  19.498  0.00  0.00    +0.000 A 
ATOM      8  C   UNL     1       3.588   2.649  20.358  0.00  0.00    +0.000 A 
ATOM      9  C   UNL     1       2.477   3.282  20.893  0.00  0.00    +0.000 A 
ATOM     10 CL   UNL     1       1.443   2.423  21.971  0.00  0.00    +0.000 Cl
ATOM     11  C   UNL     1       2.194   4.607  20.574  0.00  0.00    +0.000 A 
ATOM     12  C   UNL     1       3.027   5.342  19.710  0.00  0.00    +0.000 A 
ENDROOT
BRANCH   5  13
ATOM     13  C   UNL     1       6.348   4.919  17.837  0.00  0.00    +0.000 C 
BRANCH  13  14
ATOM     14  C   UNL     1       6.621   4.769  16.370  0.00  0.00    +0.000 A 
ATOM     15  N   UNL     1       7.449   5.597  15.714  0.00  0.00    +0.000 NA
ATOM     16  O   UNL     1       7.389   5.136  14.402  0.00  0.00    +0.000 OA
ATOM     17  C   UNL     1       6.527   4.075  14.392  0.00  0.00    +0.000 A 
ATOM     18  N   UNL     1       6.005   3.828  15.575  0.00  0.00    +0.000 NA
BRANCH  17  19
ATOM     19  C   UNL     1       6.232   3.246  13.156  0.00  0.00    +0.000 C 
ATOM     20  C   UNL     1       4.844   3.534  12.508  0.00  0.00    +0.000 C 
ATOM     21  C   UNL     1       5.533   3.414  11.137  0.00  0.00    +0.000 C 
ATOM     22  C   UNL     1       6.825   3.849  11.847  0.00  0.00    +0.000 C 
ENDBRANCH  17  19
ENDBRANCH  13  14
ENDBRANCH   5  13
TORSDOF 3
ENDMDL
MODEL 8
REMARK VINA RESULT:      -6.8      1.833      3.018
REMARK  Name = 
REMARK  4 active torsions:
REMARK  status: ('A' for Active; 'I' for Inactive)
REMARK    1  A    between atoms: C_1  and  N_2
REMARK    2  A    between atoms: N_5  and  C_6
REMARK    3  A    between atoms: C_6  and  C_7
REMARK    4  A    between atoms: C_10  and  C_11
REMARK                            x       y       z     vdW  Elec       q    Type
REMARK                         _______ _______ _______ _____ _____    ______ ____
ROOT
ATOM      1  C   UNL     1       2.626   4.414  20.736  0.00  0.00    +0.000 C 
ATOM      2  N   UNL     1       3.595   4.601  19.673  0.00  0.00    +0.000 N 
ATOM      3  C   UNL     1       4.668   3.624  19.495  0.00  0.00    +0.000 C 
ATOM      4  C   UNL     1       6.014   4.335  19.310  0.00  0.00    +0.000 C 
ATOM      5  N   UNL     1       5.936   5.207  18.141  0.00  0.00    +0.000 N 
ATOM      6  C   UNL     1       4.829   6.059  18.108  0.00  0.00    +0.000 A 
ATOM      7  C   UNL     1       4.826   7.222  17.314  0.00  0.00    +0.000 A 
ATOM      8  C   UNL     1       3.728   8.082  17.279  0.00  0.00    +0.000 A 
ATOM      9  C   UNL     1       2.607   7.790  18.038  0.00  0.00    +0.000 A 
ATOM     10 CL   UNL     1       1.242   8.840  17.981  0.00  0.00    +0.000 Cl
ATOM     11  C   UNL     1       2.569   6.652  18.839  0.00  0.00    +0.000 A 
ATOM     12  C   UNL     1       3.660   5.765  18.896  0.00  0.00    +0.000 A 
ENDROOT
BRANCH   5  13
ATOM     13  C   UNL     1       7.078   5.270  17.226  0.00  0.00    +0.000 C 
BRANCH  13  14
ATOM     14  C   UNL     1       6.896   4.892  15.787  0.00  0.00    +0.000 A 
ATOM     15  N   UNL     1       7.594   5.481  14.805  0.00  0.00    +0.000 NA
ATOM     16  O   UNL     1       7.102   4.874  13.653  0.00  0.00    +0.000 OA
ATOM     17  C   UNL     1       6.150   3.976  14.052  0.00  0.00    +0.000 A 
ATOM     18  N   UNL     1       5.966   3.972  15.355  0.00  0.00    +0.000 NA
BRANCH  17  19
ATOM     19  C   UNL     1       5.412   3.058  13.097  0.00  0.00    +0.000 C 
ATOM     20  C   UNL     1       4.599   3.800  11.993  0.00  0.00    +0.000 C 
ATOM     21  C   UNL     1       5.069   2.713  11.010  0.00  0.00    +0.000 C 
ATOM     22  C   UNL     1       6.295   2.543  11.921  0.00  0.00    +0.000 C 
ENDBRANCH  17  19
ENDBRANCH  13  14
ENDBRANCH   5  13
TORSDOF 3
ENDMDL
MODEL 9
REMARK VINA RESULT:      -6.8      3.870      7.827
REMARK  Name = 
REMARK  4 active torsions:
REMARK  status: ('A' for Active; 'I' for Inactive)
REMARK    1  A    between atoms: C_1  and  N_2
REMARK    2  A    between atoms: N_5  and  C_6
REMARK    3  A    between atoms: C_6  and  C_7
REMARK    4  A    between atoms: C_10  and  C_11
REMARK                            x       y       z     vdW  Elec       q    Type
REMARK                         _______ _______ _______ _____ _____    ______ ____
ROOT
ATOM      1  C   UNL     1       3.072   1.839  17.883  0.00  0.00    +0.000 C 
ATOM      2  N   UNL     1       3.279   3.206  18.325  0.00  0.00    +0.000 N 
ATOM      3  C   UNL     1       2.650   3.667  19.561  0.00  0.00    +0.000 C 
ATOM      4  C   UNL     1       1.986   5.033  19.346  0.00  0.00    +0.000 C 
ATOM      5  N   UNL     1       3.000   5.992  18.915  0.00  0.00    +0.000 N 
ATOM      6  C   UNL     1       3.803   5.572  17.851  0.00  0.00    +0.000 A 
ATOM      7  C   UNL     1       4.505   6.498  17.056  0.00  0.00    +0.000 A 
ATOM      8  C   UNL     1       5.304   6.088  15.988  0.00  0.00    +0.000 A 
ATOM      9  C   UNL     1       5.418   4.738  15.698  0.00  0.00    +0.000 A 
ATOM     10 CL   UNL     1       6.420   4.228  14.392  0.00  0.00    +0.000 Cl
ATOM     11  C   UNL     1       4.739   3.790  16.458  0.00  0.00    +0.000 A 
ATOM     12  C   UNL     1       3.925   4.171  17.541  0.00  0.00    +0.000 A 
ENDROOT
BRANCH   5  13
ATOM     13  C   UNL     1       2.974   7.349  19.468  0.00  0.00    +0.000 C 
BRANCH  13  14
ATOM     14  C   UNL     1       1.958   8.332  18.970  0.00  0.00    +0.000 A 
ATOM     15  N   UNL     1       1.901   8.703  17.682  0.00  0.00    +0.000 NA
ATOM     16  O   UNL     1       0.866   9.632  17.660  0.00  0.00    +0.000 OA
ATOM     17  C   UNL     1       0.398   9.735  18.941  0.00  0.00    +0.000 A 
ATOM     18  N   UNL     1       1.059   8.976  19.790  0.00  0.00    +0.000 NA
BRANCH  17  19
ATOM     19  C   UNL     1      -0.781  10.604  19.335  0.00  0.00    +0.000 C 
ATOM     20  C   UNL     1      -0.701  12.070  18.811  0.00  0.00    +0.000 C 
ATOM     21  C   UNL     1      -2.210  11.982  18.526  0.00  0.00    +0.000 C 
ATOM     22  C   UNL     1      -2.004  10.466  18.379  0.00  0.00    +0.000 C 
ENDBRANCH  17  19
ENDBRANCH  13  14
ENDBRANCH   5  13
TORSDOF 3
ENDMDL
