MODEL 1
REMARK VINA RESULT:      -7.2      0.000      0.000
REMARK  Name = 
REMARK  10 active torsions:
REMARK  status: ('A' for Active; 'I' for Inactive)
REMARK    1  A    between atoms: C_1  and  C_2
REMARK    2  A    between atoms: C_2  and  N_3
REMARK    3  A    between atoms: C_6  and  C_7
REMARK    4  A    between atoms: C_7  and  C_9
REMARK    5  A    between atoms: C_9  and  N_10
REMARK    6  A    between atoms: C_12  and  C_13
REMARK    7  A    between atoms: C_15  and  C_16
REMARK    8  A    between atoms: C_18  and  N_19
REMARK    9  A    between atoms: N_20  and  C_21
REMARK   10  A    between atoms: C_21  and  C_22
REMARK                            x       y       z     vdW  Elec       q    Type
REMARK                         _______ _______ _______ _____ _____    ______ ____
ROOT
ATOM      1  N   UNL     1       3.125   4.065  19.579  0.00  0.00    +0.000 N 
ATOM      2  C   UNL     1       2.329   5.099  19.161  0.00  0.00    +0.000 A 
ATOM      3  O   UNL     1       1.104   5.079  19.249  0.00  0.00    +0.000 OA
ATOM      4  C   UNL     1       3.018   6.274  18.581  0.00  0.00    +0.000 A 
ATOM      5  C   UNL     1       4.252   6.090  18.054  0.00  0.00    +0.000 A 
ATOM      6  N   UNL     1       4.914   4.882  18.279  0.00  0.00    +0.000 N 
ATOM      7  C   UNL     1       4.418   3.891  19.125  0.00  0.00    +0.000 A 
ATOM      8  O   UNL     1       5.080   2.901  19.452  0.00  0.00    +0.000 OA
ENDROOT
BRANCH   5   9
ATOM      9  N   UNL     1       4.913   7.085  17.343  0.00  0.00    +0.000 N 
ATOM     10  H   UNL     1       5.904   7.171  17.613  0.00  0.00    +0.000 HD
ATOM     11  H   UNL     1       4.451   7.990  17.418  0.00  0.00    +0.000 HD
ENDBRANCH   5   9
BRANCH   1  13
ATOM     12  C   UNL     1       2.239   3.435  21.822  0.00  0.00    +0.000 C 
ATOM     13  C   UNL     1       2.517   3.006  20.381  0.00  0.00    +0.000 C 
ENDBRANCH   1  13
BRANCH   4  14
ATOM     14  C   UNL     1       2.345   7.626  18.565  0.00  0.00    +0.000 C 
ATOM     15  O   UNL     1       2.169   8.199  17.484  0.00  0.00    +0.000 OA
BRANCH  14  16
ATOM     16  C   UNL     1       1.886   8.210  19.916  0.00  0.00    +0.000 C 
BRANCH  16  17
ATOM     17  N   UNL     1       0.533   8.827  19.920  0.00  0.00    +0.000 NA
ATOM     18  C   UNL     1      -0.136   8.792  21.241  0.00  0.00    +0.000 C 
ATOM     19  C   UNL     1       0.585   9.637  22.309  0.00  0.00    +0.000 C 
ATOM     20  C   UNL     1      -0.125   9.527  23.650  0.00  0.00    +0.000 C 
ATOM     21  O   UNL     1       0.616  11.016  21.903  0.00  0.00    +0.000 OA
ATOM     22  C   UNL     1       1.284  11.162  20.635  0.00  0.00    +0.000 C 
ATOM     23  C   UNL     1       1.234  12.634  20.244  0.00  0.00    +0.000 C 
ATOM     24  C   UNL     1       0.636  10.267  19.544  0.00  0.00    +0.000 C 
ENDBRANCH  16  17
ENDBRANCH  14  16
ENDBRANCH   4  14
BRANCH   6  25
ATOM     25  C   UNL     1       6.308   4.716  17.831  0.00  0.00    +0.000 C 
BRANCH  25  26
ATOM     26  C   UNL     1       6.494   4.478  16.344  0.00  0.00    +0.000 A 
ATOM     27  C   UNL     1       5.574   3.662  15.661  0.00  0.00    +0.000 A 
ATOM     28  C   UNL     1       5.594   3.569  14.267  0.00  0.00    +0.000 A 
ATOM     29  C   UNL     1       6.536   4.286  13.535  0.00  0.00    +0.000 A 
ATOM     30  C   UNL     1       7.472   5.077  14.197  0.00  0.00    +0.000 A 
ATOM     31  C   UNL     1       7.451   5.174  15.591  0.00  0.00    +0.000 A 
ENDBRANCH  25  26
ENDBRANCH   6  25
TORSDOF 7
ENDMDL
MODEL 2
REMARK VINA RESULT:      -7.0      0.448      1.044
REMARK  Name = 
REMARK  10 active torsions:
REMARK  status: ('A' for Active; 'I' for Inactive)
REMARK    1  A    between atoms: C_1  and  C_2
REMARK    2  A    between atoms: C_2  and  N_3
REMARK    3  A    between atoms: C_6  and  C_7
REMARK    4  A    between atoms: C_7  and  C_9
REMARK    5  A    between atoms: C_9  and  N_10
REMARK    6  A    between atoms: C_12  and  C_13
REMARK    7  A    between atoms: C_15  and  C_16
REMARK    8  A    between atoms: C_18  and  N_19
REMARK    9  A    between atoms: N_20  and  C_21
REMARK   10  A    between atoms: C_21  and  C_22
REMARK                            x       y       z     vdW  Elec       q    Type
REMARK                         _______ _______ _______ _____ _____    ______ ____
ROOT
ATOM      1  N   UNL     1       3.260   4.460  19.683  0.00  0.00    +0.000 N 
ATOM      2  C   UNL     1       2.425   5.464  19.268  0.00  0.00    +0.000 A 
ATOM      3  O   UNL     1       1.221   5.476  19.511  0.00  0.00    +0.000 OA
ATOM      4  C   UNL     1       3.043   6.562  18.491  0.00  0.00    +0.000 A 
ATOM      5  C   UNL     1       4.199   6.302  17.834  0.00  0.00    +0.000 A 
ATOM      6  N   UNL     1       4.875   5.109  18.093  0.00  0.00    +0.000 N 
ATOM      7  C   UNL     1       4.484   4.216  19.090  0.00  0.00    +0.000 A 
ATOM      8  O   UNL     1       5.175   3.251  19.428  0.00  0.00    +0.000 OA
ENDROOT
BRANCH   5   9
ATOM      9  N   UNL     1       4.770   7.209  16.949  0.00  0.00    +0.000 N 
ATOM     10  H   UNL     1       4.534   8.186  17.179  0.00  0.00    +0.000 HD
ATOM     11  H   UNL     1       4.532   7.012  15.979  0.00  0.00    +0.000 HD
ENDBRANCH   5   9
BRANCH   1  13
ATOM     12  C   UNL     1       1.923   2.384  20.017  0.00  0.00    +0.000 C 
ATOM     13  C   UNL     1       2.752   3.497  20.658  0.00  0.00    +0.000 C 
ENDBRANCH   1  13
BRANCH   4  14
ATOM     14  C   UNL     1       2.383   7.919  18.425  0.00  0.00    +0.000 C 
ATOM     15  O   UNL     1       2.230   8.462  17.325  0.00  0.00    +0.000 OA
BRANCH  14  16
ATOM     16  C   UNL     1       1.908   8.545  19.750  0.00  0.00    +0.000 C 
BRANCH  16  17
ATOM     17  N   UNL     1       0.569   9.192  19.709  0.00  0.00    +0.000 NA
ATOM     18  C   UNL     1      -0.192   9.073  20.974  0.00  0.00    +0.000 C 
ATOM     19  C   UNL     1       0.467   9.817  22.151  0.00  0.00    +0.000 C 
ATOM     20  C   UNL     1      -0.338   9.622  23.428  0.00  0.00    +0.000 C 
ATOM     21  O   UNL     1       0.552  11.222  21.857  0.00  0.00    +0.000 OA
ATOM     22  C   UNL     1       1.311  11.448  20.653  0.00  0.00    +0.000 C 
ATOM     23  C   UNL     1       1.316  12.946  20.374  0.00  0.00    +0.000 C 
ATOM     24  C   UNL     1       0.725  10.654  19.454  0.00  0.00    +0.000 C 
ENDBRANCH  16  17
ENDBRANCH  14  16
ENDBRANCH   4  14
BRANCH   6  25
ATOM     25  C   UNL     1       6.199   4.872  17.492  0.00  0.00    +0.000 C 
BRANCH  25  26
ATOM     26  C   UNL     1       6.215   4.713  15.983  0.00  0.00    +0.000 A 
ATOM     27  C   UNL     1       7.326   5.179  15.257  0.00  0.00    +0.000 A 
ATOM     28  C   UNL     1       7.470   4.885  13.899  0.00  0.00    +0.000 A 
ATOM     29  C   UNL     1       6.506   4.124  13.244  0.00  0.00    +0.000 A 
ATOM     30  C   UNL     1       5.386   3.678  13.942  0.00  0.00    +0.000 A 
ATOM     31  C   UNL     1       5.241   3.969  15.301  0.00  0.00    +0.000 A 
ENDBRANCH  25  26
ENDBRANCH   6  25
TORSDOF 7
ENDMDL
MODEL 3
REMARK VINA RESULT:      -7.0      0.794      1.695
REMARK  Name = 
REMARK  10 active torsions:
REMARK  status: ('A' for Active; 'I' for Inactive)
REMARK    1  A    between atoms: C_1  and  C_2
REMARK    2  A    between atoms: C_2  and  N_3
REMARK    3  A    between atoms: C_6  and  C_7
REMARK    4  A    between atoms: C_7  and  C_9
REMARK    5  A    between atoms: C_9  and  N_10
REMARK    6  A    between atoms: C_12  and  C_13
REMARK    7  A    between atoms: C_15  and  C_16
REMARK    8  A    between atoms: C_18  and  N_19
REMARK    9  A    between atoms: N_20  and  C_21
REMARK   10  A    between atoms: C_21  and  C_22
REMARK                            x       y       z     vdW  Elec       q    Type
REMARK                         _______ _______ _______ _____ _____    ______ ____
ROOT
ATOM      1  N   UNL     1       3.150   3.881  19.618  0.00  0.00    +0.000 N 
ATOM      2  C   UNL     1       2.308   4.886  19.219  0.00  0.00    +0.000 A 
ATOM      3  O   UNL     1       1.086   4.807  19.303  0.00  0.00    +0.000 OA
ATOM      4  C   UNL     1       2.944   6.103  18.665  0.00  0.00    +0.000 A 
ATOM      5  C   UNL     1       4.187   5.986  18.138  0.00  0.00    +0.000 A 
ATOM      6  N   UNL     1       4.903   4.806  18.341  0.00  0.00    +0.000 N 
ATOM      7  C   UNL     1       4.452   3.776  19.164  0.00  0.00    +0.000 A 
ATOM      8  O   UNL     1       5.157   2.811  19.473  0.00  0.00    +0.000 OA
ENDROOT
BRANCH   5   9
ATOM      9  N   UNL     1       4.802   7.025  17.450  0.00  0.00    +0.000 N 
ATOM     10  H   UNL     1       4.888   7.880  18.020  0.00  0.00    +0.000 HD
ATOM     11  H   UNL     1       4.338   7.239  16.569  0.00  0.00    +0.000 HD
ENDBRANCH   5   9
BRANCH   1  13
ATOM     12  C   UNL     1       2.337   3.151  21.858  0.00  0.00    +0.000 C 
ATOM     13  C   UNL     1       2.591   2.779  20.397  0.00  0.00    +0.000 C 
ENDBRANCH   1  13
BRANCH   4  14
ATOM     14  C   UNL     1       2.210   7.422  18.675  0.00  0.00    +0.000 C 
ATOM     15  O   UNL     1       2.098   8.058  17.620  0.00  0.00    +0.000 OA
BRANCH  14  16
ATOM     16  C   UNL     1       1.610   7.894  20.014  0.00  0.00    +0.000 C 
BRANCH  16  17
ATOM     17  N   UNL     1       1.771   9.342  20.313  0.00  0.00    +0.000 NA
ATOM     18  C   UNL     1       1.005  10.229  19.407  0.00  0.00    +0.000 C 
ATOM     19  C   UNL     1      -0.520  10.062  19.539  0.00  0.00    +0.000 C 
ATOM     20  C   UNL     1      -1.247  10.966  18.554  0.00  0.00    +0.000 C 
ATOM     21  O   UNL     1      -0.935  10.389  20.876  0.00  0.00    +0.000 OA
ATOM     22  C   UNL     1      -0.268   9.549  21.839  0.00  0.00    +0.000 C 
ATOM     23  C   UNL     1      -0.713   9.984  23.230  0.00  0.00    +0.000 C 
ATOM     24  C   UNL     1       1.276   9.629  21.691  0.00  0.00    +0.000 C 
ENDBRANCH  16  17
ENDBRANCH  14  16
ENDBRANCH   4  14
BRANCH   6  25
ATOM     25  C   UNL     1       6.304   4.713  17.894  0.00  0.00    +0.000 C 
BRANCH  25  26
ATOM     26  C   UNL     1       6.504   4.490  16.406  0.00  0.00    +0.000 A 
ATOM     27  C   UNL     1       5.589   3.682  15.706  0.00  0.00    +0.000 A 
ATOM     28  C   UNL     1       5.622   3.603  14.312  0.00  0.00    +0.000 A 
ATOM     29  C   UNL     1       6.570   4.328  13.595  0.00  0.00    +0.000 A 
ATOM     30  C   UNL     1       7.500   5.112  14.274  0.00  0.00    +0.000 A 
ATOM     31  C   UNL     1       7.467   5.194  15.669  0.00  0.00    +0.000 A 
ENDBRANCH  25  26
ENDBRANCH   6  25
TORSDOF 7
ENDMDL
MODEL 4
REMARK VINA RESULT:      -6.9      2.022      7.880
REMARK  Name = 
REMARK  10 active torsions:
REMARK  status: ('A' for Active; 'I' for Inactive)
REMARK    1  A    between atoms: C_1  and  C_2
REMARK    2  A    between atoms: C_2  and  N_3
REMARK    3  A    between atoms: C_6  and  C_7
REMARK    4  A    between atoms: C_7  and  C_9
REMARK    5  A    between atoms: C_9  and  N_10
REMARK    6  A    between atoms: C_12  and  C_13
REMARK    7  A    between atoms: C_15  and  C_16
REMARK    8  A    between atoms: C_18  and  N_19
REMARK    9  A    between atoms: N_20  and  C_21
REMARK   10  A    between atoms: C_21  and  C_22
REMARK                            x       y       z     vdW  Elec       q    Type
REMARK                         _______ _______ _______ _____ _____    ______ ____
ROOT
ATOM      1  N   UNL     1       3.189   3.620  19.268  0.00  0.00    +0.000 N 
ATOM      2  C   UNL     1       4.551   3.649  19.116  0.00  0.00    +0.000 A 
ATOM      3  O   UNL     1       5.308   2.890  19.716  0.00  0.00    +0.000 OA
ATOM      4  C   UNL     1       5.091   4.661  18.180  0.00  0.00    +0.000 A 
ATOM      5  C   UNL     1       4.339   5.759  17.928  0.00  0.00    +0.000 A 
ATOM      6  N   UNL     1       3.014   5.790  18.364  0.00  0.00    +0.000 N 
ATOM      7  C   UNL     1       2.380   4.692  18.945  0.00  0.00    +0.000 A 
ATOM      8  O   UNL     1       1.167   4.667  19.175  0.00  0.00    +0.000 OA
ENDROOT
BRANCH   5   9
ATOM      9  N   UNL     1       4.822   6.838  17.198  0.00  0.00    +0.000 N 
ATOM     10  H   UNL     1       4.250   7.686  17.322  0.00  0.00    +0.000 HD
ATOM     11  H   UNL     1       4.920   6.626  16.206  0.00  0.00    +0.000 HD
ENDBRANCH   5   9
BRANCH   1  13
ATOM     12  C   UNL     1       2.385   2.761  21.465  0.00  0.00    +0.000 C 
ATOM     13  C   UNL     1       2.597   2.487  19.976  0.00  0.00    +0.000 C 
ENDBRANCH   1  13
BRANCH   4  14
ATOM     14  C   UNL     1       6.451   4.471  17.550  0.00  0.00    +0.000 C 
ATOM     15  O   UNL     1       7.464   4.663  18.232  0.00  0.00    +0.000 OA
BRANCH  14  16
ATOM     16  C   UNL     1       6.496   4.018  16.077  0.00  0.00    +0.000 C 
BRANCH  16  17
ATOM     17  N   UNL     1       5.870   4.948  15.101  0.00  0.00    +0.000 NA
ATOM     18  C   UNL     1       6.841   5.812  14.390  0.00  0.00    +0.000 C 
ATOM     19  C   UNL     1       7.803   5.023  13.481  0.00  0.00    +0.000 C 
ATOM     20  C   UNL     1       8.800   5.960  12.814  0.00  0.00    +0.000 C 
ATOM     21  O   UNL     1       7.059   4.326  12.468  0.00  0.00    +0.000 OA
ATOM     22  C   UNL     1       6.103   3.426  13.062  0.00  0.00    +0.000 C 
ATOM     23  C   UNL     1       5.318   2.764  11.937  0.00  0.00    +0.000 C 
ATOM     24  C   UNL     1       5.159   4.168  14.047  0.00  0.00    +0.000 C 
ENDBRANCH  16  17
ENDBRANCH  14  16
ENDBRANCH   4  14
BRANCH   6  25
ATOM     25  C   UNL     1       2.143   6.914  17.980  0.00  0.00    +0.000 C 
BRANCH  25  26
ATOM     26  C   UNL     1       1.852   7.921  19.078  0.00  0.00    +0.000 A 
ATOM     27  C   UNL     1       1.455   9.224  18.724  0.00  0.00    +0.000 A 
ATOM     28  C   UNL     1       0.996  10.121  19.691  0.00  0.00    +0.000 A 
ATOM     29  C   UNL     1       0.928   9.733  21.026  0.00  0.00    +0.000 A 
ATOM     30  C   UNL     1       1.343   8.456  21.398  0.00  0.00    +0.000 A 
ATOM     31  C   UNL     1       1.800   7.556  20.431  0.00  0.00    +0.000 A 
ENDBRANCH  25  26
ENDBRANCH   6  25
TORSDOF 7
ENDMDL
MODEL 5
REMARK VINA RESULT:      -6.7      2.671      7.980
REMARK  Name = 
REMARK  10 active torsions:
REMARK  status: ('A' for Active; 'I' for Inactive)
REMARK    1  A    between atoms: C_1  and  C_2
REMARK    2  A    between atoms: C_2  and  N_3
REMARK    3  A    between atoms: C_6  and  C_7
REMARK    4  A    between atoms: C_7  and  C_9
REMARK    5  A    between atoms: C_9  and  N_10
REMARK    6  A    between atoms: C_12  and  C_13
REMARK    7  A    between atoms: C_15  and  C_16
REMARK    8  A    between atoms: C_18  and  N_19
REMARK    9  A    between atoms: N_20  and  C_21
REMARK   10  A    between atoms: C_21  and  C_22
REMARK                            x       y       z     vdW  Elec       q    Type
REMARK                         _______ _______ _______ _____ _____    ______ ____
ROOT
ATOM      1  N   UNL     1       0.093   8.982  21.153  0.00  0.00    +0.000 N 
ATOM      2  C   UNL     1       1.246   8.356  20.758  0.00  0.00    +0.000 A 
ATOM      3  O   UNL     1       1.954   7.709  21.526  0.00  0.00    +0.000 OA
ATOM      4  C   UNL     1       1.620   8.493  19.332  0.00  0.00    +0.000 A 
ATOM      5  C   UNL     1       1.138   9.560  18.649  0.00  0.00    +0.000 A 
ATOM      6  N   UNL     1       0.143  10.347  19.231  0.00  0.00    +0.000 N 
ATOM      7  C   UNL     1      -0.473  10.021  20.438  0.00  0.00    +0.000 A 
ATOM      8  O   UNL     1      -1.463  10.622  20.866  0.00  0.00    +0.000 OA
ENDROOT
BRANCH   5   9
ATOM      9  N   UNL     1       1.559   9.869  17.361  0.00  0.00    +0.000 N 
ATOM     10  H   UNL     1       0.865  10.429  16.844  0.00  0.00    +0.000 HD
ATOM     11  H   UNL     1       1.809   9.041  16.823  0.00  0.00    +0.000 HD
ENDBRANCH   5   9
BRANCH   1  13
ATOM     12  C   UNL     1       0.060   9.614  23.563  0.00  0.00    +0.000 C 
ATOM     13  C   UNL     1      -0.446   8.668  22.474  0.00  0.00    +0.000 C 
ENDBRANCH   1  13
BRANCH   4  14
ATOM     14  C   UNL     1       2.528   7.480  18.677  0.00  0.00    +0.000 C 
ATOM     15  O   UNL     1       3.487   7.875  18.004  0.00  0.00    +0.000 OA
BRANCH  14  16
ATOM     16  C   UNL     1       2.217   5.988  18.911  0.00  0.00    +0.000 C 
BRANCH  16  17
ATOM     17  N   UNL     1       3.270   5.219  19.625  0.00  0.00    +0.000 NA
ATOM     18  C   UNL     1       2.775   4.489  20.815  0.00  0.00    +0.000 C 
ATOM     19  C   UNL     1       1.771   3.374  20.468  0.00  0.00    +0.000 C 
ATOM     20  C   UNL     1       1.268   2.692  21.732  0.00  0.00    +0.000 C 
ATOM     21  O   UNL     1       2.397   2.396  19.620  0.00  0.00    +0.000 OA
ATOM     22  C   UNL     1       2.885   3.005  18.409  0.00  0.00    +0.000 C 
ATOM     23  C   UNL     1       3.579   1.927  17.587  0.00  0.00    +0.000 C 
ATOM     24  C   UNL     1       3.845   4.187  18.714  0.00  0.00    +0.000 C 
ENDBRANCH  16  17
ENDBRANCH  14  16
ENDBRANCH   4  14
BRANCH   6  25
ATOM     25  C   UNL     1      -0.487  11.426  18.451  0.00  0.00    +0.000 C 
BRANCH  25  26
ATOM     26  C   UNL     1      -1.808  11.072  17.792  0.00  0.00    +0.000 A 
ATOM     27  C   UNL     1      -2.955  11.821  18.113  0.00  0.00    +0.000 A 
ATOM     28  C   UNL     1      -4.143  11.657  17.396  0.00  0.00    +0.000 A 
ATOM     29  C   UNL     1      -4.204  10.742  16.349  0.00  0.00    +0.000 A 
ATOM     30  C   UNL     1      -3.086   9.973  16.036  0.00  0.00    +0.000 A 
ATOM     31  C   UNL     1      -1.896  10.137  16.751  0.00  0.00    +0.000 A 
ENDBRANCH  25  26
ENDBRANCH   6  25
TORSDOF 7
ENDMDL
MODEL 6
REMARK VINA RESULT:      -6.7      2.175      3.072
REMARK  Name = 
REMARK  10 active torsions:
REMARK  status: ('A' for Active; 'I' for Inactive)
REMARK    1  A    between atoms: C_1  and  C_2
REMARK    2  A    between atoms: C_2  and  N_3
REMARK    3  A    between atoms: C_6  and  C_7
REMARK    4  A    between atoms: C_7  and  C_9
REMARK    5  A    between atoms: C_9  and  N_10
REMARK    6  A    between atoms: C_12  and  C_13
REMARK    7  A    between atoms: C_15  and  C_16
REMARK    8  A    between atoms: C_18  and  N_19
REMARK    9  A    between atoms: N_20  and  C_21
REMARK   10  A    between atoms: C_21  and  C_22
REMARK                            x       y       z     vdW  Elec       q    Type
REMARK                         _______ _______ _______ _____ _____    ______ ____
ROOT
ATOM      1  N   UNL     1       2.341   4.141  19.649  0.00  0.00    +0.000 N 
ATOM      2  C   UNL     1       1.582   5.229  19.991  0.00  0.00    +0.000 A 
ATOM      3  O   UNL     1       0.510   5.138  20.584  0.00  0.00    +0.000 OA
ATOM      4  C   UNL     1       2.115   6.556  19.608  0.00  0.00    +0.000 A 
ATOM      5  C   UNL     1       2.989   6.615  18.574  0.00  0.00    +0.000 A 
ATOM      6  N   UNL     1       3.524   5.429  18.069  0.00  0.00    +0.000 N 
ATOM      7  C   UNL     1       3.299   4.185  18.654  0.00  0.00    +0.000 A 
ATOM      8  O   UNL     1       3.905   3.166  18.308  0.00  0.00    +0.000 OA
ENDROOT
BRANCH   5   9
ATOM      9  N   UNL     1       3.418   7.820  18.032  0.00  0.00    +0.000 N 
ATOM     10  H   UNL     1       4.445   7.913  18.041  0.00  0.00    +0.000 HD
ATOM     11  H   UNL     1       2.992   8.627  18.486  0.00  0.00    +0.000 HD
ENDBRANCH   5   9
BRANCH   1  13
ATOM     12  C   UNL     1       2.553   2.642  21.628  0.00  0.00    +0.000 C 
ATOM     13  C   UNL     1       1.988   2.844  20.222  0.00  0.00    +0.000 C 
ENDBRANCH   1  13
BRANCH   4  14
ATOM     14  C   UNL     1       1.673   7.800  20.341  0.00  0.00    +0.000 C 
ATOM     15  O   UNL     1       1.845   7.873  21.563  0.00  0.00    +0.000 OA
BRANCH  14  16
ATOM     16  C   UNL     1       1.048   8.935  19.506  0.00  0.00    +0.000 C 
BRANCH  16  17
ATOM     17  N   UNL     1       0.271   9.943  20.275  0.00  0.00    +0.000 NA
ATOM     18  C   UNL     1       0.984  11.226  20.471  0.00  0.00    +0.000 C 
ATOM     19  C   UNL     1       1.242  11.984  19.155  0.00  0.00    +0.000 C 
ATOM     20  C   UNL     1       2.014  13.269  19.418  0.00  0.00    +0.000 C 
ATOM     21  O   UNL     1      -0.007  12.305  18.521  0.00  0.00    +0.000 OA
ATOM     22  C   UNL     1      -0.767  11.110  18.253  0.00  0.00    +0.000 C 
ATOM     23  C   UNL     1      -2.095  11.526  17.633  0.00  0.00    +0.000 C 
ATOM     24  C   UNL     1      -0.986  10.274  19.543  0.00  0.00    +0.000 C 
ENDBRANCH  16  17
ENDBRANCH  14  16
ENDBRANCH   4  14
BRANCH   6  25
ATOM     25  C   UNL     1       4.577   5.482  17.039  0.00  0.00    +0.000 C 
BRANCH  25  26
ATOM     26  C   UNL     1       5.942   5.939  17.520  0.00  0.00    +0.000 A 
ATOM     27  C   UNL     1       6.487   7.127  17.001  0.00  0.00    +0.000 A 
ATOM     28  C   UNL     1       7.645   7.684  17.549  0.00  0.00    +0.000 A 
ATOM     29  C   UNL     1       8.278   7.062  18.621  0.00  0.00    +0.000 A 
ATOM     30  C   UNL     1       7.766   5.870  19.129  0.00  0.00    +0.000 A 
ATOM     31  C   UNL     1       6.606   5.312  18.584  0.00  0.00    +0.000 A 
ENDBRANCH  25  26
ENDBRANCH   6  25
TORSDOF 7
ENDMDL
MODEL 7
REMARK VINA RESULT:      -6.7      2.228      3.100
REMARK  Name = 
REMARK  10 active torsions:
REMARK  status: ('A' for Active; 'I' for Inactive)
REMARK    1  A    between atoms: C_1  and  C_2
REMARK    2  A    between atoms: C_2  and  N_3
REMARK    3  A    between atoms: C_6  and  C_7
REMARK    4  A    between atoms: C_7  and  C_9
REMARK    5  A    between atoms: C_9  and  N_10
REMARK    6  A    between atoms: C_12  and  C_13
REMARK    7  A    between atoms: C_15  and  C_16
REMARK    8  A    between atoms: C_18  and  N_19
REMARK    9  A    between atoms: N_20  and  C_21
REMARK   10  A    between atoms: C_21  and  C_22
REMARK                            x       y       z     vdW  Elec       q    Type
REMARK                         _______ _______ _______ _____ _____    ______ ____
ROOT
ATOM      1  N   UNL     1       2.376   4.054  19.624  0.00  0.00    +0.000 N 
ATOM      2  C   UNL     1       1.591   5.091  20.058  0.00  0.00    +0.000 A 
ATOM      3  O   UNL     1       0.545   4.923  20.679  0.00  0.00    +0.000 OA
ATOM      4  C   UNL     1       2.062   6.457  19.738  0.00  0.00    +0.000 A 
ATOM      5  C   UNL     1       2.895   6.611  18.681  0.00  0.00    +0.000 A 
ATOM      6  N   UNL     1       3.454   5.480  18.086  0.00  0.00    +0.000 N 
ATOM      7  C   UNL     1       3.295   4.194  18.602  0.00  0.00    +0.000 A 
ATOM      8  O   UNL     1       3.925   3.222  18.174  0.00  0.00    +0.000 OA
ENDROOT
BRANCH   5   9
ATOM      9  N   UNL     1       3.261   7.863  18.199  0.00  0.00    +0.000 N 
ATOM     10  H   UNL     1       3.850   7.804  17.355  0.00  0.00    +0.000 HD
ATOM     11  H   UNL     1       3.721   8.434  18.907  0.00  0.00    +0.000 HD
ENDBRANCH   5   9
BRANCH   1  13
ATOM     12  C   UNL     1       2.552   2.510  21.572  0.00  0.00    +0.000 C 
ATOM     13  C   UNL     1       2.091   2.713  20.128  0.00  0.00    +0.000 C 
ENDBRANCH   1  13
BRANCH   4  14
ATOM     14  C   UNL     1       1.602   7.638  20.560  0.00  0.00    +0.000 C 
ATOM     15  O   UNL     1       2.162   7.878  21.636  0.00  0.00    +0.000 OA
BRANCH  14  16
ATOM     16  C   UNL     1       0.461   8.503  19.989  0.00  0.00    +0.000 C 
BRANCH  16  17
ATOM     17  N   UNL     1       0.889   9.706  19.228  0.00  0.00    +0.000 NA
ATOM     18  C   UNL     1       0.102   9.946  17.996  0.00  0.00    +0.000 C 
ATOM     19  C   UNL     1      -1.376  10.276  18.275  0.00  0.00    +0.000 C 
ATOM     20  C   UNL     1      -2.138  10.469  16.971  0.00  0.00    +0.000 C 
ATOM     21  O   UNL     1      -1.472  11.476  19.060  0.00  0.00    +0.000 OA
ATOM     22  C   UNL     1      -0.763  11.331  20.306  0.00  0.00    +0.000 C 
ATOM     23  C   UNL     1      -0.861  12.651  21.060  0.00  0.00    +0.000 C 
ATOM     24  C   UNL     1       0.718  10.923  20.074  0.00  0.00    +0.000 C 
ENDBRANCH  16  17
ENDBRANCH  14  16
ENDBRANCH   4  14
BRANCH   6  25
ATOM     25  C   UNL     1       4.466   5.633  17.026  0.00  0.00    +0.000 C 
BRANCH  25  26
ATOM     26  C   UNL     1       5.849   6.046  17.496  0.00  0.00    +0.000 A 
ATOM     27  C   UNL     1       6.411   7.239  17.007  0.00  0.00    +0.000 A 
ATOM     28  C   UNL     1       7.590   7.753  17.551  0.00  0.00    +0.000 A 
ATOM     29  C   UNL     1       8.229   7.082  18.590  0.00  0.00    +0.000 A 
ATOM     30  C   UNL     1       7.701   5.885  19.068  0.00  0.00    +0.000 A 
ATOM     31  C   UNL     1       6.519   5.371  18.527  0.00  0.00    +0.000 A 
ENDBRANCH  25  26
ENDBRANCH   6  25
TORSDOF 7
ENDMDL
MODEL 8
REMARK VINA RESULT:      -6.6      0.876      1.983
REMARK  Name = 
REMARK  10 active torsions:
REMARK  status: ('A' for Active; 'I' for Inactive)
REMARK    1  A    between atoms: C_1  and  C_2
REMARK    2  A    between atoms: C_2  and  N_3
REMARK    3  A    between atoms: C_6  and  C_7
REMARK    4  A    between atoms: C_7  and  C_9
REMARK    5  A    between atoms: C_9  and  N_10
REMARK    6  A    between atoms: C_12  and  C_13
REMARK    7  A    between atoms: C_15  and  C_16
REMARK    8  A    between atoms: C_18  and  N_19
REMARK    9  A    between atoms: N_20  and  C_21
REMARK   10  A    between atoms: C_21  and  C_22
REMARK                            x       y       z     vdW  Elec       q    Type
REMARK                         _______ _______ _______ _____ _____    ______ ____
ROOT
ATOM      1  N   UNL     1       3.211   4.245  19.889  0.00  0.00    +0.000 N 
ATOM      2  C   UNL     1       2.321   5.216  19.510  0.00  0.00    +0.000 A 
ATOM      3  O   UNL     1       1.118   5.151  19.748  0.00  0.00    +0.000 OA
ATOM      4  C   UNL     1       2.877   6.376  18.779  0.00  0.00    +0.000 A 
ATOM      5  C   UNL     1       4.047   6.208  18.116  0.00  0.00    +0.000 A 
ATOM      6  N   UNL     1       4.789   5.046  18.331  0.00  0.00    +0.000 N 
ATOM      7  C   UNL     1       4.447   4.094  19.290  0.00  0.00    +0.000 A 
ATOM      8  O   UNL     1       5.191   3.156  19.594  0.00  0.00    +0.000 OA
ENDROOT
BRANCH   5   9
ATOM      9  N   UNL     1       4.568   7.180  17.270  0.00  0.00    +0.000 N 
ATOM     10  H   UNL     1       3.833   7.707  16.774  0.00  0.00    +0.000 HD
ATOM     11  H   UNL     1       5.234   6.798  16.600  0.00  0.00    +0.000 HD
ENDBRANCH   5   9
BRANCH   1  13
ATOM     12  C   UNL     1       1.908   2.137  20.152  0.00  0.00    +0.000 C 
ATOM     13  C   UNL     1       2.756   3.217  20.823  0.00  0.00    +0.000 C 
ENDBRANCH   1  13
BRANCH   4  14
ATOM     14  C   UNL     1       2.143   7.696  18.763  0.00  0.00    +0.000 C 
ATOM     15  O   UNL     1       2.011   8.300  17.692  0.00  0.00    +0.000 OA
BRANCH  14  16
ATOM     16  C   UNL     1       1.568   8.207  20.098  0.00  0.00    +0.000 C 
BRANCH  16  17
ATOM     17  N   UNL     1       1.639   9.678  20.305  0.00  0.00    +0.000 NA
ATOM     18  C   UNL     1       0.830  10.458  19.341  0.00  0.00    +0.000 C 
ATOM     19  C   UNL     1      -0.684  10.208  19.477  0.00  0.00    +0.000 C 
ATOM     20  C   UNL     1      -1.456  11.003  18.434  0.00  0.00    +0.000 C 
ATOM     21  O   UNL     1      -1.129  10.593  20.789  0.00  0.00    +0.000 OA
ATOM     22  C   UNL     1      -0.421   9.858  21.806  0.00  0.00    +0.000 C 
ATOM     23  C   UNL     1      -0.902  10.353  23.165  0.00  0.00    +0.000 C 
ATOM     24  C   UNL     1       1.117  10.021  21.660  0.00  0.00    +0.000 C 
ENDBRANCH  16  17
ENDBRANCH  14  16
ENDBRANCH   4  14
BRANCH   6  25
ATOM     25  C   UNL     1       6.125   4.907  17.726  0.00  0.00    +0.000 C 
BRANCH  25  26
ATOM     26  C   UNL     1       6.147   4.727  16.219  0.00  0.00    +0.000 A 
ATOM     27  C   UNL     1       7.235   5.234  15.485  0.00  0.00    +0.000 A 
ATOM     28  C   UNL     1       7.391   4.929  14.131  0.00  0.00    +0.000 A 
ATOM     29  C   UNL     1       6.463   4.114  13.489  0.00  0.00    +0.000 A 
ATOM     30  C   UNL     1       5.365   3.626  14.194  0.00  0.00    +0.000 A 
ATOM     31  C   UNL     1       5.208   3.929  15.550  0.00  0.00    +0.000 A 
ENDBRANCH  25  26
ENDBRANCH   6  25
TORSDOF 7
ENDMDL
MODEL 9
REMARK VINA RESULT:      -6.6      2.188      3.260
REMARK  Name = 
REMARK  10 active torsions:
REMARK  status: ('A' for Active; 'I' for Inactive)
REMARK    1  A    between atoms: C_1  and  C_2
REMARK    2  A    between atoms: C_2  and  N_3
REMARK    3  A    between atoms: C_6  and  C_7
REMARK    4  A    between atoms: C_7  and  C_9
REMARK    5  A    between atoms: C_9  and  N_10
REMARK    6  A    between atoms: C_12  and  C_13
REMARK    7  A    between atoms: C_15  and  C_16
REMARK    8  A    between atoms: C_18  and  N_19
REMARK    9  A    between atoms: N_20  and  C_21
REMARK   10  A    between atoms: C_21  and  C_22
REMARK                            x       y       z     vdW  Elec       q    Type
REMARK                         _______ _______ _______ _____ _____    ______ ____
ROOT
ATOM      1  N   UNL     1       3.097   3.447  17.769  0.00  0.00    +0.000 N 
ATOM      2  C   UNL     1       2.176   4.106  18.540  0.00  0.00    +0.000 A 
ATOM      3  O   UNL     1       1.124   3.592  18.912  0.00  0.00    +0.000 OA
ATOM      4  C   UNL     1       2.503   5.499  18.918  0.00  0.00    +0.000 A 
ATOM      5  C   UNL     1       3.369   6.184  18.133  0.00  0.00    +0.000 A 
ATOM      6  N   UNL     1       4.086   5.497  17.153  0.00  0.00    +0.000 N 
ATOM      7  C   UNL     1       4.049   4.110  17.017  0.00  0.00    +0.000 A 
ATOM      8  O   UNL     1       4.808   3.493  16.264  0.00  0.00    +0.000 OA
ENDROOT
BRANCH   5   9
ATOM      9  N   UNL     1       3.614   7.541  18.305  0.00  0.00    +0.000 N 
ATOM     10  H   UNL     1       2.994   7.968  19.008  0.00  0.00    +0.000 HD
ATOM     11  H   UNL     1       3.560   8.061  17.430  0.00  0.00    +0.000 HD
ENDBRANCH   5   9
BRANCH   1  13
ATOM     12  C   UNL     1       3.749   1.188  18.593  0.00  0.00    +0.000 C 
ATOM     13  C   UNL     1       2.941   2.006  17.586  0.00  0.00    +0.000 C 
ENDBRANCH   1  13
BRANCH   4  14
ATOM     14  C   UNL     1       1.866   6.133  20.132  0.00  0.00    +0.000 C 
ATOM     15  O   UNL     1       2.109   5.670  21.252  0.00  0.00    +0.000 OA
BRANCH  14  16
ATOM     16  C   UNL     1       0.957   7.357  19.903  0.00  0.00    +0.000 C 
BRANCH  16  17
ATOM     17  N   UNL     1       1.558   8.674  20.242  0.00  0.00    +0.000 NA
ATOM     18  C   UNL     1       1.069   9.790  19.399  0.00  0.00    +0.000 C 
ATOM     19  C   UNL     1      -0.431  10.084  19.592  0.00  0.00    +0.000 C 
ATOM     20  C   UNL     1      -0.880  11.209  18.671  0.00  0.00    +0.000 C 
ATOM     21  O   UNL     1      -0.685  10.461  20.957  0.00  0.00    +0.000 OA
ATOM     22  C   UNL     1      -0.273   9.418  21.861  0.00  0.00    +0.000 C 
ATOM     23  C   UNL     1      -0.521   9.904  23.284  0.00  0.00    +0.000 C 
ATOM     24  C   UNL     1       1.217   9.035  21.648  0.00  0.00    +0.000 C 
ENDBRANCH  16  17
ENDBRANCH  14  16
ENDBRANCH   4  14
BRANCH   6  25
ATOM     25  C   UNL     1       5.130   6.196  16.383  0.00  0.00    +0.000 C 
BRANCH  25  26
ATOM     26  C   UNL     1       6.386   6.553  17.157  0.00  0.00    +0.000 A 
ATOM     27  C   UNL     1       6.930   7.843  17.022  0.00  0.00    +0.000 A 
ATOM     28  C   UNL     1       7.966   8.276  17.852  0.00  0.00    +0.000 A 
ATOM     29  C   UNL     1       8.478   7.426  18.829  0.00  0.00    +0.000 A 
ATOM     30  C   UNL     1       7.969   6.135  18.958  0.00  0.00    +0.000 A 
ATOM     31  C   UNL     1       6.930   5.702  18.129  0.00  0.00    +0.000 A 
ENDBRANCH  25  26
ENDBRANCH   6  25
TORSDOF 7
ENDMDL
