MODEL 1
REMARK VINA RESULT:      -7.6      0.000      0.000
REMARK  Name = 
REMARK  13 active torsions:
REMARK  status: ('A' for Active; 'I' for Inactive)
REMARK    1  A    between atoms: C_1  and  C_2
REMARK    2  A    between atoms: C_2  and  O_3
REMARK    3  A    between atoms: O_3  and  C_4
REMARK    4  A    between atoms: C_4  and  C_6
REMARK    5  A    between atoms: C_12  and  C_13
REMARK    6  A    between atoms: C_16  and  O_17
REMARK    7  A    between atoms: O_17  and  C_18
REMARK    8  A    between atoms: C_23  and  C_24
REMARK    9  A    between atoms: C_24  and  N_25
REMARK   10  A    between atoms: N_25  and  C_26
REMARK   11  A    between atoms: N_25  and  C_27
REMARK   12  A    between atoms: C_27  and  C_28
REMARK   13  A    between atoms: C_30  and  C_31
REMARK                            x       y       z     vdW  Elec       q    Type
REMARK                         _______ _______ _______ _____ _____    ______ ____
ROOT
ATOM      1  C   UNL     1       5.510   4.568  16.124  0.00  0.00    +0.000 A 
ATOM      2  C   UNL     1       4.647   3.474  16.313  0.00  0.00    +0.000 A 
ATOM      3  N   UNL     1       3.733   3.694  17.254  0.00  0.00    +0.000 NA
ATOM      4  N   UNL     1       3.939   4.985  17.640  0.00  0.00    +0.000 N 
ATOM      5  C   UNL     1       3.150   5.513  18.678  0.00  0.00    +0.000 A 
ATOM      6  N   UNL     1       2.931   6.799  18.883  0.00  0.00    +0.000 NA
ATOM      7  C   UNL     1       2.089   6.954  19.979  0.00  0.00    +0.000 A 
ATOM      8  C   UNL     1       1.874   5.793  20.697  0.00  0.00    +0.000 A 
ATOM      9  S   UNL     1       2.508   4.446  19.847  0.00  0.00    +0.000 S 
ATOM     10  C   UNL     1       4.952   5.581  16.897  0.00  0.00    +0.000 A 
ENDROOT
BRANCH   7  11
ATOM     11  C   UNL     1       1.492   8.241  20.329  0.00  0.00    +0.000 A 
ATOM     12  C   UNL     1       1.067   8.499  21.640  0.00  0.00    +0.000 A 
ATOM     13  C   UNL     1       0.477   9.719  21.975  0.00  0.00    +0.000 A 
ATOM     14  C   UNL     1       0.312  10.711  21.011  0.00  0.00    +0.000 A 
ATOM     15  C   UNL     1       0.701  10.459  19.695  0.00  0.00    +0.000 A 
ATOM     16  C   UNL     1       1.282   9.227  19.356  0.00  0.00    +0.000 A 
BRANCH  14  17
ATOM     17  O   UNL     1      -0.289  11.855  21.458  0.00  0.00    +0.000 OA
ATOM     18  C   UNL     1       0.448  13.056  21.258  0.00  0.00    +0.000 C 
ENDBRANCH  14  17
ENDBRANCH   7  11
BRANCH   1  19
ATOM     19  C   UNL     1       6.721   4.550  15.322  0.00  0.00    +0.000 C 
ATOM     20  O   UNL     1       7.834   4.482  15.822  0.00  0.00    +0.000 OA
BRANCH  19  21
ATOM     21  O   UNL     1       6.472   4.815  14.008  0.00  0.00    +0.000 OA
BRANCH  21  23
ATOM     22  C   UNL     1       5.136   3.501  12.454  0.00  0.00    +0.000 C 
ATOM     23  C   UNL     1       6.487   3.697  13.109  0.00  0.00    +0.000 C 
ENDBRANCH  21  23
ENDBRANCH  19  21
ENDBRANCH   1  19
BRANCH  10  24
ATOM     24  C   UNL     1       5.365   6.997  17.118  0.00  0.00    +0.000 C 
BRANCH  24  25
ATOM     25  N   UNL     1       6.470   7.147  18.079  0.00  0.00    +0.000 NA
ATOM     26  C   UNL     1       6.783   5.874  18.739  0.00  0.00    +0.000 C 
BRANCH  25  27
ATOM     27  C   UNL     1       7.691   7.655  17.408  0.00  0.00    +0.000 C 
BRANCH  27  28
ATOM     28  C   UNL     1       8.230   8.900  18.022  0.00  0.00    +0.000 A 
ATOM     29  C   UNL     1       9.053   9.159  19.092  0.00  0.00    +0.000 A 
ATOM     30  C   UNL     1       9.275  10.553  19.030  0.00  0.00    +0.000 A 
ATOM     31  C   UNL     1      10.169  11.378  19.870  0.00  0.00    +0.000 C 
ATOM     32  N   UNL     1       8.567  11.116  18.045  0.00  0.00    +0.000 NA
ATOM     33  O   UNL     1       7.907  10.074  17.416  0.00  0.00    +0.000 OA
ENDBRANCH  27  28
ENDBRANCH  25  27
ENDBRANCH  24  25
ENDBRANCH  10  24
TORSDOF 9
ENDMDL
MODEL 2
REMARK VINA RESULT:      -7.3      0.559      1.045
REMARK  Name = 
REMARK  13 active torsions:
REMARK  status: ('A' for Active; 'I' for Inactive)
REMARK    1  A    between atoms: C_1  and  C_2
REMARK    2  A    between atoms: C_2  and  O_3
REMARK    3  A    between atoms: O_3  and  C_4
REMARK    4  A    between atoms: C_4  and  C_6
REMARK    5  A    between atoms: C_12  and  C_13
REMARK    6  A    between atoms: C_16  and  O_17
REMARK    7  A    between atoms: O_17  and  C_18
REMARK    8  A    between atoms: C_23  and  C_24
REMARK    9  A    between atoms: C_24  and  N_25
REMARK   10  A    between atoms: N_25  and  C_26
REMARK   11  A    between atoms: N_25  and  C_27
REMARK   12  A    between atoms: C_27  and  C_28
REMARK   13  A    between atoms: C_30  and  C_31
REMARK                            x       y       z     vdW  Elec       q    Type
REMARK                         _______ _______ _______ _____ _____    ______ ____
ROOT
ATOM      1  C   UNL     1       5.398   4.571  15.990  0.00  0.00    +0.000 A 
ATOM      2  C   UNL     1       4.536   3.482  16.206  0.00  0.00    +0.000 A 
ATOM      3  N   UNL     1       3.654   3.706  17.176  0.00  0.00    +0.000 NA
ATOM      4  N   UNL     1       3.879   4.995  17.557  0.00  0.00    +0.000 N 
ATOM      5  C   UNL     1       3.128   5.526  18.620  0.00  0.00    +0.000 A 
ATOM      6  N   UNL     1       2.922   6.813  18.833  0.00  0.00    +0.000 NA
ATOM      7  C   UNL     1       2.116   6.972  19.955  0.00  0.00    +0.000 A 
ATOM      8  C   UNL     1       1.919   5.812  20.679  0.00  0.00    +0.000 A 
ATOM      9  S   UNL     1       2.517   4.462  19.808  0.00  0.00    +0.000 S 
ATOM     10  C   UNL     1       4.871   5.587  16.782  0.00  0.00    +0.000 A 
ENDROOT
BRANCH   7  11
ATOM     11  C   UNL     1       1.538   8.262  20.325  0.00  0.00    +0.000 A 
ATOM     12  C   UNL     1       1.313   9.248  19.354  0.00  0.00    +0.000 A 
ATOM     13  C   UNL     1       0.780  10.490  19.705  0.00  0.00    +0.000 A 
ATOM     14  C   UNL     1       0.450  10.768  21.030  0.00  0.00    +0.000 A 
ATOM     15  C   UNL     1       0.698   9.808  22.012  0.00  0.00    +0.000 A 
ATOM     16  C   UNL     1       1.245   8.565  21.661  0.00  0.00    +0.000 A 
BRANCH  14  17
ATOM     17  O   UNL     1      -0.051  12.021  21.249  0.00  0.00    +0.000 OA
ATOM     18  C   UNL     1      -1.083  12.110  22.224  0.00  0.00    +0.000 C 
ENDBRANCH  14  17
ENDBRANCH   7  11
BRANCH   1  19
ATOM     19  C   UNL     1       6.582   4.548  15.150  0.00  0.00    +0.000 C 
ATOM     20  O   UNL     1       7.380   5.473  15.119  0.00  0.00    +0.000 OA
BRANCH  19  21
ATOM     21  O   UNL     1       6.578   3.496  14.283  0.00  0.00    +0.000 OA
BRANCH  21  23
ATOM     22  C   UNL     1       7.118   4.011  11.965  0.00  0.00    +0.000 C 
ATOM     23  C   UNL     1       6.028   3.735  12.979  0.00  0.00    +0.000 C 
ENDBRANCH  21  23
ENDBRANCH  19  21
ENDBRANCH   1  19
BRANCH  10  24
ATOM     24  C   UNL     1       5.298   7.001  16.990  0.00  0.00    +0.000 C 
BRANCH  24  25
ATOM     25  N   UNL     1       6.404   7.148  17.951  0.00  0.00    +0.000 NA
ATOM     26  C   UNL     1       6.745   5.864  18.576  0.00  0.00    +0.000 C 
BRANCH  25  27
ATOM     27  C   UNL     1       7.612   7.698  17.289  0.00  0.00    +0.000 C 
BRANCH  27  28
ATOM     28  C   UNL     1       8.165   8.901  17.971  0.00  0.00    +0.000 A 
ATOM     29  C   UNL     1       8.938   9.093  19.092  0.00  0.00    +0.000 A 
ATOM     30  C   UNL     1       9.218  10.478  19.087  0.00  0.00    +0.000 A 
ATOM     31  C   UNL     1      10.096  11.240  20.000  0.00  0.00    +0.000 C 
ATOM     32  N   UNL     1       8.588  11.099  18.084  0.00  0.00    +0.000 NA
ATOM     33  O   UNL     1       7.922  10.105  17.387  0.00  0.00    +0.000 OA
ENDBRANCH  27  28
ENDBRANCH  25  27
ENDBRANCH  24  25
ENDBRANCH  10  24
TORSDOF 9
ENDMDL
MODEL 3
REMARK VINA RESULT:      -7.2      0.935      1.276
REMARK  Name = 
REMARK  13 active torsions:
REMARK  status: ('A' for Active; 'I' for Inactive)
REMARK    1  A    between atoms: C_1  and  C_2
REMARK    2  A    between atoms: C_2  and  O_3
REMARK    3  A    between atoms: O_3  and  C_4
REMARK    4  A    between atoms: C_4  and  C_6
REMARK    5  A    between atoms: C_12  and  C_13
REMARK    6  A    between atoms: C_16  and  O_17
REMARK    7  A    between atoms: O_17  and  C_18
REMARK    8  A    between atoms: C_23  and  C_24
REMARK    9  A    between atoms: C_24  and  N_25
REMARK   10  A    between atoms: N_25  and  C_26
REMARK   11  A    between atoms: N_25  and  C_27
REMARK   12  A    between atoms: C_27  and  C_28
REMARK   13  A    between atoms: C_30  and  C_31
REMARK                            x       y       z     vdW  Elec       q    Type
REMARK                         _______ _______ _______ _____ _____    ______ ____
ROOT
ATOM      1  C   UNL     1       5.401   4.317  16.343  0.00  0.00    +0.000 A 
ATOM      2  C   UNL     1       4.520   3.256  16.615  0.00  0.00    +0.000 A 
ATOM      3  N   UNL     1       3.608   3.564  17.533  0.00  0.00    +0.000 NA
ATOM      4  N   UNL     1       3.835   4.878  17.817  0.00  0.00    +0.000 N 
ATOM      5  C   UNL     1       3.054   5.500  18.807  0.00  0.00    +0.000 A 
ATOM      6  N   UNL     1       2.856   6.801  18.910  0.00  0.00    +0.000 NA
ATOM      7  C   UNL     1       2.015   7.056  19.987  0.00  0.00    +0.000 A 
ATOM      8  C   UNL     1       1.779   5.960  20.794  0.00  0.00    +0.000 A 
ATOM      9  S   UNL     1       2.392   4.539  20.055  0.00  0.00    +0.000 S 
ATOM     10  C   UNL     1       4.860   5.397  17.032  0.00  0.00    +0.000 A 
ENDROOT
BRANCH   7  11
ATOM     11  C   UNL     1       1.439   8.377  20.233  0.00  0.00    +0.000 A 
ATOM     12  C   UNL     1       1.298   9.300  19.187  0.00  0.00    +0.000 A 
ATOM     13  C   UNL     1       0.768  10.571  19.420  0.00  0.00    +0.000 A 
ATOM     14  C   UNL     1       0.357  10.941  20.698  0.00  0.00    +0.000 A 
ATOM     15  C   UNL     1       0.521  10.045  21.755  0.00  0.00    +0.000 A 
ATOM     16  C   UNL     1       1.065   8.772  21.524  0.00  0.00    +0.000 A 
BRANCH  14  17
ATOM     17  O   UNL     1      -0.132  12.213  20.801  0.00  0.00    +0.000 OA
ATOM     18  C   UNL     1      -0.254  12.927  19.576  0.00  0.00    +0.000 C 
ENDBRANCH  14  17
ENDBRANCH   7  11
BRANCH   1  19
ATOM     19  C   UNL     1       6.613   4.216  15.548  0.00  0.00    +0.000 C 
ATOM     20  O   UNL     1       7.721   4.431  16.017  0.00  0.00    +0.000 OA
BRANCH  19  21
ATOM     21  O   UNL     1       6.346   4.059  14.220  0.00  0.00    +0.000 OA
BRANCH  21  23
ATOM     22  C   UNL     1       7.148   4.117  11.922  0.00  0.00    +0.000 C 
ATOM     23  C   UNL     1       7.218   4.735  13.303  0.00  0.00    +0.000 C 
ENDBRANCH  21  23
ENDBRANCH  19  21
ENDBRANCH   1  19
BRANCH  10  24
ATOM     24  C   UNL     1       5.295   6.820  17.142  0.00  0.00    +0.000 C 
BRANCH  24  25
ATOM     25  N   UNL     1       6.390   7.029  18.104  0.00  0.00    +0.000 NA
ATOM     26  C   UNL     1       6.633   5.826  18.910  0.00  0.00    +0.000 C 
BRANCH  25  27
ATOM     27  C   UNL     1       7.644   7.405  17.409  0.00  0.00    +0.000 C 
BRANCH  27  28
ATOM     28  C   UNL     1       8.229   8.686  17.894  0.00  0.00    +0.000 A 
ATOM     29  C   UNL     1       8.224   9.978  17.423  0.00  0.00    +0.000 A 
ATOM     30  C   UNL     1       8.849  10.723  18.447  0.00  0.00    +0.000 A 
ATOM     31  C   UNL     1       9.029  12.188  18.537  0.00  0.00    +0.000 C 
ATOM     32  N   UNL     1       9.284   9.929  19.432  0.00  0.00    +0.000 NA
ATOM     33  O   UNL     1       8.897   8.648  19.078  0.00  0.00    +0.000 OA
ENDBRANCH  27  28
ENDBRANCH  25  27
ENDBRANCH  24  25
ENDBRANCH  10  24
TORSDOF 9
ENDMDL
MODEL 4
REMARK VINA RESULT:      -6.7      5.647      9.354
REMARK  Name = 
REMARK  13 active torsions:
REMARK  status: ('A' for Active; 'I' for Inactive)
REMARK    1  A    between atoms: C_1  and  C_2
REMARK    2  A    between atoms: C_2  and  O_3
REMARK    3  A    between atoms: O_3  and  C_4
REMARK    4  A    between atoms: C_4  and  C_6
REMARK    5  A    between atoms: C_12  and  C_13
REMARK    6  A    between atoms: C_16  and  O_17
REMARK    7  A    between atoms: O_17  and  C_18
REMARK    8  A    between atoms: C_23  and  C_24
REMARK    9  A    between atoms: C_24  and  N_25
REMARK   10  A    between atoms: N_25  and  C_26
REMARK   11  A    between atoms: N_25  and  C_27
REMARK   12  A    between atoms: C_27  and  C_28
REMARK   13  A    between atoms: C_30  and  C_31
REMARK                            x       y       z     vdW  Elec       q    Type
REMARK                         _______ _______ _______ _____ _____    ______ ____
ROOT
ATOM      1  C   UNL     1      -3.409  11.201  17.282  0.00  0.00    +0.000 A 
ATOM      2  C   UNL     1      -4.700  11.745  17.163  0.00  0.00    +0.000 A 
ATOM      3  N   UNL     1      -5.126  12.314  18.287  0.00  0.00    +0.000 NA
ATOM      4  N   UNL     1      -4.070  12.221  19.144  0.00  0.00    +0.000 N 
ATOM      5  C   UNL     1      -4.223  12.695  20.458  0.00  0.00    +0.000 A 
ATOM      6  N   UNL     1      -3.232  13.055  21.254  0.00  0.00    +0.000 NA
ATOM      7  C   UNL     1      -3.750  13.494  22.467  0.00  0.00    +0.000 A 
ATOM      8  C   UNL     1      -5.100  13.249  22.628  0.00  0.00    +0.000 A 
ATOM      9  S   UNL     1      -5.784  12.710  21.151  0.00  0.00    +0.000 S 
ATOM     10  C   UNL     1      -2.968  11.636  18.528  0.00  0.00    +0.000 A 
ENDROOT
BRANCH   7  11
ATOM     11  C   UNL     1      -2.925  14.155  23.475  0.00  0.00    +0.000 A 
ATOM     12  C   UNL     1      -1.600  14.516  23.189  0.00  0.00    +0.000 A 
ATOM     13  C   UNL     1      -0.800  15.129  24.155  0.00  0.00    +0.000 A 
ATOM     14  C   UNL     1      -1.310  15.405  25.422  0.00  0.00    +0.000 A 
ATOM     15  C   UNL     1      -2.615  15.024  25.732  0.00  0.00    +0.000 A 
ATOM     16  C   UNL     1      -3.415  14.396  24.765  0.00  0.00    +0.000 A 
BRANCH  14  17
ATOM     17  O   UNL     1      -0.426  15.995  26.283  0.00  0.00    +0.000 OA
ATOM     18  C   UNL     1       0.014  17.297  25.917  0.00  0.00    +0.000 C 
ENDBRANCH  14  17
ENDBRANCH   7  11
BRANCH   1  19
ATOM     19  C   UNL     1      -2.767  10.347  16.299  0.00  0.00    +0.000 C 
ATOM     20  O   UNL     1      -2.033   9.422  16.617  0.00  0.00    +0.000 OA
BRANCH  19  21
ATOM     21  O   UNL     1      -2.917  10.819  15.029  0.00  0.00    +0.000 OA
BRANCH  21  23
ATOM     22  C   UNL     1      -2.933   9.600  12.921  0.00  0.00    +0.000 C 
ATOM     23  C   UNL     1      -3.722  10.033  14.139  0.00  0.00    +0.000 C 
ENDBRANCH  21  23
ENDBRANCH  19  21
ENDBRANCH   1  19
BRANCH  10  24
ATOM     24  C   UNL     1      -1.678  11.429  19.249  0.00  0.00    +0.000 C 
BRANCH  24  25
ATOM     25  N   UNL     1      -0.507  11.952  18.525  0.00  0.00    +0.000 NA
ATOM     26  C   UNL     1      -0.600  13.405  18.335  0.00  0.00    +0.000 C 
BRANCH  25  27
ATOM     27  C   UNL     1       0.748  11.640  19.250  0.00  0.00    +0.000 C 
BRANCH  27  28
ATOM     28  C   UNL     1       1.226  10.247  19.034  0.00  0.00    +0.000 A 
ATOM     29  C   UNL     1       1.812   9.591  17.976  0.00  0.00    +0.000 A 
ATOM     30  C   UNL     1       2.140   8.319  18.495  0.00  0.00    +0.000 A 
ATOM     31  C   UNL     1       2.885   7.225  17.837  0.00  0.00    +0.000 C 
ATOM     32  N   UNL     1       1.707   8.179  19.752  0.00  0.00    +0.000 NA
ATOM     33  O   UNL     1       1.128   9.391  20.086  0.00  0.00    +0.000 OA
ENDBRANCH  27  28
ENDBRANCH  25  27
ENDBRANCH  24  25
ENDBRANCH  10  24
TORSDOF 9
ENDMDL
MODEL 5
REMARK VINA RESULT:      -6.5      3.198      9.617
REMARK  Name = 
REMARK  13 active torsions:
REMARK  status: ('A' for Active; 'I' for Inactive)
REMARK    1  A    between atoms: C_1  and  C_2
REMARK    2  A    between atoms: C_2  and  O_3
REMARK    3  A    between atoms: O_3  and  C_4
REMARK    4  A    between atoms: C_4  and  C_6
REMARK    5  A    between atoms: C_12  and  C_13
REMARK    6  A    between atoms: C_16  and  O_17
REMARK    7  A    between atoms: O_17  and  C_18
REMARK    8  A    between atoms: C_23  and  C_24
REMARK    9  A    between atoms: C_24  and  N_25
REMARK   10  A    between atoms: N_25  and  C_26
REMARK   11  A    between atoms: N_25  and  C_27
REMARK   12  A    between atoms: C_27  and  C_28
REMARK   13  A    between atoms: C_30  and  C_31
REMARK                            x       y       z     vdW  Elec       q    Type
REMARK                         _______ _______ _______ _____ _____    ______ ____
ROOT
ATOM      1  C   UNL     1       0.243  10.570  21.744  0.00  0.00    +0.000 A 
ATOM      2  C   UNL     1       0.405   9.674  22.816  0.00  0.00    +0.000 A 
ATOM      3  N   UNL     1       0.913   8.504  22.440  0.00  0.00    +0.000 NA
ATOM      4  N   UNL     1       1.172   8.653  21.110  0.00  0.00    +0.000 N 
ATOM      5  C   UNL     1       1.678   7.553  20.394  0.00  0.00    +0.000 A 
ATOM      6  N   UNL     1       2.350   7.632  19.259  0.00  0.00    +0.000 NA
ATOM      7  C   UNL     1       2.716   6.355  18.850  0.00  0.00    +0.000 A 
ATOM      8  C   UNL     1       2.123   5.337  19.572  0.00  0.00    +0.000 A 
ATOM      9  S   UNL     1       1.316   5.977  20.943  0.00  0.00    +0.000 S 
ATOM     10  C   UNL     1       0.868   9.938  20.674  0.00  0.00    +0.000 A 
ENDROOT
BRANCH   7  11
ATOM     11  C   UNL     1       3.646   6.125  17.747  0.00  0.00    +0.000 A 
ATOM     12  C   UNL     1       3.981   4.821  17.355  0.00  0.00    +0.000 A 
ATOM     13  C   UNL     1       4.886   4.596  16.315  0.00  0.00    +0.000 A 
ATOM     14  C   UNL     1       5.464   5.667  15.638  0.00  0.00    +0.000 A 
ATOM     15  C   UNL     1       5.164   6.970  16.037  0.00  0.00    +0.000 A 
ATOM     16  C   UNL     1       4.266   7.197  17.091  0.00  0.00    +0.000 A 
BRANCH  14  17
ATOM     17  O   UNL     1       6.341   5.319  14.649  0.00  0.00    +0.000 OA
ATOM     18  C   UNL     1       6.215   3.991  14.154  0.00  0.00    +0.000 C 
ENDBRANCH  14  17
ENDBRANCH   7  11
BRANCH   1  19
ATOM     19  C   UNL     1      -0.471  11.832  21.809  0.00  0.00    +0.000 C 
ATOM     20  O   UNL     1       0.078  12.878  22.124  0.00  0.00    +0.000 OA
BRANCH  19  21
ATOM     21  O   UNL     1      -1.818  11.669  21.679  0.00  0.00    +0.000 OA
BRANCH  21  23
ATOM     22  C   UNL     1      -4.078  12.577  21.663  0.00  0.00    +0.000 C 
ATOM     23  C   UNL     1      -2.646  12.755  22.122  0.00  0.00    +0.000 C 
ENDBRANCH  21  23
ENDBRANCH  19  21
ENDBRANCH   1  19
BRANCH  10  24
ATOM     24  C   UNL     1       1.072  10.361  19.258  0.00  0.00    +0.000 C 
BRANCH  24  25
ATOM     25  N   UNL     1       0.616  11.733  18.980  0.00  0.00    +0.000 NA
ATOM     26  C   UNL     1       1.748  12.662  18.872  0.00  0.00    +0.000 C 
BRANCH  25  27
ATOM     27  C   UNL     1      -0.173  11.786  17.725  0.00  0.00    +0.000 C 
BRANCH  27  28
ATOM     28  C   UNL     1      -1.560  11.266  17.875  0.00  0.00    +0.000 A 
ATOM     29  C   UNL     1      -2.742  11.811  18.318  0.00  0.00    +0.000 A 
ATOM     30  C   UNL     1      -3.704  10.810  18.060  0.00  0.00    +0.000 A 
ATOM     31  C   UNL     1      -5.171  10.879  18.236  0.00  0.00    +0.000 C 
ATOM     32  N   UNL     1      -3.135   9.700  17.577  0.00  0.00    +0.000 NA
ATOM     33  O   UNL     1      -1.786   9.989  17.467  0.00  0.00    +0.000 OA
ENDBRANCH  27  28
ENDBRANCH  25  27
ENDBRANCH  24  25
ENDBRANCH  10  24
TORSDOF 9
ENDMDL
MODEL 6
REMARK VINA RESULT:      -6.4      3.283      9.936
REMARK  Name = 
REMARK  13 active torsions:
REMARK  status: ('A' for Active; 'I' for Inactive)
REMARK    1  A    between atoms: C_1  and  C_2
REMARK    2  A    between atoms: C_2  and  O_3
REMARK    3  A    between atoms: O_3  and  C_4
REMARK    4  A    between atoms: C_4  and  C_6
REMARK    5  A    between atoms: C_12  and  C_13
REMARK    6  A    between atoms: C_16  and  O_17
REMARK    7  A    between atoms: O_17  and  C_18
REMARK    8  A    between atoms: C_23  and  C_24
REMARK    9  A    between atoms: C_24  and  N_25
REMARK   10  A    between atoms: N_25  and  C_26
REMARK   11  A    between atoms: N_25  and  C_27
REMARK   12  A    between atoms: C_27  and  C_28
REMARK   13  A    between atoms: C_30  and  C_31
REMARK                            x       y       z     vdW  Elec       q    Type
REMARK                         _______ _______ _______ _____ _____    ______ ____
ROOT
ATOM      1  C   UNL     1       0.166  10.818  21.468  0.00  0.00    +0.000 A 
ATOM      2  C   UNL     1       0.371  10.007  22.597  0.00  0.00    +0.000 A 
ATOM      3  N   UNL     1       0.913   8.830  22.297  0.00  0.00    +0.000 NA
ATOM      4  N   UNL     1       1.150   8.892  20.955  0.00  0.00    +0.000 N 
ATOM      5  C   UNL     1       1.683   7.762  20.311  0.00  0.00    +0.000 A 
ATOM      6  N   UNL     1       2.337   7.781  19.164  0.00  0.00    +0.000 NA
ATOM      7  C   UNL     1       2.739   6.490  18.840  0.00  0.00    +0.000 A 
ATOM      8  C   UNL     1       2.190   5.508  19.641  0.00  0.00    +0.000 A 
ATOM      9  S   UNL     1       1.380   6.217  20.976  0.00  0.00    +0.000 S 
ATOM     10  C   UNL     1       0.797  10.133  20.435  0.00  0.00    +0.000 A 
ENDROOT
BRANCH   7  11
ATOM     11  C   UNL     1       3.662   6.213  17.742  0.00  0.00    +0.000 A 
ATOM     12  C   UNL     1       3.878   4.898  17.305  0.00  0.00    +0.000 A 
ATOM     13  C   UNL     1       4.775   4.626  16.270  0.00  0.00    +0.000 A 
ATOM     14  C   UNL     1       5.464   5.661  15.642  0.00  0.00    +0.000 A 
ATOM     15  C   UNL     1       5.283   6.971  16.086  0.00  0.00    +0.000 A 
ATOM     16  C   UNL     1       4.392   7.244  17.135  0.00  0.00    +0.000 A 
BRANCH  14  17
ATOM     17  O   UNL     1       6.321   5.266  14.653  0.00  0.00    +0.000 OA
ATOM     18  C   UNL     1       6.320   3.875  14.356  0.00  0.00    +0.000 C 
ENDBRANCH  14  17
ENDBRANCH   7  11
BRANCH   1  19
ATOM     19  C   UNL     1      -0.590  12.059  21.454  0.00  0.00    +0.000 C 
ATOM     20  O   UNL     1      -0.078  13.132  21.169  0.00  0.00    +0.000 OA
BRANCH  19  21
ATOM     21  O   UNL     1      -1.839  11.907  21.979  0.00  0.00    +0.000 OA
BRANCH  21  23
ATOM     22  C   UNL     1      -3.447  12.310  23.763  0.00  0.00    +0.000 C 
ATOM     23  C   UNL     1      -2.201  12.792  23.048  0.00  0.00    +0.000 C 
ENDBRANCH  21  23
ENDBRANCH  19  21
ENDBRANCH   1  19
BRANCH  10  24
ATOM     24  C   UNL     1       0.969  10.460  18.990  0.00  0.00    +0.000 C 
BRANCH  24  25
ATOM     25  N   UNL     1      -0.277  10.361  18.210  0.00  0.00    +0.000 NA
ATOM     26  C   UNL     1      -1.202   9.386  18.800  0.00  0.00    +0.000 C 
BRANCH  25  27
ATOM     27  C   UNL     1      -0.955  11.678  18.124  0.00  0.00    +0.000 C 
BRANCH  27  28
ATOM     28  C   UNL     1      -2.404  11.577  17.797  0.00  0.00    +0.000 A 
ATOM     29  C   UNL     1      -3.561  11.759  18.518  0.00  0.00    +0.000 A 
ATOM     30  C   UNL     1      -4.590  11.645  17.558  0.00  0.00    +0.000 A 
ATOM     31  C   UNL     1      -6.042  11.855  17.740  0.00  0.00    +0.000 C 
ATOM     32  N   UNL     1      -4.101  11.330  16.354  0.00  0.00    +0.000 NA
ATOM     33  O   UNL     1      -2.726  11.282  16.510  0.00  0.00    +0.000 OA
ENDBRANCH  27  28
ENDBRANCH  25  27
ENDBRANCH  24  25
ENDBRANCH  10  24
TORSDOF 9
ENDMDL
MODEL 7
REMARK VINA RESULT:      -6.4      5.774      9.489
REMARK  Name = 
REMARK  13 active torsions:
REMARK  status: ('A' for Active; 'I' for Inactive)
REMARK    1  A    between atoms: C_1  and  C_2
REMARK    2  A    between atoms: C_2  and  O_3
REMARK    3  A    between atoms: O_3  and  C_4
REMARK    4  A    between atoms: C_4  and  C_6
REMARK    5  A    between atoms: C_12  and  C_13
REMARK    6  A    between atoms: C_16  and  O_17
REMARK    7  A    between atoms: O_17  and  C_18
REMARK    8  A    between atoms: C_23  and  C_24
REMARK    9  A    between atoms: C_24  and  N_25
REMARK   10  A    between atoms: N_25  and  C_26
REMARK   11  A    between atoms: N_25  and  C_27
REMARK   12  A    between atoms: C_27  and  C_28
REMARK   13  A    between atoms: C_30  and  C_31
REMARK                            x       y       z     vdW  Elec       q    Type
REMARK                         _______ _______ _______ _____ _____    ______ ____
ROOT
ATOM      1  C   UNL     1      -3.415  10.920  17.541  0.00  0.00    +0.000 A 
ATOM      2  C   UNL     1      -4.724  11.382  17.321  0.00  0.00    +0.000 A 
ATOM      3  N   UNL     1      -5.207  12.075  18.349  0.00  0.00    +0.000 NA
ATOM      4  N   UNL     1      -4.173  12.146  19.234  0.00  0.00    +0.000 N 
ATOM      5  C   UNL     1      -4.384  12.783  20.469  0.00  0.00    +0.000 A 
ATOM      6  N   UNL     1      -3.433  13.292  21.232  0.00  0.00    +0.000 NA
ATOM      7  C   UNL     1      -4.005  13.863  22.363  0.00  0.00    +0.000 A 
ATOM      8  C   UNL     1      -5.347  13.578  22.525  0.00  0.00    +0.000 A 
ATOM      9  S   UNL     1      -5.964  12.817  21.118  0.00  0.00    +0.000 S 
ATOM     10  C   UNL     1      -3.029  11.537  18.727  0.00  0.00    +0.000 A 
ENDROOT
BRANCH   7  11
ATOM     11  C   UNL     1      -3.238  14.691  23.292  0.00  0.00    +0.000 A 
ATOM     12  C   UNL     1      -3.180  14.367  24.655  0.00  0.00    +0.000 A 
ATOM     13  C   UNL     1      -2.466  15.165  25.551  0.00  0.00    +0.000 A 
ATOM     14  C   UNL     1      -1.786  16.295  25.102  0.00  0.00    +0.000 A 
ATOM     15  C   UNL     1      -1.860  16.648  23.754  0.00  0.00    +0.000 A 
ATOM     16  C   UNL     1      -2.589  15.853  22.856  0.00  0.00    +0.000 A 
BRANCH  14  17
ATOM     17  O   UNL     1      -1.135  17.001  26.075  0.00  0.00    +0.000 OA
ATOM     18  C   UNL     1      -1.436  18.390  26.134  0.00  0.00    +0.000 C 
ENDBRANCH  14  17
ENDBRANCH   7  11
BRANCH   1  19
ATOM     19  C   UNL     1      -2.708   9.974  16.697  0.00  0.00    +0.000 C 
ATOM     20  O   UNL     1      -1.536   9.680  16.883  0.00  0.00    +0.000 OA
BRANCH  19  21
ATOM     21  O   UNL     1      -3.431   9.627  15.594  0.00  0.00    +0.000 OA
BRANCH  21  23
ATOM     22  C   UNL     1      -3.959   9.892  13.231  0.00  0.00    +0.000 C 
ATOM     23  C   UNL     1      -2.929  10.075  14.326  0.00  0.00    +0.000 C 
ENDBRANCH  21  23
ENDBRANCH  19  21
ENDBRANCH   1  19
BRANCH  10  24
ATOM     24  C   UNL     1      -1.753  11.488  19.499  0.00  0.00    +0.000 C 
BRANCH  24  25
ATOM     25  N   UNL     1      -0.597  12.025  18.761  0.00  0.00    +0.000 NA
ATOM     26  C   UNL     1      -0.692  13.482  18.603  0.00  0.00    +0.000 C 
BRANCH  25  27
ATOM     27  C   UNL     1       0.673  11.698  19.454  0.00  0.00    +0.000 C 
BRANCH  27  28
ATOM     28  C   UNL     1       1.173  10.327  19.156  0.00  0.00    +0.000 A 
ATOM     29  C   UNL     1       1.785   9.748  18.069  0.00  0.00    +0.000 A 
ATOM     30  C   UNL     1       2.121   8.449  18.511  0.00  0.00    +0.000 A 
ATOM     31  C   UNL     1       2.892   7.408  17.798  0.00  0.00    +0.000 C 
ATOM     32  N   UNL     1       1.668   8.223  19.749  0.00  0.00    +0.000 NA
ATOM     33  O   UNL     1       1.067   9.404  20.149  0.00  0.00    +0.000 OA
ENDBRANCH  27  28
ENDBRANCH  25  27
ENDBRANCH  24  25
ENDBRANCH  10  24
TORSDOF 9
ENDMDL
MODEL 8
REMARK VINA RESULT:      -6.4      3.213      9.078
REMARK  Name = 
REMARK  13 active torsions:
REMARK  status: ('A' for Active; 'I' for Inactive)
REMARK    1  A    between atoms: C_1  and  C_2
REMARK    2  A    between atoms: C_2  and  O_3
REMARK    3  A    between atoms: O_3  and  C_4
REMARK    4  A    between atoms: C_4  and  C_6
REMARK    5  A    between atoms: C_12  and  C_13
REMARK    6  A    between atoms: C_16  and  O_17
REMARK    7  A    between atoms: O_17  and  C_18
REMARK    8  A    between atoms: C_23  and  C_24
REMARK    9  A    between atoms: C_24  and  N_25
REMARK   10  A    between atoms: N_25  and  C_26
REMARK   11  A    between atoms: N_25  and  C_27
REMARK   12  A    between atoms: C_27  and  C_28
REMARK   13  A    between atoms: C_30  and  C_31
REMARK                            x       y       z     vdW  Elec       q    Type
REMARK                         _______ _______ _______ _____ _____    ______ ____
ROOT
ATOM      1  C   UNL     1       0.038  10.470  21.561  0.00  0.00    +0.000 A 
ATOM      2  C   UNL     1       0.303   9.663  22.681  0.00  0.00    +0.000 A 
ATOM      3  N   UNL     1       0.896   8.516  22.363  0.00  0.00    +0.000 NA
ATOM      4  N   UNL     1       1.104   8.597  21.018  0.00  0.00    +0.000 N 
ATOM      5  C   UNL     1       1.679   7.498  20.356  0.00  0.00    +0.000 A 
ATOM      6  N   UNL     1       2.309   7.556  19.197  0.00  0.00    +0.000 NA
ATOM      7  C   UNL     1       2.768   6.288  18.857  0.00  0.00    +0.000 A 
ATOM      8  C   UNL     1       2.283   5.275  19.662  0.00  0.00    +0.000 A 
ATOM      9  S   UNL     1       1.465   5.937  21.016  0.00  0.00    +0.000 S 
ATOM     10  C   UNL     1       0.682   9.823  20.512  0.00  0.00    +0.000 A 
ENDROOT
BRANCH   7  11
ATOM     11  C   UNL     1       3.683   6.062  17.740  0.00  0.00    +0.000 A 
ATOM     12  C   UNL     1       4.300   7.143  17.093  0.00  0.00    +0.000 A 
ATOM     13  C   UNL     1       5.158   6.934  16.011  0.00  0.00    +0.000 A 
ATOM     14  C   UNL     1       5.427   5.643  15.562  0.00  0.00    +0.000 A 
ATOM     15  C   UNL     1       4.796   4.560  16.176  0.00  0.00    +0.000 A 
ATOM     16  C   UNL     1       3.923   4.771  17.254  0.00  0.00    +0.000 A 
BRANCH  14  17
ATOM     17  O   UNL     1       6.272   5.570  14.490  0.00  0.00    +0.000 OA
ATOM     18  C   UNL     1       6.955   4.333  14.327  0.00  0.00    +0.000 C 
ENDBRANCH  14  17
ENDBRANCH   7  11
BRANCH   1  19
ATOM     19  C   UNL     1      -0.777  11.673  21.569  0.00  0.00    +0.000 C 
ATOM     20  O   UNL     1      -1.704  11.839  20.790  0.00  0.00    +0.000 OA
BRANCH  19  21
ATOM     21  O   UNL     1      -0.265  12.636  22.386  0.00  0.00    +0.000 OA
BRANCH  21  23
ATOM     22  C   UNL     1      -1.008  14.607  23.609  0.00  0.00    +0.000 C 
ATOM     23  C   UNL     1      -0.816  13.954  22.256  0.00  0.00    +0.000 C 
ENDBRANCH  21  23
ENDBRANCH  19  21
ENDBRANCH   1  19
BRANCH  10  24
ATOM     24  C   UNL     1       0.810  10.166  19.066  0.00  0.00    +0.000 C 
BRANCH  24  25
ATOM     25  N   UNL     1       1.439  11.475  18.824  0.00  0.00    +0.000 NA
ATOM     26  C   UNL     1       2.587  11.358  17.915  0.00  0.00    +0.000 C 
BRANCH  25  27
ATOM     27  C   UNL     1       0.465  12.434  18.249  0.00  0.00    +0.000 C 
BRANCH  27  28
ATOM     28  C   UNL     1       0.595  13.811  18.800  0.00  0.00    +0.000 A 
ATOM     29  C   UNL     1       1.630  14.523  19.361  0.00  0.00    +0.000 A 
ATOM     30  C   UNL     1       1.103  15.822  19.534  0.00  0.00    +0.000 A 
ATOM     31  C   UNL     1       1.800  17.039  20.002  0.00  0.00    +0.000 C 
ATOM     32  N   UNL     1      -0.187  15.876  19.186  0.00  0.00    +0.000 NA
ATOM     33  O   UNL     1      -0.505  14.608  18.730  0.00  0.00    +0.000 OA
ENDBRANCH  27  28
ENDBRANCH  25  27
ENDBRANCH  24  25
ENDBRANCH  10  24
TORSDOF 9
ENDMDL
MODEL 9
REMARK VINA RESULT:      -6.3      6.745     11.620
REMARK  Name = 
REMARK  13 active torsions:
REMARK  status: ('A' for Active; 'I' for Inactive)
REMARK    1  A    between atoms: C_1  and  C_2
REMARK    2  A    between atoms: C_2  and  O_3
REMARK    3  A    between atoms: O_3  and  C_4
REMARK    4  A    between atoms: C_4  and  C_6
REMARK    5  A    between atoms: C_12  and  C_13
REMARK    6  A    between atoms: C_16  and  O_17
REMARK    7  A    between atoms: O_17  and  C_18
REMARK    8  A    between atoms: C_23  and  C_24
REMARK    9  A    between atoms: C_24  and  N_25
REMARK   10  A    between atoms: N_25  and  C_26
REMARK   11  A    between atoms: N_25  and  C_27
REMARK   12  A    between atoms: C_27  and  C_28
REMARK   13  A    between atoms: C_30  and  C_31
REMARK                            x       y       z     vdW  Elec       q    Type
REMARK                         _______ _______ _______ _____ _____    ______ ____
ROOT
ATOM      1  C   UNL     1      -1.999  15.362  23.606  0.00  0.00    +0.000 A 
ATOM      2  C   UNL     1      -2.904  14.603  24.369  0.00  0.00    +0.000 A 
ATOM      3  N   UNL     1      -3.637  13.776  23.629  0.00  0.00    +0.000 NA
ATOM      4  N   UNL     1      -3.154  13.926  22.363  0.00  0.00    +0.000 N 
ATOM      5  C   UNL     1      -3.765  13.211  21.318  0.00  0.00    +0.000 A 
ATOM      6  N   UNL     1      -3.194  12.921  20.163  0.00  0.00    +0.000 NA
ATOM      7  C   UNL     1      -4.079  12.185  19.382  0.00  0.00    +0.000 A 
ATOM      8  C   UNL     1      -5.365  12.129  19.884  0.00  0.00    +0.000 A 
ATOM      9  S   UNL     1      -5.408  12.769  21.475  0.00  0.00    +0.000 S 
ATOM     10  C   UNL     1      -2.083  14.814  22.330  0.00  0.00    +0.000 A 
ENDROOT
BRANCH   7  11
ATOM     11  C   UNL     1      -3.669  11.536  18.139  0.00  0.00    +0.000 A 
ATOM     12  C   UNL     1      -4.470  11.621  16.991  0.00  0.00    +0.000 A 
ATOM     13  C   UNL     1      -4.093  10.985  15.806  0.00  0.00    +0.000 A 
ATOM     14  C   UNL     1      -2.904  10.262  15.741  0.00  0.00    +0.000 A 
ATOM     15  C   UNL     1      -2.113  10.142  16.883  0.00  0.00    +0.000 A 
ATOM     16  C   UNL     1      -2.498  10.770  18.078  0.00  0.00    +0.000 A 
BRANCH  14  17
ATOM     17  O   UNL     1      -2.652   9.676  14.532  0.00  0.00    +0.000 OA
ATOM     18  C   UNL     1      -3.594   9.958  13.502  0.00  0.00    +0.000 C 
ENDBRANCH  14  17
ENDBRANCH   7  11
BRANCH   1  19
ATOM     19  C   UNL     1      -1.220  16.483  24.102  0.00  0.00    +0.000 C 
ATOM     20  O   UNL     1      -1.492  17.641  23.822  0.00  0.00    +0.000 OA
BRANCH  19  21
ATOM     21  O   UNL     1      -0.075  16.081  24.723  0.00  0.00    +0.000 OA
BRANCH  21  23
ATOM     22  C   UNL     1      -0.154  16.293  27.148  0.00  0.00    +0.000 C 
ATOM     23  C   UNL     1       0.361  16.864  25.843  0.00  0.00    +0.000 C 
ENDBRANCH  21  23
ENDBRANCH  19  21
ENDBRANCH   1  19
BRANCH  10  24
ATOM     24  C   UNL     1      -1.369  15.143  21.063  0.00  0.00    +0.000 C 
BRANCH  24  25
ATOM     25  N   UNL     1      -0.037  14.522  20.958  0.00  0.00    +0.000 NA
ATOM     26  C   UNL     1       1.005  15.392  21.517  0.00  0.00    +0.000 C 
BRANCH  25  27
ATOM     27  C   UNL     1      -0.003  13.216  21.659  0.00  0.00    +0.000 C 
BRANCH  27  28
ATOM     28  C   UNL     1       0.271  12.065  20.755  0.00  0.00    +0.000 A 
ATOM     29  C   UNL     1       0.879  11.938  19.528  0.00  0.00    +0.000 A 
ATOM     30  C   UNL     1       0.930  10.544  19.308  0.00  0.00    +0.000 A 
ATOM     31  C   UNL     1       1.572   9.813  18.194  0.00  0.00    +0.000 C 
ATOM     32  N   UNL     1       0.319   9.873  20.290  0.00  0.00    +0.000 NA
ATOM     33  O   UNL     1      -0.099  10.834  21.196  0.00  0.00    +0.000 OA
ENDBRANCH  27  28
ENDBRANCH  25  27
ENDBRANCH  24  25
ENDBRANCH  10  24
TORSDOF 9
ENDMDL
