MODEL 1
REMARK VINA RESULT:      -6.7      0.000      0.000
REMARK  Name = 
REMARK  5 active torsions:
REMARK  status: ('A' for Active; 'I' for Inactive)
REMARK    1  A    between atoms: C_1  and  N_2
REMARK    2  A    between atoms: C_6  and  S_7
REMARK    3  A    between atoms: S_7  and  C_8
REMARK    4  A    between atoms: C_8  and  C_9
REMARK    5  A    between atoms: C_12  and  N_13
REMARK                            x       y       z     vdW  Elec       q    Type
REMARK                         _______ _______ _______ _____ _____    ______ ____
ROOT
ATOM      1  C   UNL     1       5.397   5.353  17.983  0.00  0.00    +0.000 A 
ATOM      2  C   UNL     1       4.770   5.925  16.862  0.00  0.00    +0.000 A 
ATOM      3  C   UNL     1       5.316   5.782  15.583  0.00  0.00    +0.000 A 
ATOM      4  C   UNL     1       6.511   5.074  15.417  0.00  0.00    +0.000 A 
ATOM      5  C   UNL     1       7.169   4.526  16.524  0.00  0.00    +0.000 A 
ATOM      6  C   UNL     1       6.610   4.668  17.800  0.00  0.00    +0.000 A 
ENDROOT
BRANCH   4   7
ATOM      7  N   UNL     1       7.076   4.902  14.071  0.00  0.00    +0.000 N 
ATOM      8  O   UNL     1       8.040   5.614  13.754  0.00  0.00    +0.000 OA
ATOM      9  O   UNL     1       6.554   4.057  13.328  0.00  0.00    +0.000 OA
ENDBRANCH   4   7
BRANCH   1  10
ATOM     10  C   UNL     1       4.787   5.496  19.367  0.00  0.00    +0.000 C 
BRANCH  10  11
ATOM     11  S   UNL     1       3.012   5.914  19.297  0.00  0.00    +0.000 S 
BRANCH  11  17
ATOM     12  C   UNL     1       2.295   3.199  17.717  0.00  0.00    +0.000 C 
ATOM     13  N   UNL     1       2.056   3.357  19.129  0.00  0.00    +0.000 N 
ATOM     14  C   UNL     1       1.516   2.393  19.943  0.00  0.00    +0.000 A 
ATOM     15  C   UNL     1       1.451   2.972  21.187  0.00  0.00    +0.000 A 
ATOM     16  N   UNL     1       1.938   4.255  21.156  0.00  0.00    +0.000 NA
ATOM     17  C   UNL     1       2.301   4.458  19.910  0.00  0.00    +0.000 A 
ENDBRANCH  11  17
ENDBRANCH  10  11
ENDBRANCH   1  10
TORSDOF 4
ENDMDL
MODEL 2
REMARK VINA RESULT:      -6.5      0.621      1.632
REMARK  Name = 
REMARK  5 active torsions:
REMARK  status: ('A' for Active; 'I' for Inactive)
REMARK    1  A    between atoms: C_1  and  N_2
REMARK    2  A    between atoms: C_6  and  S_7
REMARK    3  A    between atoms: S_7  and  C_8
REMARK    4  A    between atoms: C_8  and  C_9
REMARK    5  A    between atoms: C_12  and  N_13
REMARK                            x       y       z     vdW  Elec       q    Type
REMARK                         _______ _______ _______ _____ _____    ______ ____
ROOT
ATOM      1  C   UNL     1       5.356   5.314  18.030  0.00  0.00    +0.000 A 
ATOM      2  C   UNL     1       4.727   5.882  16.908  0.00  0.00    +0.000 A 
ATOM      3  C   UNL     1       5.284   5.756  15.632  0.00  0.00    +0.000 A 
ATOM      4  C   UNL     1       6.493   5.069  15.470  0.00  0.00    +0.000 A 
ATOM      5  C   UNL     1       7.152   4.526  16.579  0.00  0.00    +0.000 A 
ATOM      6  C   UNL     1       6.582   4.651  17.852  0.00  0.00    +0.000 A 
ENDROOT
BRANCH   4   7
ATOM      7  N   UNL     1       7.069   4.914  14.128  0.00  0.00    +0.000 N 
ATOM      8  O   UNL     1       6.550   4.081  13.370  0.00  0.00    +0.000 OA
ATOM      9  O   UNL     1       8.043   5.621  13.831  0.00  0.00    +0.000 OA
ENDBRANCH   4   7
BRANCH   1  10
ATOM     10  C   UNL     1       4.734   5.439  19.411  0.00  0.00    +0.000 C 
BRANCH  10  11
ATOM     11  S   UNL     1       2.968   5.893  19.331  0.00  0.00    +0.000 S 
BRANCH  11  17
ATOM     12  C   UNL     1       2.226   3.753  21.622  0.00  0.00    +0.000 C 
ATOM     13  N   UNL     1       1.952   3.518  20.227  0.00  0.00    +0.000 N 
ATOM     14  C   UNL     1       1.353   2.387  19.728  0.00  0.00    +0.000 A 
ATOM     15  C   UNL     1       1.311   2.577  18.368  0.00  0.00    +0.000 A 
ATOM     16  N   UNL     1       1.860   3.788  18.026  0.00  0.00    +0.000 NA
ATOM     17  C   UNL     1       2.230   4.334  19.161  0.00  0.00    +0.000 A 
ENDBRANCH  11  17
ENDBRANCH  10  11
ENDBRANCH   1  10
TORSDOF 4
ENDMDL
MODEL 3
REMARK VINA RESULT:      -6.5      0.914      1.491
REMARK  Name = 
REMARK  5 active torsions:
REMARK  status: ('A' for Active; 'I' for Inactive)
REMARK    1  A    between atoms: C_1  and  N_2
REMARK    2  A    between atoms: C_6  and  S_7
REMARK    3  A    between atoms: S_7  and  C_8
REMARK    4  A    between atoms: C_8  and  C_9
REMARK    5  A    between atoms: C_12  and  N_13
REMARK                            x       y       z     vdW  Elec       q    Type
REMARK                         _______ _______ _______ _____ _____    ______ ____
ROOT
ATOM      1  C   UNL     1       5.684   4.425  17.854  0.00  0.00    +0.000 A 
ATOM      2  C   UNL     1       6.979   4.913  17.603  0.00  0.00    +0.000 A 
ATOM      3  C   UNL     1       7.460   5.034  16.296  0.00  0.00    +0.000 A 
ATOM      4  C   UNL     1       6.649   4.649  15.223  0.00  0.00    +0.000 A 
ATOM      5  C   UNL     1       5.370   4.128  15.453  0.00  0.00    +0.000 A 
ATOM      6  C   UNL     1       4.894   4.018  16.765  0.00  0.00    +0.000 A 
ENDROOT
BRANCH   4   7
ATOM      7  N   UNL     1       7.142   4.797  13.847  0.00  0.00    +0.000 N 
ATOM      8  O   UNL     1       6.630   4.084  12.971  0.00  0.00    +0.000 OA
ATOM      9  O   UNL     1       8.044   5.622  13.640  0.00  0.00    +0.000 OA
ENDBRANCH   4   7
BRANCH   1  10
ATOM     10  C   UNL     1       5.162   4.314  19.277  0.00  0.00    +0.000 C 
BRANCH  10  11
ATOM     11  S   UNL     1       3.766   5.448  19.586  0.00  0.00    +0.000 S 
BRANCH  11  17
ATOM     12  C   UNL     1       1.460   4.136  17.759  0.00  0.00    +0.000 C 
ATOM     13  N   UNL     1       1.601   3.833  19.161  0.00  0.00    +0.000 N 
ATOM     14  C   UNL     1       0.794   2.968  19.859  0.00  0.00    +0.000 A 
ATOM     15  C   UNL     1       1.270   2.999  21.147  0.00  0.00    +0.000 A 
ATOM     16  N   UNL     1       2.341   3.850  21.254  0.00  0.00    +0.000 NA
ATOM     17  C   UNL     1       2.523   4.331  20.045  0.00  0.00    +0.000 A 
ENDBRANCH  11  17
ENDBRANCH  10  11
ENDBRANCH   1  10
TORSDOF 4
ENDMDL
MODEL 4
REMARK VINA RESULT:      -6.5      0.682      2.004
REMARK  Name = 
REMARK  5 active torsions:
REMARK  status: ('A' for Active; 'I' for Inactive)
REMARK    1  A    between atoms: C_1  and  N_2
REMARK    2  A    between atoms: C_6  and  S_7
REMARK    3  A    between atoms: S_7  and  C_8
REMARK    4  A    between atoms: C_8  and  C_9
REMARK    5  A    between atoms: C_12  and  N_13
REMARK                            x       y       z     vdW  Elec       q    Type
REMARK                         _______ _______ _______ _____ _____    ______ ____
ROOT
ATOM      1  C   UNL     1       5.356   5.187  17.951  0.00  0.00    +0.000 A 
ATOM      2  C   UNL     1       6.653   4.668  17.788  0.00  0.00    +0.000 A 
ATOM      3  C   UNL     1       7.238   4.579  16.521  0.00  0.00    +0.000 A 
ATOM      4  C   UNL     1       6.517   4.996  15.397  0.00  0.00    +0.000 A 
ATOM      5  C   UNL     1       5.212   5.484  15.533  0.00  0.00    +0.000 A 
ATOM      6  C   UNL     1       4.638   5.577  16.807  0.00  0.00    +0.000 A 
ENDROOT
BRANCH   4   7
ATOM      7  N   UNL     1       7.136   4.926  14.066  0.00  0.00    +0.000 N 
ATOM      8  O   UNL     1       6.643   4.142  13.241  0.00  0.00    +0.000 OA
ATOM      9  O   UNL     1       8.118   5.650  13.846  0.00  0.00    +0.000 OA
ENDBRANCH   4   7
BRANCH   1  10
ATOM     10  C   UNL     1       4.736   5.299  19.333  0.00  0.00    +0.000 C 
BRANCH  10  11
ATOM     11  S   UNL     1       3.012   5.896  19.267  0.00  0.00    +0.000 S 
BRANCH  11  17
ATOM     12  C   UNL     1       2.293   3.842  21.643  0.00  0.00    +0.000 C 
ATOM     13  N   UNL     1       1.889   3.616  20.278  0.00  0.00    +0.000 N 
ATOM     14  C   UNL     1       1.166   2.533  19.845  0.00  0.00    +0.000 A 
ATOM     15  C   UNL     1       1.028   2.714  18.490  0.00  0.00    +0.000 A 
ATOM     16  N   UNL     1       1.641   3.874  18.086  0.00  0.00    +0.000 NA
ATOM     17  C   UNL     1       2.143   4.399  19.181  0.00  0.00    +0.000 A 
ENDBRANCH  11  17
ENDBRANCH  10  11
ENDBRANCH   1  10
TORSDOF 4
ENDMDL
MODEL 5
REMARK VINA RESULT:      -6.5      1.321      1.518
REMARK  Name = 
REMARK  5 active torsions:
REMARK  status: ('A' for Active; 'I' for Inactive)
REMARK    1  A    between atoms: C_1  and  N_2
REMARK    2  A    between atoms: C_6  and  S_7
REMARK    3  A    between atoms: S_7  and  C_8
REMARK    4  A    between atoms: C_8  and  C_9
REMARK    5  A    between atoms: C_12  and  N_13
REMARK                            x       y       z     vdW  Elec       q    Type
REMARK                         _______ _______ _______ _____ _____    ______ ____
ROOT
ATOM      1  C   UNL     1       5.593   4.458  17.753  0.00  0.00    +0.000 A 
ATOM      2  C   UNL     1       4.766   4.431  16.616  0.00  0.00    +0.000 A 
ATOM      3  C   UNL     1       5.305   4.570  15.333  0.00  0.00    +0.000 A 
ATOM      4  C   UNL     1       6.683   4.756  15.178  0.00  0.00    +0.000 A 
ATOM      5  C   UNL     1       7.519   4.821  16.300  0.00  0.00    +0.000 A 
ATOM      6  C   UNL     1       6.971   4.672  17.580  0.00  0.00    +0.000 A 
ENDROOT
BRANCH   4   7
ATOM      7  N   UNL     1       7.255   4.880  13.831  0.00  0.00    +0.000 N 
ATOM      8  O   UNL     1       6.783   4.164  12.935  0.00  0.00    +0.000 OA
ATOM      9  O   UNL     1       8.180   5.689  13.667  0.00  0.00    +0.000 OA
ENDBRANCH   4   7
BRANCH   1  10
ATOM     10  C   UNL     1       5.002   4.286  19.142  0.00  0.00    +0.000 C 
BRANCH  10  11
ATOM     11  S   UNL     1       4.494   2.563  19.465  0.00  0.00    +0.000 S 
BRANCH  11  17
ATOM     12  C   UNL     1       1.668   3.332  18.123  0.00  0.00    +0.000 C 
ATOM     13  N   UNL     1       1.818   3.119  19.541  0.00  0.00    +0.000 N 
ATOM     14  C   UNL     1       0.799   3.210  20.457  0.00  0.00    +0.000 A 
ATOM     15  C   UNL     1       1.388   2.955  21.671  0.00  0.00    +0.000 A 
ATOM     16  N   UNL     1       2.730   2.707  21.522  0.00  0.00    +0.000 NA
ATOM     17  C   UNL     1       2.959   2.805  20.233  0.00  0.00    +0.000 A 
ENDBRANCH  11  17
ENDBRANCH  10  11
ENDBRANCH   1  10
TORSDOF 4
ENDMDL
MODEL 6
REMARK VINA RESULT:      -6.4      1.743      2.630
REMARK  Name = 
REMARK  5 active torsions:
REMARK  status: ('A' for Active; 'I' for Inactive)
REMARK    1  A    between atoms: C_1  and  N_2
REMARK    2  A    between atoms: C_6  and  S_7
REMARK    3  A    between atoms: S_7  and  C_8
REMARK    4  A    between atoms: C_8  and  C_9
REMARK    5  A    between atoms: C_12  and  N_13
REMARK                            x       y       z     vdW  Elec       q    Type
REMARK                         _______ _______ _______ _____ _____    ______ ____
ROOT
ATOM      1  C   UNL     1       3.853   6.150  18.532  0.00  0.00    +0.000 A 
ATOM      2  C   UNL     1       4.714   5.376  19.330  0.00  0.00    +0.000 A 
ATOM      3  C   UNL     1       5.909   4.868  18.814  0.00  0.00    +0.000 A 
ATOM      4  C   UNL     1       6.247   5.118  17.480  0.00  0.00    +0.000 A 
ATOM      5  C   UNL     1       5.388   5.858  16.658  0.00  0.00    +0.000 A 
ATOM      6  C   UNL     1       4.196   6.369  17.187  0.00  0.00    +0.000 A 
ENDROOT
BRANCH   4   7
ATOM      7  N   UNL     1       7.514   4.606  16.940  0.00  0.00    +0.000 N 
ATOM      8  O   UNL     1       8.325   4.116  17.739  0.00  0.00    +0.000 OA
ATOM      9  O   UNL     1       7.701   4.696  15.717  0.00  0.00    +0.000 OA
ENDBRANCH   4   7
BRANCH   1  10
ATOM     10  C   UNL     1       2.565   6.715  19.106  0.00  0.00    +0.000 C 
BRANCH  10  11
ATOM     11  S   UNL     1       1.934   5.714  20.496  0.00  0.00    +0.000 S 
BRANCH  11  17
ATOM     12  C   UNL     1       2.383   2.760  21.700  0.00  0.00    +0.000 C 
ATOM     13  N   UNL     1       1.913   2.983  20.356  0.00  0.00    +0.000 N 
ATOM     14  C   UNL     1       1.604   1.990  19.461  0.00  0.00    +0.000 A 
ATOM     15  C   UNL     1       1.224   2.647  18.316  0.00  0.00    +0.000 A 
ATOM     16  N   UNL     1       1.287   4.008  18.489  0.00  0.00    +0.000 NA
ATOM     17  C   UNL     1       1.697   4.181  19.724  0.00  0.00    +0.000 A 
ENDBRANCH  11  17
ENDBRANCH  10  11
ENDBRANCH   1  10
TORSDOF 4
ENDMDL
MODEL 7
REMARK VINA RESULT:      -6.3      1.241      1.815
REMARK  Name = 
REMARK  5 active torsions:
REMARK  status: ('A' for Active; 'I' for Inactive)
REMARK    1  A    between atoms: C_1  and  N_2
REMARK    2  A    between atoms: C_6  and  S_7
REMARK    3  A    between atoms: S_7  and  C_8
REMARK    4  A    between atoms: C_8  and  C_9
REMARK    5  A    between atoms: C_12  and  N_13
REMARK                            x       y       z     vdW  Elec       q    Type
REMARK                         _______ _______ _______ _____ _____    ______ ____
ROOT
ATOM      1  C   UNL     1       5.510   4.758  17.797  0.00  0.00    +0.000 A 
ATOM      2  C   UNL     1       4.723   5.061  16.672  0.00  0.00    +0.000 A 
ATOM      3  C   UNL     1       5.289   5.120  15.394  0.00  0.00    +0.000 A 
ATOM      4  C   UNL     1       6.659   4.889  15.234  0.00  0.00    +0.000 A 
ATOM      5  C   UNL     1       7.467   4.619  16.345  0.00  0.00    +0.000 A 
ATOM      6  C   UNL     1       6.890   4.554  17.620  0.00  0.00    +0.000 A 
ENDROOT
BRANCH   4   7
ATOM      7  N   UNL     1       7.253   4.926  13.891  0.00  0.00    +0.000 N 
ATOM      8  O   UNL     1       8.194   5.710  13.697  0.00  0.00    +0.000 OA
ATOM      9  O   UNL     1       6.776   4.176  13.026  0.00  0.00    +0.000 OA
ENDBRANCH   4   7
BRANCH   1  10
ATOM     10  C   UNL     1       4.885   4.677  19.179  0.00  0.00    +0.000 C 
BRANCH  10  11
ATOM     11  S   UNL     1       4.594   2.953  19.703  0.00  0.00    +0.000 S 
BRANCH  11  17
ATOM     12  C   UNL     1       2.164   3.405  21.769  0.00  0.00    +0.000 C 
ATOM     13  N   UNL     1       1.949   3.036  20.392  0.00  0.00    +0.000 N 
ATOM     14  C   UNL     1       0.717   2.847  19.817  0.00  0.00    +0.000 A 
ATOM     15  C   UNL     1       0.982   2.491  18.517  0.00  0.00    +0.000 A 
ATOM     16  N   UNL     1       2.334   2.463  18.283  0.00  0.00    +0.000 NA
ATOM     17  C   UNL     1       2.890   2.801  19.423  0.00  0.00    +0.000 A 
ENDBRANCH  11  17
ENDBRANCH  10  11
ENDBRANCH   1  10
TORSDOF 4
ENDMDL
MODEL 8
REMARK VINA RESULT:      -6.3      1.434      2.079
REMARK  Name = 
REMARK  5 active torsions:
REMARK  status: ('A' for Active; 'I' for Inactive)
REMARK    1  A    between atoms: C_1  and  N_2
REMARK    2  A    between atoms: C_6  and  S_7
REMARK    3  A    between atoms: S_7  and  C_8
REMARK    4  A    between atoms: C_8  and  C_9
REMARK    5  A    between atoms: C_12  and  N_13
REMARK                            x       y       z     vdW  Elec       q    Type
REMARK                         _______ _______ _______ _____ _____    ______ ____
ROOT
ATOM      1  C   UNL     1       5.449   4.568  17.771  0.00  0.00    +0.000 A 
ATOM      2  C   UNL     1       6.589   5.367  17.569  0.00  0.00    +0.000 A 
ATOM      3  C   UNL     1       7.172   5.480  16.303  0.00  0.00    +0.000 A 
ATOM      4  C   UNL     1       6.625   4.776  15.225  0.00  0.00    +0.000 A 
ATOM      5  C   UNL     1       5.511   3.948  15.411  0.00  0.00    +0.000 A 
ATOM      6  C   UNL     1       4.929   3.848  16.681  0.00  0.00    +0.000 A 
ENDROOT
BRANCH   4   7
ATOM      7  N   UNL     1       7.220   4.910  13.889  0.00  0.00    +0.000 N 
ATOM      8  O   UNL     1       8.166   5.702  13.756  0.00  0.00    +0.000 OA
ATOM      9  O   UNL     1       6.742   4.229  12.970  0.00  0.00    +0.000 OA
ENDBRANCH   4   7
BRANCH   1  10
ATOM     10  C   UNL     1       4.810   4.466  19.145  0.00  0.00    +0.000 C 
BRANCH  10  11
ATOM     11  S   UNL     1       4.463   2.737  19.615  0.00  0.00    +0.000 S 
BRANCH  11  17
ATOM     12  C   UNL     1       2.186   3.551  21.744  0.00  0.00    +0.000 C 
ATOM     13  N   UNL     1       1.871   3.071  20.422  0.00  0.00    +0.000 N 
ATOM     14  C   UNL     1       0.600   2.915  19.929  0.00  0.00    +0.000 A 
ATOM     15  C   UNL     1       0.768   2.421  18.658  0.00  0.00    +0.000 A 
ATOM     16  N   UNL     1       2.101   2.276  18.362  0.00  0.00    +0.000 NA
ATOM     17  C   UNL     1       2.740   2.680  19.435  0.00  0.00    +0.000 A 
ENDBRANCH  11  17
ENDBRANCH  10  11
ENDBRANCH   1  10
TORSDOF 4
ENDMDL
MODEL 9
REMARK VINA RESULT:      -6.3      1.732      2.438
REMARK  Name = 
REMARK  5 active torsions:
REMARK  status: ('A' for Active; 'I' for Inactive)
REMARK    1  A    between atoms: C_1  and  N_2
REMARK    2  A    between atoms: C_6  and  S_7
REMARK    3  A    between atoms: S_7  and  C_8
REMARK    4  A    between atoms: C_8  and  C_9
REMARK    5  A    between atoms: C_12  and  N_13
REMARK                            x       y       z     vdW  Elec       q    Type
REMARK                         _______ _______ _______ _____ _____    ______ ____
ROOT
ATOM      1  C   UNL     1       3.844   6.175  18.536  0.00  0.00    +0.000 A 
ATOM      2  C   UNL     1       4.138   6.308  17.167  0.00  0.00    +0.000 A 
ATOM      3  C   UNL     1       5.329   5.804  16.636  0.00  0.00    +0.000 A 
ATOM      4  C   UNL     1       6.250   5.174  17.480  0.00  0.00    +0.000 A 
ATOM      5  C   UNL     1       5.993   5.063  18.852  0.00  0.00    +0.000 A 
ATOM      6  C   UNL     1       4.793   5.563  19.373  0.00  0.00    +0.000 A 
ENDROOT
BRANCH   4   7
ATOM      7  N   UNL     1       7.492   4.623  16.922  0.00  0.00    +0.000 N 
ATOM      8  O   UNL     1       8.302   4.111  17.710  0.00  0.00    +0.000 OA
ATOM      9  O   UNL     1       7.663   4.704  15.697  0.00  0.00    +0.000 OA
ENDBRANCH   4   7
BRANCH   1  10
ATOM     10  C   UNL     1       2.539   6.708  19.102  0.00  0.00    +0.000 C 
BRANCH  10  11
ATOM     11  S   UNL     1       1.931   5.699  20.497  0.00  0.00    +0.000 S 
BRANCH  11  17
ATOM     12  C   UNL     1       2.269   2.745  21.735  0.00  0.00    +0.000 C 
ATOM     13  N   UNL     1       1.861   2.969  20.371  0.00  0.00    +0.000 N 
ATOM     14  C   UNL     1       1.572   1.975  19.469  0.00  0.00    +0.000 A 
ATOM     15  C   UNL     1       1.254   2.633  18.305  0.00  0.00    +0.000 A 
ATOM     16  N   UNL     1       1.337   3.993  18.473  0.00  0.00    +0.000 NA
ATOM     17  C   UNL     1       1.696   4.166  19.724  0.00  0.00    +0.000 A 
ENDBRANCH  11  17
ENDBRANCH  10  11
ENDBRANCH   1  10
TORSDOF 4
ENDMDL
