MODEL 1
REMARK VINA RESULT:      -7.9      0.000      0.000
REMARK  Name = 
REMARK  5 active torsions:
REMARK  status: ('A' for Active; 'I' for Inactive)
REMARK    1  A    between atoms: C_1  and  O_2
REMARK    2  A    between atoms: O_2  and  C_3
REMARK    3  A    between atoms: C_3  and  C_5
REMARK    4  A    between atoms: C_12  and  C_13
REMARK    5  A    between atoms: C_17  and  C_18
REMARK                            x       y       z     vdW  Elec       q    Type
REMARK                         _______ _______ _______ _____ _____    ______ ____
ROOT
ATOM      1  C   UNL     1       2.820   4.633  19.345  0.00  0.00    +0.000 A 
ATOM      2  C   UNL     1       3.687   3.767  18.659  0.00  0.00    +0.000 A 
ATOM      3  N   UNL     1       4.018   2.402  18.930  0.00  0.00    +0.000 N 
ATOM      4  O   UNL     1       4.335   2.136  20.098  0.00  0.00    +0.000 OA
ATOM      5  O   UNL     1       3.934   1.594  17.996  0.00  0.00    +0.000 OA
ATOM      6  N   UNL     1       4.353   4.366  17.665  0.00  0.00    +0.000 NA
ATOM      7  O   UNL     1       3.907   5.678  17.692  0.00  0.00    +0.000 OA
ATOM      8  C   UNL     1       2.990   5.841  18.695  0.00  0.00    +0.000 A 
ENDROOT
BRANCH   8   9
ATOM      9  C   UNL     1       2.437   7.184  18.820  0.00  0.00    +0.000 A 
ATOM     10  C   UNL     1       2.417   8.072  17.740  0.00  0.00    +0.000 A 
ATOM     11  C   UNL     1       1.802   9.318  17.850  0.00  0.00    +0.000 A 
ATOM     12  C   UNL     1       1.233   9.713  19.062  0.00  0.00    +0.000 A 
ATOM     13  C   UNL     1       1.289   8.871  20.179  0.00  0.00    +0.000 A 
ATOM     14  C   UNL     1       1.886   7.608  20.040  0.00  0.00    +0.000 A 
BRANCH  13  15
ATOM     15  C   UNL     1       0.752   9.301  21.463  0.00  0.00    +0.000 A 
ATOM     16  C   UNL     1       1.133   9.196  22.783  0.00  0.00    +0.000 A 
ATOM     17  N   UNL     1       0.198   9.777  23.600  0.00  0.00    +0.000 NA
ATOM     18  C   UNL     1      -0.712  10.209  22.758  0.00  0.00    +0.000 A 
ATOM     19  O   UNL     1      -0.448   9.965  21.446  0.00  0.00    +0.000 OA
ENDBRANCH  13  15
ENDBRANCH   8   9
BRANCH   1  20
ATOM     20  C   UNL     1       1.965   4.358  20.470  0.00  0.00    +0.000 C 
ATOM     21  O   UNL     1       2.337   4.412  21.635  0.00  0.00    +0.000 OA
BRANCH  20  23
ATOM     22  C   UNL     1       0.524   2.848  19.426  0.00  0.00    +0.000 C 
ATOM     23  O   UNL     1       0.684   4.104  20.089  0.00  0.00    +0.000 OA
ENDBRANCH  20  23
ENDBRANCH   1  20
TORSDOF 4
ENDMDL
MODEL 2
REMARK VINA RESULT:      -7.9      3.658      7.191
REMARK  Name = 
REMARK  5 active torsions:
REMARK  status: ('A' for Active; 'I' for Inactive)
REMARK    1  A    between atoms: C_1  and  O_2
REMARK    2  A    between atoms: O_2  and  C_3
REMARK    3  A    between atoms: C_3  and  C_5
REMARK    4  A    between atoms: C_12  and  C_13
REMARK    5  A    between atoms: C_17  and  C_18
REMARK                            x       y       z     vdW  Elec       q    Type
REMARK                         _______ _______ _______ _____ _____    ______ ____
ROOT
ATOM      1  C   UNL     1       2.798   4.209  18.740  0.00  0.00    +0.000 A 
ATOM      2  C   UNL     1       2.102   3.010  18.971  0.00  0.00    +0.000 A 
ATOM      3  N   UNL     1       0.867   2.788  19.658  0.00  0.00    +0.000 N 
ATOM      4  O   UNL     1       0.758   3.315  20.775  0.00  0.00    +0.000 OA
ATOM      5  O   UNL     1      -0.001   2.122  19.079  0.00  0.00    +0.000 OA
ATOM      6  N   UNL     1       2.767   1.926  18.554  0.00  0.00    +0.000 NA
ATOM      7  O   UNL     1       3.944   2.427  18.021  0.00  0.00    +0.000 OA
ATOM      8  C   UNL     1       3.966   3.791  18.131  0.00  0.00    +0.000 A 
ENDROOT
BRANCH   8   9
ATOM      9  C   UNL     1       5.157   4.440  17.596  0.00  0.00    +0.000 A 
ATOM     10  C   UNL     1       6.023   5.171  18.415  0.00  0.00    +0.000 A 
ATOM     11  C   UNL     1       7.206   5.707  17.907  0.00  0.00    +0.000 A 
ATOM     12  C   UNL     1       7.518   5.554  16.555  0.00  0.00    +0.000 A 
ATOM     13  C   UNL     1       6.643   4.879  15.696  0.00  0.00    +0.000 A 
ATOM     14  C   UNL     1       5.472   4.320  16.233  0.00  0.00    +0.000 A 
BRANCH  13  15
ATOM     15  C   UNL     1       6.933   4.769  14.274  0.00  0.00    +0.000 A 
ATOM     16  C   UNL     1       6.514   3.967  13.235  0.00  0.00    +0.000 A 
ATOM     17  N   UNL     1       7.167   4.301  12.076  0.00  0.00    +0.000 NA
ATOM     18  C   UNL     1       7.955   5.284  12.447  0.00  0.00    +0.000 A 
ATOM     19  O   UNL     1       7.868   5.631  13.760  0.00  0.00    +0.000 OA
ENDBRANCH  13  15
ENDBRANCH   8   9
BRANCH   1  20
ATOM     20  C   UNL     1       2.415   5.557  19.067  0.00  0.00    +0.000 C 
ATOM     21  O   UNL     1       2.273   5.965  20.212  0.00  0.00    +0.000 OA
BRANCH  20  23
ATOM     22  C   UNL     1       2.506   7.731  18.220  0.00  0.00    +0.000 C 
ATOM     23  O   UNL     1       2.302   6.340  17.960  0.00  0.00    +0.000 OA
ENDBRANCH  20  23
ENDBRANCH   1  20
TORSDOF 4
ENDMDL
MODEL 3
REMARK VINA RESULT:      -7.9      1.288      2.625
REMARK  Name = 
REMARK  5 active torsions:
REMARK  status: ('A' for Active; 'I' for Inactive)
REMARK    1  A    between atoms: C_1  and  O_2
REMARK    2  A    between atoms: O_2  and  C_3
REMARK    3  A    between atoms: C_3  and  C_5
REMARK    4  A    between atoms: C_12  and  C_13
REMARK    5  A    between atoms: C_17  and  C_18
REMARK                            x       y       z     vdW  Elec       q    Type
REMARK                         _______ _______ _______ _____ _____    ______ ____
ROOT
ATOM      1  C   UNL     1       3.598   4.790  19.065  0.00  0.00    +0.000 A 
ATOM      2  C   UNL     1       3.541   3.628  19.853  0.00  0.00    +0.000 A 
ATOM      3  N   UNL     1       4.175   2.360  19.658  0.00  0.00    +0.000 N 
ATOM      4  O   UNL     1       4.060   1.857  18.531  0.00  0.00    +0.000 OA
ATOM      5  O   UNL     1       4.808   1.882  20.609  0.00  0.00    +0.000 OA
ATOM      6  N   UNL     1       2.689   3.729  20.879  0.00  0.00    +0.000 NA
ATOM      7  O   UNL     1       2.165   5.007  20.769  0.00  0.00    +0.000 OA
ATOM      8  C   UNL     1       2.707   5.644  19.686  0.00  0.00    +0.000 A 
ENDROOT
BRANCH   8   9
ATOM      9  C   UNL     1       2.238   7.008  19.467  0.00  0.00    +0.000 A 
ATOM     10  C   UNL     1       2.377   7.639  18.227  0.00  0.00    +0.000 A 
ATOM     11  C   UNL     1       1.842   8.908  18.007  0.00  0.00    +0.000 A 
ATOM     12  C   UNL     1       1.195   9.582  19.043  0.00  0.00    +0.000 A 
ATOM     13  C   UNL     1       1.091   9.001  20.313  0.00  0.00    +0.000 A 
ATOM     14  C   UNL     1       1.610   7.711  20.506  0.00  0.00    +0.000 A 
BRANCH  13  15
ATOM     15  C   UNL     1       0.471   9.725  21.414  0.00  0.00    +0.000 A 
ATOM     16  C   UNL     1       0.285   9.510  22.763  0.00  0.00    +0.000 A 
ATOM     17  N   UNL     1      -0.418  10.546  23.321  0.00  0.00    +0.000 NA
ATOM     18  C   UNL     1      -0.636  11.346  22.304  0.00  0.00    +0.000 A 
ATOM     19  O   UNL     1      -0.125  10.924  21.116  0.00  0.00    +0.000 OA
ENDBRANCH  13  15
ENDBRANCH   8   9
BRANCH   1  20
ATOM     20  C   UNL     1       4.375   5.046  17.881  0.00  0.00    +0.000 C 
ATOM     21  O   UNL     1       4.108   4.584  16.779  0.00  0.00    +0.000 OA
BRANCH  20  23
ATOM     22  C   UNL     1       6.526   5.315  18.748  0.00  0.00    +0.000 C 
ATOM     23  O   UNL     1       5.394   5.916  18.115  0.00  0.00    +0.000 OA
ENDBRANCH  20  23
ENDBRANCH   1  20
TORSDOF 4
ENDMDL
MODEL 4
REMARK VINA RESULT:      -7.8      1.260      1.617
REMARK  Name = 
REMARK  5 active torsions:
REMARK  status: ('A' for Active; 'I' for Inactive)
REMARK    1  A    between atoms: C_1  and  O_2
REMARK    2  A    between atoms: O_2  and  C_3
REMARK    3  A    between atoms: C_3  and  C_5
REMARK    4  A    between atoms: C_12  and  C_13
REMARK    5  A    between atoms: C_17  and  C_18
REMARK                            x       y       z     vdW  Elec       q    Type
REMARK                         _______ _______ _______ _____ _____    ______ ____
ROOT
ATOM      1  C   UNL     1       2.894   5.448  17.991  0.00  0.00    +0.000 A 
ATOM      2  C   UNL     1       4.175   5.005  17.621  0.00  0.00    +0.000 A 
ATOM      3  N   UNL     1       4.661   3.672  17.432  0.00  0.00    +0.000 N 
ATOM      4  O   UNL     1       4.411   2.865  18.339  0.00  0.00    +0.000 OA
ATOM      5  O   UNL     1       5.260   3.423  16.378  0.00  0.00    +0.000 OA
ATOM      6  N   UNL     1       5.069   5.996  17.527  0.00  0.00    +0.000 NA
ATOM      7  O   UNL     1       4.352   7.139  17.843  0.00  0.00    +0.000 OA
ATOM      8  C   UNL     1       3.052   6.815  18.121  0.00  0.00    +0.000 A 
ENDROOT
BRANCH   8   9
ATOM      9  C   UNL     1       2.189   7.941  18.461  0.00  0.00    +0.000 A 
ATOM     10  C   UNL     1       1.694   8.807  17.481  0.00  0.00    +0.000 A 
ATOM     11  C   UNL     1       0.798   9.822  17.811  0.00  0.00    +0.000 A 
ATOM     12  C   UNL     1       0.415  10.012  19.140  0.00  0.00    +0.000 A 
ATOM     13  C   UNL     1       0.939   9.199  20.152  0.00  0.00    +0.000 A 
ATOM     14  C   UNL     1       1.817   8.164  19.796  0.00  0.00    +0.000 A 
BRANCH  13  15
ATOM     15  C   UNL     1       0.591   9.431  21.547  0.00  0.00    +0.000 A 
ATOM     16  C   UNL     1       1.194   9.219  22.768  0.00  0.00    +0.000 A 
ATOM     17  N   UNL     1       0.366   9.613  23.788  0.00  0.00    +0.000 NA
ATOM     18  C   UNL     1      -0.702  10.045  23.158  0.00  0.00    +0.000 A 
ATOM     19  O   UNL     1      -0.642   9.974  21.801  0.00  0.00    +0.000 OA
ENDBRANCH  13  15
ENDBRANCH   8   9
BRANCH   1  20
ATOM     20  C   UNL     1       1.696   4.681  18.209  0.00  0.00    +0.000 C 
ATOM     21  O   UNL     1       1.055   4.152  17.311  0.00  0.00    +0.000 OA
BRANCH  20  23
ATOM     22  C   UNL     1       0.979   3.237  19.898  0.00  0.00    +0.000 C 
ATOM     23  O   UNL     1       1.403   4.553  19.531  0.00  0.00    +0.000 OA
ENDBRANCH  20  23
ENDBRANCH   1  20
TORSDOF 4
ENDMDL
MODEL 5
REMARK VINA RESULT:      -7.8      1.351      2.550
REMARK  Name = 
REMARK  5 active torsions:
REMARK  status: ('A' for Active; 'I' for Inactive)
REMARK    1  A    between atoms: C_1  and  O_2
REMARK    2  A    between atoms: O_2  and  C_3
REMARK    3  A    between atoms: C_3  and  C_5
REMARK    4  A    between atoms: C_12  and  C_13
REMARK    5  A    between atoms: C_17  and  C_18
REMARK                            x       y       z     vdW  Elec       q    Type
REMARK                         _______ _______ _______ _____ _____    ______ ____
ROOT
ATOM      1  C   UNL     1       3.667   4.984  19.115  0.00  0.00    +0.000 A 
ATOM      2  C   UNL     1       3.537   3.796  19.852  0.00  0.00    +0.000 A 
ATOM      3  N   UNL     1       4.216   2.545  19.696  0.00  0.00    +0.000 N 
ATOM      4  O   UNL     1       4.249   2.080  18.548  0.00  0.00    +0.000 OA
ATOM      5  O   UNL     1       4.737   2.045  20.701  0.00  0.00    +0.000 OA
ATOM      6  N   UNL     1       2.564   3.847  20.768  0.00  0.00    +0.000 NA
ATOM      7  O   UNL     1       2.032   5.120  20.636  0.00  0.00    +0.000 OA
ATOM      8  C   UNL     1       2.689   5.802  19.648  0.00  0.00    +0.000 A 
ENDROOT
BRANCH   8   9
ATOM      9  C   UNL     1       2.223   7.165  19.417  0.00  0.00    +0.000 A 
ATOM     10  C   UNL     1       2.399   7.800  18.184  0.00  0.00    +0.000 A 
ATOM     11  C   UNL     1       1.867   9.067  17.949  0.00  0.00    +0.000 A 
ATOM     12  C   UNL     1       1.186   9.737  18.966  0.00  0.00    +0.000 A 
ATOM     13  C   UNL     1       1.044   9.153  20.231  0.00  0.00    +0.000 A 
ATOM     14  C   UNL     1       1.560   7.865  20.438  0.00  0.00    +0.000 A 
BRANCH  13  15
ATOM     15  C   UNL     1       0.388   9.873  21.313  0.00  0.00    +0.000 A 
ATOM     16  C   UNL     1       0.219  11.194  21.667  0.00  0.00    +0.000 A 
ATOM     17  N   UNL     1      -0.481  11.290  22.843  0.00  0.00    +0.000 NA
ATOM     18  C   UNL     1      -0.709  10.038  23.162  0.00  0.00    +0.000 A 
ATOM     19  O   UNL     1      -0.221   9.119  22.284  0.00  0.00    +0.000 OA
ENDBRANCH  13  15
ENDBRANCH   8   9
BRANCH   1  20
ATOM     20  C   UNL     1       4.578   5.293  18.044  0.00  0.00    +0.000 C 
ATOM     21  O   UNL     1       5.668   5.823  18.211  0.00  0.00    +0.000 OA
BRANCH  20  23
ATOM     22  C   UNL     1       5.140   4.337  15.990  0.00  0.00    +0.000 C 
ATOM     23  O   UNL     1       4.117   4.862  16.839  0.00  0.00    +0.000 OA
ENDBRANCH  20  23
ENDBRANCH   1  20
TORSDOF 4
ENDMDL
MODEL 6
REMARK VINA RESULT:      -7.8      3.699      7.166
REMARK  Name = 
REMARK  5 active torsions:
REMARK  status: ('A' for Active; 'I' for Inactive)
REMARK    1  A    between atoms: C_1  and  O_2
REMARK    2  A    between atoms: O_2  and  C_3
REMARK    3  A    between atoms: C_3  and  C_5
REMARK    4  A    between atoms: C_12  and  C_13
REMARK    5  A    between atoms: C_17  and  C_18
REMARK                            x       y       z     vdW  Elec       q    Type
REMARK                         _______ _______ _______ _____ _____    ______ ____
ROOT
ATOM      1  C   UNL     1       3.130   4.181  18.753  0.00  0.00    +0.000 A 
ATOM      2  C   UNL     1       2.880   3.265  19.788  0.00  0.00    +0.000 A 
ATOM      3  N   UNL     1       1.646   2.924  20.428  0.00  0.00    +0.000 N 
ATOM      4  O   UNL     1       0.948   3.873  20.812  0.00  0.00    +0.000 OA
ATOM      5  O   UNL     1       1.360   1.723  20.522  0.00  0.00    +0.000 OA
ATOM      6  N   UNL     1       3.994   2.715  20.286  0.00  0.00    +0.000 NA
ATOM      7  O   UNL     1       5.020   3.285  19.550  0.00  0.00    +0.000 OA
ATOM      8  C   UNL     1       4.507   4.161  18.632  0.00  0.00    +0.000 A 
ENDROOT
BRANCH   8   9
ATOM      9  C   UNL     1       5.493   4.824  17.786  0.00  0.00    +0.000 A 
ATOM     10  C   UNL     1       6.336   5.821  18.286  0.00  0.00    +0.000 A 
ATOM     11  C   UNL     1       7.335   6.379  17.489  0.00  0.00    +0.000 A 
ATOM     12  C   UNL     1       7.476   5.975  16.161  0.00  0.00    +0.000 A 
ATOM     13  C   UNL     1       6.609   5.022  15.613  0.00  0.00    +0.000 A 
ATOM     14  C   UNL     1       5.630   4.450  16.439  0.00  0.00    +0.000 A 
BRANCH  13  15
ATOM     15  C   UNL     1       6.712   4.641  14.211  0.00  0.00    +0.000 A 
ATOM     16  C   UNL     1       6.142   3.685  13.398  0.00  0.00    +0.000 A 
ATOM     17  N   UNL     1       6.651   3.771  12.127  0.00  0.00    +0.000 NA
ATOM     18  C   UNL     1       7.506   4.764  12.210  0.00  0.00    +0.000 A 
ATOM     19  O   UNL     1       7.597   5.347  13.436  0.00  0.00    +0.000 OA
ENDBRANCH  13  15
ENDBRANCH   8   9
BRANCH   1  20
ATOM     20  C   UNL     1       2.197   4.974  17.998  0.00  0.00    +0.000 C 
ATOM     21  O   UNL     1       1.218   4.512  17.427  0.00  0.00    +0.000 OA
BRANCH  20  23
ATOM     22  C   UNL     1       2.353   6.860  19.365  0.00  0.00    +0.000 C 
ATOM     23  O   UNL     1       2.488   6.302  18.056  0.00  0.00    +0.000 OA
ENDBRANCH  20  23
ENDBRANCH   1  20
TORSDOF 4
ENDMDL
MODEL 7
REMARK VINA RESULT:      -7.7      4.208      6.911
REMARK  Name = 
REMARK  5 active torsions:
REMARK  status: ('A' for Active; 'I' for Inactive)
REMARK    1  A    between atoms: C_1  and  O_2
REMARK    2  A    between atoms: O_2  and  C_3
REMARK    3  A    between atoms: C_3  and  C_5
REMARK    4  A    between atoms: C_12  and  C_13
REMARK    5  A    between atoms: C_17  and  C_18
REMARK                            x       y       z     vdW  Elec       q    Type
REMARK                         _______ _______ _______ _____ _____    ______ ____
ROOT
ATOM      1  C   UNL     1       3.710   3.245  19.837  0.00  0.00    +0.000 A 
ATOM      2  C   UNL     1       2.561   3.594  20.567  0.00  0.00    +0.000 A 
ATOM      3  N   UNL     1       1.549   2.756  21.133  0.00  0.00    +0.000 N 
ATOM      4  O   UNL     1       1.069   1.894  20.384  0.00  0.00    +0.000 OA
ATOM      5  O   UNL     1       1.255   2.934  22.322  0.00  0.00    +0.000 OA
ATOM      6  N   UNL     1       2.370   4.916  20.648  0.00  0.00    +0.000 NA
ATOM      7  O   UNL     1       3.434   5.462  19.949  0.00  0.00    +0.000 OA
ATOM      8  C   UNL     1       4.237   4.466  19.463  0.00  0.00    +0.000 A 
ENDROOT
BRANCH   8   9
ATOM      9  C   UNL     1       5.403   4.917  18.712  0.00  0.00    +0.000 A 
ATOM     10  C   UNL     1       6.449   5.610  19.330  0.00  0.00    +0.000 A 
ATOM     11  C   UNL     1       7.598   5.953  18.618  0.00  0.00    +0.000 A 
ATOM     12  C   UNL     1       7.697   5.644  17.260  0.00  0.00    +0.000 A 
ATOM     13  C   UNL     1       6.643   5.003  16.599  0.00  0.00    +0.000 A 
ATOM     14  C   UNL     1       5.507   4.639  17.340  0.00  0.00    +0.000 A 
BRANCH  13  15
ATOM     15  C   UNL     1       6.715   4.733  15.170  0.00  0.00    +0.000 A 
ATOM     16  C   UNL     1       6.065   3.902  14.284  0.00  0.00    +0.000 A 
ATOM     17  N   UNL     1       6.583   4.047  13.022  0.00  0.00    +0.000 NA
ATOM     18  C   UNL     1       7.522   4.949  13.183  0.00  0.00    +0.000 A 
ATOM     19  O   UNL     1       7.661   5.419  14.453  0.00  0.00    +0.000 OA
ENDBRANCH  13  15
ENDBRANCH   8   9
BRANCH   1  20
ATOM     20  C   UNL     1       4.223   1.937  19.524  0.00  0.00    +0.000 C 
ATOM     21  O   UNL     1       5.168   1.421  20.106  0.00  0.00    +0.000 OA
BRANCH  20  23
ATOM     22  C   UNL     1       2.912   2.218  17.613  0.00  0.00    +0.000 C 
ATOM     23  O   UNL     1       3.491   1.316  18.560  0.00  0.00    +0.000 OA
ENDBRANCH  20  23
ENDBRANCH   1  20
TORSDOF 4
ENDMDL
MODEL 8
REMARK VINA RESULT:      -7.7      3.388      5.866
REMARK  Name = 
REMARK  5 active torsions:
REMARK  status: ('A' for Active; 'I' for Inactive)
REMARK    1  A    between atoms: C_1  and  O_2
REMARK    2  A    between atoms: O_2  and  C_3
REMARK    3  A    between atoms: C_3  and  C_5
REMARK    4  A    between atoms: C_12  and  C_13
REMARK    5  A    between atoms: C_17  and  C_18
REMARK                            x       y       z     vdW  Elec       q    Type
REMARK                         _______ _______ _______ _____ _____    ______ ____
ROOT
ATOM      1  C   UNL     1       2.902   4.047  18.455  0.00  0.00    +0.000 A 
ATOM      2  C   UNL     1       2.154   2.888  18.718  0.00  0.00    +0.000 A 
ATOM      3  N   UNL     1       1.011   2.711  19.561  0.00  0.00    +0.000 N 
ATOM      4  O   UNL     1       1.099   3.170  20.708  0.00  0.00    +0.000 OA
ATOM      5  O   UNL     1       0.022   2.146  19.076  0.00  0.00    +0.000 OA
ATOM      6  N   UNL     1       2.666   1.789  18.152  0.00  0.00    +0.000 NA
ATOM      7  O   UNL     1       3.795   2.239  17.485  0.00  0.00    +0.000 OA
ATOM      8  C   UNL     1       3.939   3.588  17.664  0.00  0.00    +0.000 A 
ENDROOT
BRANCH   8   9
ATOM      9  C   UNL     1       5.093   4.184  17.001  0.00  0.00    +0.000 A 
ATOM     10  C   UNL     1       5.554   3.711  15.769  0.00  0.00    +0.000 A 
ATOM     11  C   UNL     1       6.600   4.349  15.103  0.00  0.00    +0.000 A 
ATOM     12  C   UNL     1       7.229   5.451  15.686  0.00  0.00    +0.000 A 
ATOM     13  C   UNL     1       6.829   5.913  16.945  0.00  0.00    +0.000 A 
ATOM     14  C   UNL     1       5.755   5.275  17.585  0.00  0.00    +0.000 A 
BRANCH  13  15
ATOM     15  C   UNL     1       7.522   7.023  17.585  0.00  0.00    +0.000 A 
ATOM     16  C   UNL     1       8.292   7.193  18.715  0.00  0.00    +0.000 A 
ATOM     17  N   UNL     1       8.667   8.505  18.848  0.00  0.00    +0.000 NA
ATOM     18  C   UNL     1       8.116   9.083  17.806  0.00  0.00    +0.000 A 
ATOM     19  O   UNL     1       7.411   8.253  16.990  0.00  0.00    +0.000 OA
ENDBRANCH  13  15
ENDBRANCH   8   9
BRANCH   1  20
ATOM     20  C   UNL     1       2.676   5.395  18.905  0.00  0.00    +0.000 C 
ATOM     21  O   UNL     1       2.915   5.782  20.042  0.00  0.00    +0.000 OA
BRANCH  20  23
ATOM     22  C   UNL     1       2.625   7.571  18.059  0.00  0.00    +0.000 C 
ATOM     23  O   UNL     1       2.237   6.203  17.903  0.00  0.00    +0.000 OA
ENDBRANCH  20  23
ENDBRANCH   1  20
TORSDOF 4
ENDMDL
MODEL 9
REMARK VINA RESULT:      -7.7      2.689      3.582
REMARK  Name = 
REMARK  5 active torsions:
REMARK  status: ('A' for Active; 'I' for Inactive)
REMARK    1  A    between atoms: C_1  and  O_2
REMARK    2  A    between atoms: O_2  and  C_3
REMARK    3  A    between atoms: C_3  and  C_5
REMARK    4  A    between atoms: C_12  and  C_13
REMARK    5  A    between atoms: C_17  and  C_18
REMARK                            x       y       z     vdW  Elec       q    Type
REMARK                         _______ _______ _______ _____ _____    ______ ____
ROOT
ATOM      1  C   UNL     1       5.052   5.237  17.430  0.00  0.00    +0.000 A 
ATOM      2  C   UNL     1       5.714   5.445  16.208  0.00  0.00    +0.000 A 
ATOM      3  N   UNL     1       6.790   4.712  15.616  0.00  0.00    +0.000 N 
ATOM      4  O   UNL     1       7.763   4.480  16.347  0.00  0.00    +0.000 OA
ATOM      5  O   UNL     1       6.656   4.343  14.442  0.00  0.00    +0.000 OA
ATOM      6  N   UNL     1       5.314   6.554  15.575  0.00  0.00    +0.000 NA
ATOM      7  O   UNL     1       4.348   7.098  16.406  0.00  0.00    +0.000 OA
ATOM      8  C   UNL     1       4.188   6.312  17.516  0.00  0.00    +0.000 A 
ENDROOT
BRANCH   8   9
ATOM      9  C   UNL     1       3.187   6.778  18.469  0.00  0.00    +0.000 A 
ATOM     10  C   UNL     1       2.791   5.992  19.556  0.00  0.00    +0.000 A 
ATOM     11  C   UNL     1       1.902   6.487  20.509  0.00  0.00    +0.000 A 
ATOM     12  C   UNL     1       1.361   7.766  20.363  0.00  0.00    +0.000 A 
ATOM     13  C   UNL     1       1.693   8.554  19.254  0.00  0.00    +0.000 A 
ATOM     14  C   UNL     1       2.612   8.050  18.322  0.00  0.00    +0.000 A 
BRANCH  13  15
ATOM     15  C   UNL     1       1.085   9.864  19.064  0.00  0.00    +0.000 A 
ATOM     16  C   UNL     1       1.495  11.086  18.576  0.00  0.00    +0.000 A 
ATOM     17  N   UNL     1       0.481  12.004  18.669  0.00  0.00    +0.000 NA
ATOM     18  C   UNL     1      -0.500  11.317  19.207  0.00  0.00    +0.000 A 
ATOM     19  O   UNL     1      -0.216  10.013  19.471  0.00  0.00    +0.000 OA
ENDBRANCH  13  15
ENDBRANCH   8   9
BRANCH   1  20
ATOM     20  C   UNL     1       5.226   4.176  18.387  0.00  0.00    +0.000 C 
ATOM     21  O   UNL     1       6.039   4.214  19.302  0.00  0.00    +0.000 OA
BRANCH  20  23
ATOM     22  C   UNL     1       4.027   2.446  19.396  0.00  0.00    +0.000 C 
ATOM     23  O   UNL     1       4.336   3.165  18.199  0.00  0.00    +0.000 OA
ENDBRANCH  20  23
ENDBRANCH   1  20
TORSDOF 4
ENDMDL
