MODEL 1
REMARK VINA RESULT:      -8.3      0.000      0.000
REMARK  Name = 
REMARK  9 active torsions:
REMARK  status: ('A' for Active; 'I' for Inactive)
REMARK    1  A    between atoms: C_2  and  C_3
REMARK    2  A    between atoms: C_4  and  C_5
REMARK    3  A    between atoms: C_9  and  N_10
REMARK    4  A    between atoms: C_11  and  C_13
REMARK    5  A    between atoms: C_13  and  C_14
REMARK    6  A    between atoms: C_14  and  N_15
REMARK    7  A    between atoms: C_23  and  C_24
REMARK    8  A    between atoms: C_29  and  O_30
REMARK    9  A    between atoms: C_32  and  O_33
REMARK                            x       y       z     vdW  Elec       q    Type
REMARK                         _______ _______ _______ _____ _____    ______ ____
ROOT
ATOM      1  C   UNL     1      -3.894  11.660  17.817  0.00  0.00    +0.000 A 
ATOM      2  C   UNL     1      -3.024  11.996  18.864  0.00  0.00    +0.000 A 
ATOM      3  C   UNL     1      -3.628  12.414  20.069  0.00  0.00    +0.000 A 
ATOM      4  C   UNL     1      -5.014  12.530  20.207  0.00  0.00    +0.000 A 
ATOM      5  N   UNL     1      -5.838  12.219  19.178  0.00  0.00    +0.000 NA
ATOM      6  C   UNL     1      -5.258  11.807  18.036  0.00  0.00    +0.000 A 
ENDROOT
BRANCH   2   7
ATOM      7  C   UNL     1      -1.535  11.965  18.786  0.00  0.00    +0.000 A 
ATOM      8  C   UNL     1      -0.770  13.120  18.556  0.00  0.00    +0.000 A 
ATOM      9  C   UNL     1       0.629  13.081  18.545  0.00  0.00    +0.000 A 
ATOM     10  C   UNL     1       1.305  11.898  18.818  0.00  0.00    +0.000 A 
ATOM     11  C   UNL     1       0.585  10.740  19.069  0.00  0.00    +0.000 A 
ATOM     12  C   UNL     1      -0.819  10.773  19.023  0.00  0.00    +0.000 A 
BRANCH  11  13
ATOM     13  N   UNL     1       1.186   9.511  19.369  0.00  0.00    +0.000 N 
ATOM     14  C   UNL     1       1.917   8.681  18.545  0.00  0.00    +0.000 C 
ATOM     15  O   UNL     1       2.178   8.882  17.362  0.00  0.00    +0.000 OA
ATOM     16  H   UNL     1       1.128   9.212  20.344  0.00  0.00    +0.000 HD
BRANCH  14  17
ATOM     17  C   UNL     1       2.363   7.386  19.214  0.00  0.00    +0.000 C 
BRANCH  17  18
ATOM     18  C   UNL     1       2.742   6.250  18.251  0.00  0.00    +0.000 C 
BRANCH  18  19
ATOM     19  N   UNL     1       2.484   4.898  18.801  0.00  0.00    +0.000 NA
ATOM     20  C   UNL     1       2.098   4.936  20.224  0.00  0.00    +0.000 C 
ATOM     21  C   UNL     1       1.935   3.523  20.784  0.00  0.00    +0.000 C 
ATOM     22  C   UNL     1       0.921   2.727  19.975  0.00  0.00    +0.000 C 
ATOM     23  C   UNL     1       1.292   2.750  18.497  0.00  0.00    +0.000 C 
ATOM     24  C   UNL     1       1.484   4.183  17.993  0.00  0.00    +0.000 C 
ENDBRANCH  18  19
ENDBRANCH  17  18
ENDBRANCH  14  17
ENDBRANCH  11  13
ENDBRANCH   2   7
BRANCH   4  25
ATOM     25  C   UNL     1      -5.668  12.951  21.471  0.00  0.00    +0.000 A 
ATOM     26  C   UNL     1      -5.205  14.099  22.148  0.00  0.00    +0.000 A 
ATOM     27  C   UNL     1      -5.808  14.556  23.325  0.00  0.00    +0.000 A 
ATOM     28  C   UNL     1      -6.892  13.870  23.863  0.00  0.00    +0.000 A 
ATOM     29  C   UNL     1      -7.370  12.728  23.229  0.00  0.00    +0.000 A 
ATOM     30  C   UNL     1      -6.764  12.277  22.050  0.00  0.00    +0.000 A 
BRANCH  30  31
ATOM     31  O   UNL     1      -7.261  11.138  21.472  0.00  0.00    +0.000 OA
ATOM     32  H   UNL     1      -7.878  10.706  22.085  0.00  0.00    +0.000 HD
ENDBRANCH  30  31
ENDBRANCH   4  25
BRANCH   1  34
ATOM     33  N   UNL     1      -3.084  10.775  15.519  0.00  0.00    +0.000 NA
ATOM     34  C   UNL     1      -3.451  11.159  16.550  0.00  0.00    +0.000 C 
ENDBRANCH   1  34
BRANCH   6  35
ATOM     35  O   UNL     1      -6.169  11.538  17.063  0.00  0.00    +0.000 OA
ATOM     36  H   UNL     1      -5.621  11.652  16.265  0.00  0.00    +0.000 HD
ENDBRANCH   6  35
TORSDOF 9
ENDMDL
MODEL 2
REMARK VINA RESULT:      -7.8      1.218      1.522
REMARK  Name = 
REMARK  9 active torsions:
REMARK  status: ('A' for Active; 'I' for Inactive)
REMARK    1  A    between atoms: C_2  and  C_3
REMARK    2  A    between atoms: C_4  and  C_5
REMARK    3  A    between atoms: C_9  and  N_10
REMARK    4  A    between atoms: C_11  and  C_13
REMARK    5  A    between atoms: C_13  and  C_14
REMARK    6  A    between atoms: C_14  and  N_15
REMARK    7  A    between atoms: C_23  and  C_24
REMARK    8  A    between atoms: C_29  and  O_30
REMARK    9  A    between atoms: C_32  and  O_33
REMARK                            x       y       z     vdW  Elec       q    Type
REMARK                         _______ _______ _______ _____ _____    ______ ____
ROOT
ATOM      1  C   UNL     1      -3.507  11.523  17.743  0.00  0.00    +0.000 A 
ATOM      2  C   UNL     1      -2.626  11.899  18.768  0.00  0.00    +0.000 A 
ATOM      3  C   UNL     1      -3.217  12.424  19.938  0.00  0.00    +0.000 A 
ATOM      4  C   UNL     1      -4.598  12.601  20.061  0.00  0.00    +0.000 A 
ATOM      5  N   UNL     1      -5.431  12.248  19.053  0.00  0.00    +0.000 NA
ATOM      6  C   UNL     1      -4.865  11.735  17.945  0.00  0.00    +0.000 A 
ENDROOT
BRANCH   2   7
ATOM      7  C   UNL     1      -1.139  11.808  18.699  0.00  0.00    +0.000 A 
ATOM      8  C   UNL     1      -0.328  12.927  18.451  0.00  0.00    +0.000 A 
ATOM      9  C   UNL     1       1.068  12.832  18.449  0.00  0.00    +0.000 A 
ATOM     10  C   UNL     1       1.695  11.628  18.748  0.00  0.00    +0.000 A 
ATOM     11  C   UNL     1       0.929  10.505  19.017  0.00  0.00    +0.000 A 
ATOM     12  C   UNL     1      -0.472  10.593  18.962  0.00  0.00    +0.000 A 
BRANCH  11  13
ATOM     13  N   UNL     1       1.478   9.259  19.343  0.00  0.00    +0.000 N 
ATOM     14  C   UNL     1       2.081   8.336  18.515  0.00  0.00    +0.000 C 
ATOM     15  O   UNL     1       2.247   8.448  17.303  0.00  0.00    +0.000 OA
ATOM     16  H   UNL     1       1.490   9.023  20.337  0.00  0.00    +0.000 HD
BRANCH  14  17
ATOM     17  C   UNL     1       2.506   7.055  19.226  0.00  0.00    +0.000 C 
BRANCH  17  18
ATOM     18  C   UNL     1       3.410   6.122  18.406  0.00  0.00    +0.000 C 
BRANCH  18  19
ATOM     19  N   UNL     1       3.171   4.684  18.673  0.00  0.00    +0.000 NA
ATOM     20  C   UNL     1       2.550   3.996  17.525  0.00  0.00    +0.000 C 
ATOM     21  C   UNL     1       2.229   2.541  17.868  0.00  0.00    +0.000 C 
ATOM     22  C   UNL     1       3.475   1.799  18.328  0.00  0.00    +0.000 C 
ATOM     23  C   UNL     1       4.145   2.553  19.470  0.00  0.00    +0.000 C 
ATOM     24  C   UNL     1       4.410   4.012  19.094  0.00  0.00    +0.000 C 
ENDBRANCH  18  19
ENDBRANCH  17  18
ENDBRANCH  14  17
ENDBRANCH  11  13
ENDBRANCH   2   7
BRANCH   4  25
ATOM     25  C   UNL     1      -5.238  13.134  21.289  0.00  0.00    +0.000 A 
ATOM     26  C   UNL     1      -4.714  12.794  22.554  0.00  0.00    +0.000 A 
ATOM     27  C   UNL     1      -5.261  13.297  23.739  0.00  0.00    +0.000 A 
ATOM     28  C   UNL     1      -6.356  14.153  23.693  0.00  0.00    +0.000 A 
ATOM     29  C   UNL     1      -6.906  14.503  22.464  0.00  0.00    +0.000 A 
ATOM     30  C   UNL     1      -6.354  13.999  21.281  0.00  0.00    +0.000 A 
BRANCH  30  31
ATOM     31  O   UNL     1      -6.941  14.360  20.096  0.00  0.00    +0.000 OA
ATOM     32  H   UNL     1      -6.522  13.877  19.366  0.00  0.00    +0.000 HD
ENDBRANCH  30  31
ENDBRANCH   4  25
BRANCH   1  34
ATOM     33  N   UNL     1      -2.739  10.403  15.534  0.00  0.00    +0.000 NA
ATOM     34  C   UNL     1      -3.081  10.917  16.517  0.00  0.00    +0.000 C 
ENDBRANCH   1  34
BRANCH   6  35
ATOM     35  O   UNL     1      -5.783  11.432  16.990  0.00  0.00    +0.000 OA
ATOM     36  H   UNL     1      -5.305  10.746  16.490  0.00  0.00    +0.000 HD
ENDBRANCH   6  35
TORSDOF 9
ENDMDL
MODEL 3
REMARK VINA RESULT:      -7.8      1.087      1.378
REMARK  Name = 
REMARK  9 active torsions:
REMARK  status: ('A' for Active; 'I' for Inactive)
REMARK    1  A    between atoms: C_2  and  C_3
REMARK    2  A    between atoms: C_4  and  C_5
REMARK    3  A    between atoms: C_9  and  N_10
REMARK    4  A    between atoms: C_11  and  C_13
REMARK    5  A    between atoms: C_13  and  C_14
REMARK    6  A    between atoms: C_14  and  N_15
REMARK    7  A    between atoms: C_23  and  C_24
REMARK    8  A    between atoms: C_29  and  O_30
REMARK    9  A    between atoms: C_32  and  O_33
REMARK                            x       y       z     vdW  Elec       q    Type
REMARK                         _______ _______ _______ _____ _____    ______ ____
ROOT
ATOM      1  C   UNL     1      -3.949  11.669  17.825  0.00  0.00    +0.000 A 
ATOM      2  C   UNL     1      -3.078  11.905  18.899  0.00  0.00    +0.000 A 
ATOM      3  C   UNL     1      -3.674  12.343  20.102  0.00  0.00    +0.000 A 
ATOM      4  C   UNL     1      -5.049  12.570  20.213  0.00  0.00    +0.000 A 
ATOM      5  N   UNL     1      -5.871  12.355  19.158  0.00  0.00    +0.000 NA
ATOM      6  C   UNL     1      -5.301  11.924  18.018  0.00  0.00    +0.000 A 
ENDROOT
BRANCH   2   7
ATOM      7  C   UNL     1      -1.595  11.752  18.852  0.00  0.00    +0.000 A 
ATOM      8  C   UNL     1      -0.729  12.851  18.736  0.00  0.00    +0.000 A 
ATOM      9  C   UNL     1       0.660  12.692  18.753  0.00  0.00    +0.000 A 
ATOM     10  C   UNL     1       1.226  11.436  18.941  0.00  0.00    +0.000 A 
ATOM     11  C   UNL     1       0.404  10.329  19.080  0.00  0.00    +0.000 A 
ATOM     12  C   UNL     1      -0.990  10.487  19.005  0.00  0.00    +0.000 A 
BRANCH  11  13
ATOM     13  N   UNL     1       0.890   9.032  19.290  0.00  0.00    +0.000 N 
ATOM     14  C   UNL     1       1.406   8.477  20.441  0.00  0.00    +0.000 C 
ATOM     15  O   UNL     1       1.536   9.043  21.524  0.00  0.00    +0.000 OA
ATOM     16  H   UNL     1       0.795   8.388  18.502  0.00  0.00    +0.000 HD
BRANCH  14  17
ATOM     17  C   UNL     1       1.894   7.043  20.269  0.00  0.00    +0.000 C 
BRANCH  17  18
ATOM     18  C   UNL     1       2.901   6.828  19.128  0.00  0.00    +0.000 C 
BRANCH  18  19
ATOM     19  N   UNL     1       2.655   5.592  18.348  0.00  0.00    +0.000 NA
ATOM     20  C   UNL     1       3.906   4.961  17.887  0.00  0.00    +0.000 C 
ATOM     21  C   UNL     1       3.614   3.747  17.006  0.00  0.00    +0.000 C 
ATOM     22  C   UNL     1       2.742   2.737  17.737  0.00  0.00    +0.000 C 
ATOM     23  C   UNL     1       1.484   3.414  18.266  0.00  0.00    +0.000 C 
ATOM     24  C   UNL     1       1.825   4.645  19.109  0.00  0.00    +0.000 C 
ENDBRANCH  18  19
ENDBRANCH  17  18
ENDBRANCH  14  17
ENDBRANCH  11  13
ENDBRANCH   2   7
BRANCH   4  25
ATOM     25  C   UNL     1      -5.695  13.013  21.473  0.00  0.00    +0.000 A 
ATOM     26  C   UNL     1      -5.228  14.173  22.127  0.00  0.00    +0.000 A 
ATOM     27  C   UNL     1      -5.824  14.650  23.300  0.00  0.00    +0.000 A 
ATOM     28  C   UNL     1      -6.904  13.973  23.857  0.00  0.00    +0.000 A 
ATOM     29  C   UNL     1      -7.385  12.820  23.246  0.00  0.00    +0.000 A 
ATOM     30  C   UNL     1      -6.787  12.349  22.072  0.00  0.00    +0.000 A 
BRANCH  30  31
ATOM     31  O   UNL     1      -7.286  11.199  21.517  0.00  0.00    +0.000 OA
ATOM     32  H   UNL     1      -6.639  10.832  20.893  0.00  0.00    +0.000 HD
ENDBRANCH  30  31
ENDBRANCH   4  25
BRANCH   1  34
ATOM     33  N   UNL     1      -3.171  10.732  15.536  0.00  0.00    +0.000 NA
ATOM     34  C   UNL     1      -3.519  11.164  16.555  0.00  0.00    +0.000 C 
ENDBRANCH   1  34
BRANCH   6  35
ATOM     35  O   UNL     1      -6.207  11.757  17.020  0.00  0.00    +0.000 OA
ATOM     36  H   UNL     1      -6.666  10.952  17.324  0.00  0.00    +0.000 HD
ENDBRANCH   6  35
TORSDOF 9
ENDMDL
MODEL 4
REMARK VINA RESULT:      -7.6      1.724      2.314
REMARK  Name = 
REMARK  9 active torsions:
REMARK  status: ('A' for Active; 'I' for Inactive)
REMARK    1  A    between atoms: C_2  and  C_3
REMARK    2  A    between atoms: C_4  and  C_5
REMARK    3  A    between atoms: C_9  and  N_10
REMARK    4  A    between atoms: C_11  and  C_13
REMARK    5  A    between atoms: C_13  and  C_14
REMARK    6  A    between atoms: C_14  and  N_15
REMARK    7  A    between atoms: C_23  and  C_24
REMARK    8  A    between atoms: C_29  and  O_30
REMARK    9  A    between atoms: C_32  and  O_33
REMARK                            x       y       z     vdW  Elec       q    Type
REMARK                         _______ _______ _______ _____ _____    ______ ____
ROOT
ATOM      1  C   UNL     1      -3.409  11.496  17.647  0.00  0.00    +0.000 A 
ATOM      2  C   UNL     1      -2.520  11.785  18.694  0.00  0.00    +0.000 A 
ATOM      3  C   UNL     1      -3.095  12.300  19.877  0.00  0.00    +0.000 A 
ATOM      4  C   UNL     1      -4.465  12.548  19.993  0.00  0.00    +0.000 A 
ATOM      5  N   UNL     1      -5.304  12.279  18.965  0.00  0.00    +0.000 NA
ATOM      6  C   UNL     1      -4.755  11.776  17.844  0.00  0.00    +0.000 A 
ENDROOT
BRANCH   2   7
ATOM      7  C   UNL     1      -1.040  11.614  18.635  0.00  0.00    +0.000 A 
ATOM      8  C   UNL     1      -0.158  12.705  18.581  0.00  0.00    +0.000 A 
ATOM      9  C   UNL     1       1.229  12.526  18.586  0.00  0.00    +0.000 A 
ATOM     10  C   UNL     1       1.776  11.253  18.701  0.00  0.00    +0.000 A 
ATOM     11  C   UNL     1       0.939  10.152  18.777  0.00  0.00    +0.000 A 
ATOM     12  C   UNL     1      -0.453  10.334  18.714  0.00  0.00    +0.000 A 
BRANCH  11  13
ATOM     13  N   UNL     1       1.406   8.838  18.911  0.00  0.00    +0.000 N 
ATOM     14  C   UNL     1       2.242   8.127  18.075  0.00  0.00    +0.000 C 
ATOM     15  O   UNL     1       2.740   8.536  17.030  0.00  0.00    +0.000 OA
ATOM     16  H   UNL     1       1.143   8.357  19.773  0.00  0.00    +0.000 HD
BRANCH  14  17
ATOM     17  C   UNL     1       2.482   6.689  18.522  0.00  0.00    +0.000 C 
BRANCH  17  18
ATOM     18  C   UNL     1       3.942   6.342  18.851  0.00  0.00    +0.000 C 
BRANCH  18  19
ATOM     19  N   UNL     1       4.747   5.985  17.658  0.00  0.00    +0.000 NA
ATOM     20  C   UNL     1       6.196   6.038  17.924  0.00  0.00    +0.000 C 
ATOM     21  C   UNL     1       6.996   5.760  16.651  0.00  0.00    +0.000 C 
ATOM     22  C   UNL     1       6.610   4.419  16.044  0.00  0.00    +0.000 C 
ATOM     23  C   UNL     1       5.103   4.350  15.835  0.00  0.00    +0.000 C 
ATOM     24  C   UNL     1       4.346   4.673  17.126  0.00  0.00    +0.000 C 
ENDBRANCH  18  19
ENDBRANCH  17  18
ENDBRANCH  14  17
ENDBRANCH  11  13
ENDBRANCH   2   7
BRANCH   4  25
ATOM     25  C   UNL     1      -5.088  13.071  21.234  0.00  0.00    +0.000 A 
ATOM     26  C   UNL     1      -4.559  14.226  21.848  0.00  0.00    +0.000 A 
ATOM     27  C   UNL     1      -5.130  14.777  23.000  0.00  0.00    +0.000 A 
ATOM     28  C   UNL     1      -6.248  14.183  23.576  0.00  0.00    +0.000 A 
ATOM     29  C   UNL     1      -6.792  13.037  23.004  0.00  0.00    +0.000 A 
ATOM     30  C   UNL     1      -6.217  12.491  21.851  0.00  0.00    +0.000 A 
BRANCH  30  31
ATOM     31  O   UNL     1      -6.779  11.352  21.335  0.00  0.00    +0.000 OA
ATOM     32  H   UNL     1      -6.104  10.845  20.856  0.00  0.00    +0.000 HD
ENDBRANCH  30  31
ENDBRANCH   4  25
BRANCH   1  34
ATOM     33  N   UNL     1      -2.667  10.461  15.389  0.00  0.00    +0.000 NA
ATOM     34  C   UNL     1      -3.003  10.912  16.404  0.00  0.00    +0.000 C 
ENDBRANCH   1  34
BRANCH   6  35
ATOM     35  O   UNL     1      -5.678  11.559  16.870  0.00  0.00    +0.000 OA
ATOM     36  H   UNL     1      -6.503  11.651  17.379  0.00  0.00    +0.000 HD
ENDBRANCH   6  35
TORSDOF 9
ENDMDL
MODEL 5
REMARK VINA RESULT:      -7.6      2.028      2.584
REMARK  Name = 
REMARK  9 active torsions:
REMARK  status: ('A' for Active; 'I' for Inactive)
REMARK    1  A    between atoms: C_2  and  C_3
REMARK    2  A    between atoms: C_4  and  C_5
REMARK    3  A    between atoms: C_9  and  N_10
REMARK    4  A    between atoms: C_11  and  C_13
REMARK    5  A    between atoms: C_13  and  C_14
REMARK    6  A    between atoms: C_14  and  N_15
REMARK    7  A    between atoms: C_23  and  C_24
REMARK    8  A    between atoms: C_29  and  O_30
REMARK    9  A    between atoms: C_32  and  O_33
REMARK                            x       y       z     vdW  Elec       q    Type
REMARK                         _______ _______ _______ _____ _____    ______ ____
ROOT
ATOM      1  C   UNL     1      -3.206  11.426  17.621  0.00  0.00    +0.000 A 
ATOM      2  C   UNL     1      -2.262  11.767  18.601  0.00  0.00    +0.000 A 
ATOM      3  C   UNL     1      -2.774  12.312  19.799  0.00  0.00    +0.000 A 
ATOM      4  C   UNL     1      -4.139  12.541  19.990  0.00  0.00    +0.000 A 
ATOM      5  N   UNL     1      -5.034  12.223  19.025  0.00  0.00    +0.000 NA
ATOM      6  C   UNL     1      -4.543  11.690  17.890  0.00  0.00    +0.000 A 
ENDROOT
BRANCH   2   7
ATOM      7  C   UNL     1      -0.785  11.619  18.458  0.00  0.00    +0.000 A 
ATOM      8  C   UNL     1       0.101  12.688  18.660  0.00  0.00    +0.000 A 
ATOM      9  C   UNL     1       1.487  12.516  18.580  0.00  0.00    +0.000 A 
ATOM     10  C   UNL     1       2.030  11.257  18.348  0.00  0.00    +0.000 A 
ATOM     11  C   UNL     1       1.188  10.172  18.163  0.00  0.00    +0.000 A 
ATOM     12  C   UNL     1      -0.203  10.362  18.189  0.00  0.00    +0.000 A 
BRANCH  11  13
ATOM     13  N   UNL     1       1.651   8.869  17.942  0.00  0.00    +0.000 N 
ATOM     14  C   UNL     1       1.980   7.898  18.864  0.00  0.00    +0.000 C 
ATOM     15  O   UNL     1       1.923   8.011  20.086  0.00  0.00    +0.000 OA
ATOM     16  H   UNL     1       1.697   8.572  16.965  0.00  0.00    +0.000 HD
BRANCH  14  17
ATOM     17  C   UNL     1       2.510   6.611  18.242  0.00  0.00    +0.000 C 
BRANCH  17  18
ATOM     18  C   UNL     1       3.653   5.934  19.014  0.00  0.00    +0.000 C 
BRANCH  18  19
ATOM     19  N   UNL     1       4.922   5.867  18.251  0.00  0.00    +0.000 NA
ATOM     20  C   UNL     1       6.038   5.347  19.063  0.00  0.00    +0.000 C 
ATOM     21  C   UNL     1       7.349   5.381  18.277  0.00  0.00    +0.000 C 
ATOM     22  C   UNL     1       7.226   4.605  16.974  0.00  0.00    +0.000 C 
ATOM     23  C   UNL     1       6.031   5.105  16.174  0.00  0.00    +0.000 C 
ATOM     24  C   UNL     1       4.752   5.089  17.014  0.00  0.00    +0.000 C 
ENDBRANCH  18  19
ENDBRANCH  17  18
ENDBRANCH  14  17
ENDBRANCH  11  13
ENDBRANCH   2   7
BRANCH   4  25
ATOM     25  C   UNL     1      -4.696  13.096  21.249  0.00  0.00    +0.000 A 
ATOM     26  C   UNL     1      -4.130  12.725  22.487  0.00  0.00    +0.000 A 
ATOM     27  C   UNL     1      -4.598  13.245  23.698  0.00  0.00    +0.000 A 
ATOM     28  C   UNL     1      -5.654  14.151  23.706  0.00  0.00    +0.000 A 
ATOM     29  C   UNL     1      -6.244  14.532  22.505  0.00  0.00    +0.000 A 
ATOM     30  C   UNL     1      -5.771  14.010  21.296  0.00  0.00    +0.000 A 
BRANCH  30  31
ATOM     31  O   UNL     1      -6.396  14.404  20.142  0.00  0.00    +0.000 OA
ATOM     32  H   UNL     1      -6.947  15.183  20.321  0.00  0.00    +0.000 HD
ENDBRANCH  30  31
ENDBRANCH   4  25
BRANCH   1  34
ATOM     33  N   UNL     1      -2.610  10.313  15.357  0.00  0.00    +0.000 NA
ATOM     34  C   UNL     1      -2.865  10.807  16.376  0.00  0.00    +0.000 C 
ENDBRANCH   1  34
BRANCH   6  35
ATOM     35  O   UNL     1      -5.519  11.425  16.982  0.00  0.00    +0.000 OA
ATOM     36  H   UNL     1      -5.510  10.451  16.985  0.00  0.00    +0.000 HD
ENDBRANCH   6  35
TORSDOF 9
ENDMDL
MODEL 6
REMARK VINA RESULT:      -7.5      5.179      9.535
REMARK  Name = 
REMARK  9 active torsions:
REMARK  status: ('A' for Active; 'I' for Inactive)
REMARK    1  A    between atoms: C_2  and  C_3
REMARK    2  A    between atoms: C_4  and  C_5
REMARK    3  A    between atoms: C_9  and  N_10
REMARK    4  A    between atoms: C_11  and  C_13
REMARK    5  A    between atoms: C_13  and  C_14
REMARK    6  A    between atoms: C_14  and  N_15
REMARK    7  A    between atoms: C_23  and  C_24
REMARK    8  A    between atoms: C_29  and  O_30
REMARK    9  A    between atoms: C_32  and  O_33
REMARK                            x       y       z     vdW  Elec       q    Type
REMARK                         _______ _______ _______ _____ _____    ______ ____
ROOT
ATOM      1  C   UNL     1       2.576   4.431  19.532  0.00  0.00    +0.000 A 
ATOM      2  C   UNL     1       3.156   5.582  18.978  0.00  0.00    +0.000 A 
ATOM      3  C   UNL     1       2.626   6.818  19.408  0.00  0.00    +0.000 A 
ATOM      4  C   UNL     1       1.556   6.899  20.303  0.00  0.00    +0.000 A 
ATOM      5  N   UNL     1       0.996   5.776  20.813  0.00  0.00    +0.000 NA
ATOM      6  C   UNL     1       1.515   4.600  20.412  0.00  0.00    +0.000 A 
ENDROOT
BRANCH   2   7
ATOM      7  C   UNL     1       4.255   5.589  17.969  0.00  0.00    +0.000 A 
ATOM      8  C   UNL     1       4.332   4.643  16.935  0.00  0.00    +0.000 A 
ATOM      9  C   UNL     1       5.336   4.702  15.963  0.00  0.00    +0.000 A 
ATOM     10  C   UNL     1       6.262   5.739  15.966  0.00  0.00    +0.000 A 
ATOM     11  C   UNL     1       6.207   6.703  16.960  0.00  0.00    +0.000 A 
ATOM     12  C   UNL     1       5.231   6.607  17.965  0.00  0.00    +0.000 A 
BRANCH  11  13
ATOM     13  N   UNL     1       7.089   7.789  17.027  0.00  0.00    +0.000 N 
ATOM     14  C   UNL     1       8.114   8.018  17.920  0.00  0.00    +0.000 C 
ATOM     15  O   UNL     1       8.445   7.283  18.847  0.00  0.00    +0.000 OA
ATOM     16  H   UNL     1       7.004   8.480  16.278  0.00  0.00    +0.000 HD
BRANCH  14  17
ATOM     17  C   UNL     1       8.824   9.352  17.715  0.00  0.00    +0.000 C 
BRANCH  17  18
ATOM     18  C   UNL     1       9.000  10.200  18.984  0.00  0.00    +0.000 C 
BRANCH  18  19
ATOM     19  N   UNL     1       9.373  11.608  18.706  0.00  0.00    +0.000 NA
ATOM     20  C   UNL     1       9.673  12.362  19.937  0.00  0.00    +0.000 C 
ATOM     21  C   UNL     1       9.957  13.831  19.624  0.00  0.00    +0.000 C 
ATOM     22  C   UNL     1      11.094  13.966  18.621  0.00  0.00    +0.000 C 
ATOM     23  C   UNL     1      10.804  13.130  17.380  0.00  0.00    +0.000 C 
ATOM     24  C   UNL     1      10.487  11.679  17.748  0.00  0.00    +0.000 C 
ENDBRANCH  18  19
ENDBRANCH  17  18
ENDBRANCH  14  17
ENDBRANCH  11  13
ENDBRANCH   2   7
BRANCH   4  25
ATOM     25  C   UNL     1       0.997   8.189  20.779  0.00  0.00    +0.000 A 
ATOM     26  C   UNL     1       0.622   8.331  22.132  0.00  0.00    +0.000 A 
ATOM     27  C   UNL     1       0.121   9.535  22.637  0.00  0.00    +0.000 A 
ATOM     28  C   UNL     1      -0.026  10.635  21.798  0.00  0.00    +0.000 A 
ATOM     29  C   UNL     1       0.323  10.529  20.455  0.00  0.00    +0.000 A 
ATOM     30  C   UNL     1       0.826   9.322  19.956  0.00  0.00    +0.000 A 
BRANCH  30  31
ATOM     31  O   UNL     1       1.140   9.264  18.623  0.00  0.00    +0.000 OA
ATOM     32  H   UNL     1       0.447   9.706  18.107  0.00  0.00    +0.000 HD
ENDBRANCH  30  31
ENDBRANCH   4  25
BRANCH   1  34
ATOM     33  N   UNL     1       3.426   2.035  19.025  0.00  0.00    +0.000 NA
ATOM     34  C   UNL     1       3.033   3.103  19.254  0.00  0.00    +0.000 C 
ENDBRANCH   1  34
BRANCH   6  35
ATOM     35  O   UNL     1       0.872   3.539  20.966  0.00  0.00    +0.000 OA
ATOM     36  H   UNL     1      -0.047   3.726  20.703  0.00  0.00    +0.000 HD
ENDBRANCH   6  35
TORSDOF 9
ENDMDL
MODEL 7
REMARK VINA RESULT:      -7.3      5.561      8.041
REMARK  Name = 
REMARK  9 active torsions:
REMARK  status: ('A' for Active; 'I' for Inactive)
REMARK    1  A    between atoms: C_2  and  C_3
REMARK    2  A    between atoms: C_4  and  C_5
REMARK    3  A    between atoms: C_9  and  N_10
REMARK    4  A    between atoms: C_11  and  C_13
REMARK    5  A    between atoms: C_13  and  C_14
REMARK    6  A    between atoms: C_14  and  N_15
REMARK    7  A    between atoms: C_23  and  C_24
REMARK    8  A    between atoms: C_29  and  O_30
REMARK    9  A    between atoms: C_32  and  O_33
REMARK                            x       y       z     vdW  Elec       q    Type
REMARK                         _______ _______ _______ _____ _____    ______ ____
ROOT
ATOM      1  C   UNL     1       0.562  13.764  20.894  0.00  0.00    +0.000 A 
ATOM      2  C   UNL     1       0.529  14.005  19.512  0.00  0.00    +0.000 A 
ATOM      3  C   UNL     1      -0.427  13.274  18.774  0.00  0.00    +0.000 A 
ATOM      4  C   UNL     1      -1.269  12.332  19.371  0.00  0.00    +0.000 A 
ATOM      5  N   UNL     1      -1.209  12.100  20.704  0.00  0.00    +0.000 NA
ATOM      6  C   UNL     1      -0.307  12.809  21.406  0.00  0.00    +0.000 A 
ENDROOT
BRANCH   2   7
ATOM      7  C   UNL     1       1.432  14.941  18.782  0.00  0.00    +0.000 A 
ATOM      8  C   UNL     1       1.089  16.280  18.539  0.00  0.00    +0.000 A 
ATOM      9  C   UNL     1       1.973  17.158  17.904  0.00  0.00    +0.000 A 
ATOM     10  C   UNL     1       3.248  16.738  17.543  0.00  0.00    +0.000 A 
ATOM     11  C   UNL     1       3.632  15.428  17.785  0.00  0.00    +0.000 A 
ATOM     12  C   UNL     1       2.719  14.536  18.370  0.00  0.00    +0.000 A 
BRANCH  11  13
ATOM     13  N   UNL     1       4.901  14.928  17.468  0.00  0.00    +0.000 N 
ATOM     14  C   UNL     1       6.007  14.796  18.281  0.00  0.00    +0.000 C 
ATOM     15  O   UNL     1       6.076  15.106  19.467  0.00  0.00    +0.000 OA
ATOM     16  H   UNL     1       5.010  14.553  16.523  0.00  0.00    +0.000 HD
BRANCH  14  17
ATOM     17  C   UNL     1       7.241  14.262  17.560  0.00  0.00    +0.000 C 
BRANCH  17  18
ATOM     18  C   UNL     1       8.587  14.727  18.138  0.00  0.00    +0.000 C 
BRANCH  18  19
ATOM     19  N   UNL     1       9.686  13.754  17.931  0.00  0.00    +0.000 NA
ATOM     20  C   UNL     1      10.899  14.108  18.692  0.00  0.00    +0.000 C 
ATOM     21  C   UNL     1      12.041  13.141  18.381  0.00  0.00    +0.000 C 
ATOM     22  C   UNL     1      11.632  11.702  18.662  0.00  0.00    +0.000 C 
ATOM     23  C   UNL     1      10.342  11.368  17.924  0.00  0.00    +0.000 C 
ATOM     24  C   UNL     1       9.242  12.385  18.236  0.00  0.00    +0.000 C 
ENDBRANCH  18  19
ENDBRANCH  17  18
ENDBRANCH  14  17
ENDBRANCH  11  13
ENDBRANCH   2   7
BRANCH   4  25
ATOM     25  C   UNL     1      -2.292  11.568  18.614  0.00  0.00    +0.000 A 
ATOM     26  C   UNL     1      -3.658  11.887  18.768  0.00  0.00    +0.000 A 
ATOM     27  C   UNL     1      -4.657  11.218  18.053  0.00  0.00    +0.000 A 
ATOM     28  C   UNL     1      -4.317  10.204  17.164  0.00  0.00    +0.000 A 
ATOM     29  C   UNL     1      -2.982   9.855  16.993  0.00  0.00    +0.000 A 
ATOM     30  C   UNL     1      -1.986  10.528  17.710  0.00  0.00    +0.000 A 
BRANCH  30  31
ATOM     31  O   UNL     1      -0.686  10.137  17.519  0.00  0.00    +0.000 OA
ATOM     32  H   UNL     1      -0.669   9.257  17.109  0.00  0.00    +0.000 HD
ENDBRANCH  30  31
ENDBRANCH   4  25
BRANCH   1  34
ATOM     33  N   UNL     1       2.144  15.012  22.526  0.00  0.00    +0.000 NA
ATOM     34  C   UNL     1       1.426  14.462  21.798  0.00  0.00    +0.000 C 
ENDBRANCH   1  34
BRANCH   6  35
ATOM     35  O   UNL     1      -0.315  12.489  22.727  0.00  0.00    +0.000 OA
ATOM     36  H   UNL     1      -0.243  11.518  22.679  0.00  0.00    +0.000 HD
ENDBRANCH   6  35
TORSDOF 9
ENDMDL
MODEL 8
REMARK VINA RESULT:      -7.3      1.218      1.497
REMARK  Name = 
REMARK  9 active torsions:
REMARK  status: ('A' for Active; 'I' for Inactive)
REMARK    1  A    between atoms: C_2  and  C_3
REMARK    2  A    between atoms: C_4  and  C_5
REMARK    3  A    between atoms: C_9  and  N_10
REMARK    4  A    between atoms: C_11  and  C_13
REMARK    5  A    between atoms: C_13  and  C_14
REMARK    6  A    between atoms: C_14  and  N_15
REMARK    7  A    between atoms: C_23  and  C_24
REMARK    8  A    between atoms: C_29  and  O_30
REMARK    9  A    between atoms: C_32  and  O_33
REMARK                            x       y       z     vdW  Elec       q    Type
REMARK                         _______ _______ _______ _____ _____    ______ ____
ROOT
ATOM      1  C   UNL     1      -3.688  11.659  17.710  0.00  0.00    +0.000 A 
ATOM      2  C   UNL     1      -2.803  12.034  18.732  0.00  0.00    +0.000 A 
ATOM      3  C   UNL     1      -3.391  12.458  19.944  0.00  0.00    +0.000 A 
ATOM      4  C   UNL     1      -4.776  12.541  20.111  0.00  0.00    +0.000 A 
ATOM      5  N   UNL     1      -5.615  12.192  19.105  0.00  0.00    +0.000 NA
ATOM      6  C   UNL     1      -5.050  11.775  17.957  0.00  0.00    +0.000 A 
ENDROOT
BRANCH   2   7
ATOM      7  C   UNL     1      -1.316  12.039  18.621  0.00  0.00    +0.000 A 
ATOM      8  C   UNL     1      -0.559  13.218  18.717  0.00  0.00    +0.000 A 
ATOM      9  C   UNL     1       0.839  13.195  18.670  0.00  0.00    +0.000 A 
ATOM     10  C   UNL     1       1.524  11.989  18.580  0.00  0.00    +0.000 A 
ATOM     11  C   UNL     1       0.812  10.802  18.503  0.00  0.00    +0.000 A 
ATOM     12  C   UNL     1      -0.592  10.835  18.494  0.00  0.00    +0.000 A 
BRANCH  11  13
ATOM     13  N   UNL     1       1.422   9.543  18.427  0.00  0.00    +0.000 N 
ATOM     14  C   UNL     1       1.719   8.662  19.445  0.00  0.00    +0.000 C 
ATOM     15  O   UNL     1       1.492   8.833  20.641  0.00  0.00    +0.000 OA
ATOM     16  H   UNL     1       1.622   9.201  17.485  0.00  0.00    +0.000 HD
BRANCH  14  17
ATOM     17  C   UNL     1       2.445   7.404  18.980  0.00  0.00    +0.000 C 
BRANCH  17  18
ATOM     18  C   UNL     1       2.207   6.156  19.844  0.00  0.00    +0.000 C 
BRANCH  18  19
ATOM     19  N   UNL     1       1.901   4.940  19.052  0.00  0.00    +0.000 NA
ATOM     20  C   UNL     1       3.079   4.434  18.323  0.00  0.00    +0.000 C 
ATOM     21  C   UNL     1       2.707   3.241  17.443  0.00  0.00    +0.000 C 
ATOM     22  C   UNL     1       2.068   2.132  18.267  0.00  0.00    +0.000 C 
ATOM     23  C   UNL     1       0.894   2.680  19.067  0.00  0.00    +0.000 C 
ATOM     24  C   UNL     1       1.306   3.896  19.900  0.00  0.00    +0.000 C 
ENDBRANCH  18  19
ENDBRANCH  17  18
ENDBRANCH  14  17
ENDBRANCH  11  13
ENDBRANCH   2   7
BRANCH   4  25
ATOM     25  C   UNL     1      -5.413  12.967  21.382  0.00  0.00    +0.000 A 
ATOM     26  C   UNL     1      -6.664  13.618  21.353  0.00  0.00    +0.000 A 
ATOM     27  C   UNL     1      -7.320  14.010  22.525  0.00  0.00    +0.000 A 
ATOM     28  C   UNL     1      -6.737  13.766  23.764  0.00  0.00    +0.000 A 
ATOM     29  C   UNL     1      -5.499  13.136  23.832  0.00  0.00    +0.000 A 
ATOM     30  C   UNL     1      -4.848  12.744  22.656  0.00  0.00    +0.000 A 
BRANCH  30  31
ATOM     31  O   UNL     1      -3.623  12.141  22.775  0.00  0.00    +0.000 OA
ATOM     32  H   UNL     1      -2.930  12.820  22.822  0.00  0.00    +0.000 HD
ENDBRANCH  30  31
ENDBRANCH   4  25
BRANCH   1  34
ATOM     33  N   UNL     1      -2.900  10.753  15.412  0.00  0.00    +0.000 NA
ATOM     34  C   UNL     1      -3.260  11.147  16.443  0.00  0.00    +0.000 C 
ENDBRANCH   1  34
BRANCH   6  35
ATOM     35  O   UNL     1      -5.974  11.468  17.010  0.00  0.00    +0.000 OA
ATOM     36  H   UNL     1      -6.462  12.309  16.953  0.00  0.00    +0.000 HD
ENDBRANCH   6  35
TORSDOF 9
ENDMDL
MODEL 9
REMARK VINA RESULT:      -7.2      5.091     10.395
REMARK  Name = 
REMARK  9 active torsions:
REMARK  status: ('A' for Active; 'I' for Inactive)
REMARK    1  A    between atoms: C_2  and  C_3
REMARK    2  A    between atoms: C_4  and  C_5
REMARK    3  A    between atoms: C_9  and  N_10
REMARK    4  A    between atoms: C_11  and  C_13
REMARK    5  A    between atoms: C_13  and  C_14
REMARK    6  A    between atoms: C_14  and  N_15
REMARK    7  A    between atoms: C_23  and  C_24
REMARK    8  A    between atoms: C_29  and  O_30
REMARK    9  A    between atoms: C_32  and  O_33
REMARK                            x       y       z     vdW  Elec       q    Type
REMARK                         _______ _______ _______ _____ _____    ______ ____
ROOT
ATOM      1  C   UNL     1       1.665   7.857  20.143  0.00  0.00    +0.000 A 
ATOM      2  C   UNL     1       1.910   8.578  18.965  0.00  0.00    +0.000 A 
ATOM      3  C   UNL     1       2.701   7.931  17.990  0.00  0.00    +0.000 A 
ATOM      4  C   UNL     1       3.247   6.661  18.195  0.00  0.00    +0.000 A 
ATOM      5  N   UNL     1       3.014   5.988  19.348  0.00  0.00    +0.000 NA
ATOM      6  C   UNL     1       2.247   6.602  20.268  0.00  0.00    +0.000 A 
ENDROOT
BRANCH   2   7
ATOM      7  C   UNL     1       1.425   9.960  18.687  0.00  0.00    +0.000 A 
ATOM      8  C   UNL     1       0.088  10.341  18.882  0.00  0.00    +0.000 A 
ATOM      9  C   UNL     1      -0.336  11.657  18.673  0.00  0.00    +0.000 A 
ATOM     10  C   UNL     1       0.575  12.644  18.315  0.00  0.00    +0.000 A 
ATOM     11  C   UNL     1       1.908  12.312  18.133  0.00  0.00    +0.000 A 
ATOM     12  C   UNL     1       2.317  10.977  18.289  0.00  0.00    +0.000 A 
BRANCH  11  13
ATOM     13  N   UNL     1       2.893  13.247  17.790  0.00  0.00    +0.000 N 
ATOM     14  C   UNL     1       3.467  14.226  18.572  0.00  0.00    +0.000 C 
ATOM     15  O   UNL     1       3.205  14.460  19.749  0.00  0.00    +0.000 OA
ATOM     16  H   UNL     1       3.286  13.155  16.851  0.00  0.00    +0.000 HD
BRANCH  14  17
ATOM     17  C   UNL     1       4.471  15.100  17.827  0.00  0.00    +0.000 C 
BRANCH  17  18
ATOM     18  C   UNL     1       5.176  16.162  18.685  0.00  0.00    +0.000 C 
BRANCH  18  19
ATOM     19  N   UNL     1       6.584  15.826  19.002  0.00  0.00    +0.000 NA
ATOM     20  C   UNL     1       6.704  14.998  20.216  0.00  0.00    +0.000 C 
ATOM     21  C   UNL     1       8.170  14.751  20.569  0.00  0.00    +0.000 C 
ATOM     22  C   UNL     1       8.912  14.107  19.406  0.00  0.00    +0.000 C 
ATOM     23  C   UNL     1       8.727  14.936  18.141  0.00  0.00    +0.000 C 
ATOM     24  C   UNL     1       7.246  15.189  17.852  0.00  0.00    +0.000 C 
ENDBRANCH  18  19
ENDBRANCH  17  18
ENDBRANCH  14  17
ENDBRANCH  11  13
ENDBRANCH   2   7
BRANCH   4  25
ATOM     25  C   UNL     1       4.065   5.959  17.176  0.00  0.00    +0.000 A 
ATOM     26  C   UNL     1       4.894   6.705  16.311  0.00  0.00    +0.000 A 
ATOM     27  C   UNL     1       5.709   6.088  15.356  0.00  0.00    +0.000 A 
ATOM     28  C   UNL     1       5.713   4.703  15.233  0.00  0.00    +0.000 A 
ATOM     29  C   UNL     1       4.901   3.935  16.062  0.00  0.00    +0.000 A 
ATOM     30  C   UNL     1       4.090   4.557  17.018  0.00  0.00    +0.000 A 
BRANCH  30  31
ATOM     31  O   UNL     1       3.296   3.758  17.799  0.00  0.00    +0.000 OA
ATOM     32  H   UNL     1       3.698   3.660  18.677  0.00  0.00    +0.000 HD
ENDBRANCH  30  31
ENDBRANCH   4  25
BRANCH   1  34
ATOM     33  N   UNL     1       0.168   8.708  22.080  0.00  0.00    +0.000 NA
ATOM     34  C   UNL     1       0.833   8.337  21.205  0.00  0.00    +0.000 C 
ENDBRANCH   1  34
BRANCH   6  35
ATOM     35  O   UNL     1       2.090   5.852  21.391  0.00  0.00    +0.000 OA
ATOM     36  H   UNL     1       1.262   5.383  21.181  0.00  0.00    +0.000 HD
ENDBRANCH   6  35
TORSDOF 9
ENDMDL
