MODEL 1
REMARK VINA RESULT:      -7.6      0.000      0.000
REMARK  Name = 
REMARK  3 active torsions:
REMARK  status: ('A' for Active; 'I' for Inactive)
REMARK    1  A    between atoms: C_1  and  C_2
REMARK    2  A    between atoms: C_8  and  C_10
REMARK    3  A    between atoms: C_13  and  C_14
REMARK                            x       y       z     vdW  Elec       q    Type
REMARK                         _______ _______ _______ _____ _____    ______ ____
ROOT
ATOM      1  C   UNL     1       4.843   5.642  17.537  0.00  0.00    +0.000 A 
ATOM      2  C   UNL     1       5.091   4.719  18.540  0.00  0.00    +0.000 A 
ATOM      3  N   UNL     1       4.270   4.568  19.610  0.00  0.00    +0.000 NA
ATOM      4  C   UNL     1       3.185   5.386  19.658  0.00  0.00    +0.000 A 
ATOM      5  C   UNL     1       2.983   6.355  18.674  0.00  0.00    +0.000 A 
ATOM      6  N   UNL     1       3.783   6.499  17.579  0.00  0.00    +0.000 NA
ENDROOT
BRANCH   1  14
ATOM      7  C   UNL     1       6.145   2.210  11.198  0.00  0.00    +0.000 C 
ATOM      8  C   UNL     1       6.499   3.320  12.141  0.00  0.00    +0.000 A 
ATOM      9  C   UNL     1       7.512   4.221  11.820  0.00  0.00    +0.000 A 
ATOM     10  C   UNL     1       7.803   5.225  12.720  0.00  0.00    +0.000 A 
ATOM     11  N   UNL     1       7.157   5.386  13.892  0.00  0.00    +0.000 NA
ATOM     12  C   UNL     1       6.174   4.527  14.209  0.00  0.00    +0.000 A 
ATOM     13  N   UNL     1       5.471   4.686  15.411  0.00  0.00    +0.000 N 
ATOM     14  C   UNL     1       5.733   5.672  16.345  0.00  0.00    +0.000 C 
ATOM     15  O   UNL     1       6.611   6.527  16.307  0.00  0.00    +0.000 OA
ATOM     16  C   UNL     1       5.820   3.477  13.360  0.00  0.00    +0.000 A 
ATOM     17  H   UNL     1       4.711   4.051  15.627  0.00  0.00    +0.000 HD
ENDBRANCH   1  14
BRANCH   4  18
ATOM     18  C   UNL     1       2.213   5.118  20.788  0.00  0.00    +0.000 C 
ATOM     19  C   UNL     1       2.748   4.144  21.857  0.00  0.00    +0.000 C 
ATOM     20  C   UNL     1       2.359   2.681  21.637  0.00  0.00    +0.000 C 
ATOM     21  C   UNL     1       0.912   2.520  21.187  0.00  0.00    +0.000 C 
ATOM     22  N   UNL     1       0.659   3.321  19.990  0.00  0.00    +0.000 NA
ATOM     23  C   UNL     1       0.807   4.749  20.295  0.00  0.00    +0.000 C 
ATOM     24  H   UNL     1      -0.299   3.153  19.676  0.00  0.00    +0.000 HD
ENDBRANCH   4  18
TORSDOF 2
ENDMDL
MODEL 2
REMARK VINA RESULT:      -7.3      5.139      8.978
REMARK  Name = 
REMARK  3 active torsions:
REMARK  status: ('A' for Active; 'I' for Inactive)
REMARK    1  A    between atoms: C_1  and  C_2
REMARK    2  A    between atoms: C_8  and  C_10
REMARK    3  A    between atoms: C_13  and  C_14
REMARK                            x       y       z     vdW  Elec       q    Type
REMARK                         _______ _______ _______ _____ _____    ______ ____
ROOT
ATOM      1  C   UNL     1       1.774   7.604  20.153  0.00  0.00    +0.000 A 
ATOM      2  C   UNL     1       1.860   6.305  20.625  0.00  0.00    +0.000 A 
ATOM      3  N   UNL     1       2.469   5.315  19.924  0.00  0.00    +0.000 NA
ATOM      4  C   UNL     1       2.984   5.661  18.714  0.00  0.00    +0.000 A 
ATOM      5  C   UNL     1       2.832   6.959  18.223  0.00  0.00    +0.000 A 
ATOM      6  N   UNL     1       2.249   7.970  18.928  0.00  0.00    +0.000 NA
ENDROOT
BRANCH   1  14
ATOM      7  C   UNL     1      -2.992  13.167  20.116  0.00  0.00    +0.000 C 
ATOM      8  C   UNL     1      -2.023  12.326  20.891  0.00  0.00    +0.000 A 
ATOM      9  C   UNL     1      -1.814  12.561  22.248  0.00  0.00    +0.000 A 
ATOM     10  C   UNL     1      -0.911  11.763  22.918  0.00  0.00    +0.000 A 
ATOM     11  N   UNL     1      -0.222  10.763  22.333  0.00  0.00    +0.000 NA
ATOM     12  C   UNL     1      -0.420  10.523  21.026  0.00  0.00    +0.000 A 
ATOM     13  N   UNL     1       0.267   9.475  20.398  0.00  0.00    +0.000 N 
ATOM     14  C   UNL     1       1.186   8.654  21.028  0.00  0.00    +0.000 C 
ATOM     15  O   UNL     1       1.573   8.715  22.190  0.00  0.00    +0.000 OA
ATOM     16  C   UNL     1      -1.309  11.289  20.270  0.00  0.00    +0.000 A 
ATOM     17  H   UNL     1       0.088   9.282  19.419  0.00  0.00    +0.000 HD
ENDBRANCH   1  14
BRANCH   4  18
ATOM     18  C   UNL     1       3.770   4.579  18.004  0.00  0.00    +0.000 C 
ATOM     19  C   UNL     1       2.909   3.662  17.112  0.00  0.00    +0.000 C 
ATOM     20  C   UNL     1       2.427   2.381  17.794  0.00  0.00    +0.000 C 
ATOM     21  C   UNL     1       3.506   1.732  18.653  0.00  0.00    +0.000 C 
ATOM     22  N   UNL     1       4.025   2.688  19.628  0.00  0.00    +0.000 NA
ATOM     23  C   UNL     1       4.699   3.797  18.943  0.00  0.00    +0.000 C 
ATOM     24  H   UNL     1       4.705   2.215  20.227  0.00  0.00    +0.000 HD
ENDBRANCH   4  18
TORSDOF 2
ENDMDL
MODEL 3
REMARK VINA RESULT:      -7.3      4.442      8.839
REMARK  Name = 
REMARK  3 active torsions:
REMARK  status: ('A' for Active; 'I' for Inactive)
REMARK    1  A    between atoms: C_1  and  C_2
REMARK    2  A    between atoms: C_8  and  C_10
REMARK    3  A    between atoms: C_13  and  C_14
REMARK                            x       y       z     vdW  Elec       q    Type
REMARK                         _______ _______ _______ _____ _____    ______ ____
ROOT
ATOM      1  C   UNL     1       2.410   7.875  18.665  0.00  0.00    +0.000 A 
ATOM      2  C   UNL     1       3.280   7.763  17.592  0.00  0.00    +0.000 A 
ATOM      3  N   UNL     1       4.097   6.692  17.427  0.00  0.00    +0.000 NA
ATOM      4  C   UNL     1       4.031   5.729  18.385  0.00  0.00    +0.000 A 
ATOM      5  C   UNL     1       3.197   5.886  19.493  0.00  0.00    +0.000 A 
ATOM      6  N   UNL     1       2.350   6.941  19.658  0.00  0.00    +0.000 NA
ENDROOT
BRANCH   1  14
ATOM      7  C   UNL     1      -1.789  11.714  23.278  0.00  0.00    +0.000 C 
ATOM      8  C   UNL     1      -1.277  11.523  21.882  0.00  0.00    +0.000 A 
ATOM      9  C   UNL     1      -1.662  12.392  20.864  0.00  0.00    +0.000 A 
ATOM     10  C   UNL     1      -1.165  12.175  19.597  0.00  0.00    +0.000 A 
ATOM     11  N   UNL     1      -0.322  11.170  19.288  0.00  0.00    +0.000 NA
ATOM     12  C   UNL     1       0.061  10.328  20.263  0.00  0.00    +0.000 A 
ATOM     13  N   UNL     1       0.954   9.288  19.974  0.00  0.00    +0.000 N 
ATOM     14  C   UNL     1       1.472   9.028  18.717  0.00  0.00    +0.000 C 
ATOM     15  O   UNL     1       1.226   9.616  17.669  0.00  0.00    +0.000 OA
ATOM     16  C   UNL     1      -0.401  10.470  21.572  0.00  0.00    +0.000 A 
ATOM     17  H   UNL     1       1.261   8.677  20.722  0.00  0.00    +0.000 HD
ENDBRANCH   1  14
BRANCH   4  18
ATOM     18  C   UNL     1       4.852   4.484  18.120  0.00  0.00    +0.000 C 
ATOM     19  C   UNL     1       6.344   4.630  18.481  0.00  0.00    +0.000 C 
ATOM     20  C   UNL     1       7.243   5.051  17.318  0.00  0.00    +0.000 C 
ATOM     21  C   UNL     1       6.892   4.340  16.017  0.00  0.00    +0.000 C 
ATOM     22  N   UNL     1       5.480   4.538  15.694  0.00  0.00    +0.000 NA
ATOM     23  C   UNL     1       4.633   3.908  16.713  0.00  0.00    +0.000 C 
ATOM     24  H   UNL     1       5.282   4.100  14.792  0.00  0.00    +0.000 HD
ENDBRANCH   4  18
TORSDOF 2
ENDMDL
MODEL 4
REMARK VINA RESULT:      -7.2      6.236     10.279
REMARK  Name = 
REMARK  3 active torsions:
REMARK  status: ('A' for Active; 'I' for Inactive)
REMARK    1  A    between atoms: C_1  and  C_2
REMARK    2  A    between atoms: C_8  and  C_10
REMARK    3  A    between atoms: C_13  and  C_14
REMARK                            x       y       z     vdW  Elec       q    Type
REMARK                         _______ _______ _______ _____ _____    ______ ____
ROOT
ATOM      1  C   UNL     1       1.028   9.552  20.416  0.00  0.00    +0.000 A 
ATOM      2  C   UNL     1       1.027   8.481  21.294  0.00  0.00    +0.000 A 
ATOM      3  N   UNL     1       1.562   7.276  20.972  0.00  0.00    +0.000 NA
ATOM      4  C   UNL     1       2.093   7.166  19.725  0.00  0.00    +0.000 A 
ATOM      5  C   UNL     1       2.028   8.234  18.829  0.00  0.00    +0.000 A 
ATOM      6  N   UNL     1       1.520   9.458  19.148  0.00  0.00    +0.000 NA
ENDROOT
BRANCH   1  14
ATOM      7  C   UNL     1      -4.169  12.600  24.583  0.00  0.00    +0.000 C 
ATOM      8  C   UNL     1      -2.975  12.788  23.696  0.00  0.00    +0.000 A 
ATOM      9  C   UNL     1      -2.475  14.065  23.448  0.00  0.00    +0.000 A 
ATOM     10  C   UNL     1      -1.377  14.188  22.625  0.00  0.00    +0.000 A 
ATOM     11  N   UNL     1      -0.754  13.140  22.050  0.00  0.00    +0.000 NA
ATOM     12  C   UNL     1      -1.224  11.903  22.287  0.00  0.00    +0.000 A 
ATOM     13  N   UNL     1      -0.582  10.794  21.720  0.00  0.00    +0.000 N 
ATOM     14  C   UNL     1       0.518  10.870  20.883  0.00  0.00    +0.000 C 
ATOM     15  O   UNL     1       1.083  11.880  20.478  0.00  0.00    +0.000 OA
ATOM     16  C   UNL     1      -2.337  11.689  23.101  0.00  0.00    +0.000 A 
ATOM     17  H   UNL     1      -0.925   9.863  21.928  0.00  0.00    +0.000 HD
ENDBRANCH   1  14
BRANCH   4  18
ATOM     18  C   UNL     1       2.799   5.859  19.428  0.00  0.00    +0.000 C 
ATOM     19  C   UNL     1       2.623   5.368  17.976  0.00  0.00    +0.000 C 
ATOM     20  C   UNL     1       1.467   4.389  17.771  0.00  0.00    +0.000 C 
ATOM     21  C   UNL     1       1.364   3.359  18.889  0.00  0.00    +0.000 C 
ATOM     22  N   UNL     1       1.272   4.024  20.188  0.00  0.00    +0.000 NA
ATOM     23  C   UNL     1       2.506   4.768  20.467  0.00  0.00    +0.000 C 
ATOM     24  H   UNL     1       1.148   3.316  20.914  0.00  0.00    +0.000 HD
ENDBRANCH   4  18
TORSDOF 2
ENDMDL
MODEL 5
REMARK VINA RESULT:      -7.2      5.182      8.970
REMARK  Name = 
REMARK  3 active torsions:
REMARK  status: ('A' for Active; 'I' for Inactive)
REMARK    1  A    between atoms: C_1  and  C_2
REMARK    2  A    between atoms: C_8  and  C_10
REMARK    3  A    between atoms: C_13  and  C_14
REMARK                            x       y       z     vdW  Elec       q    Type
REMARK                         _______ _______ _______ _____ _____    ______ ____
ROOT
ATOM      1  C   UNL     1       1.742   8.609  19.128  0.00  0.00    +0.000 A 
ATOM      2  C   UNL     1       2.414   8.725  17.922  0.00  0.00    +0.000 A 
ATOM      3  N   UNL     1       3.276   7.776  17.475  0.00  0.00    +0.000 NA
ATOM      4  C   UNL     1       3.462   6.700  18.285  0.00  0.00    +0.000 A 
ATOM      5  C   UNL     1       2.828   6.629  19.527  0.00  0.00    +0.000 A 
ATOM      6  N   UNL     1       1.938   7.558  19.976  0.00  0.00    +0.000 NA
ENDROOT
BRANCH   1  14
ATOM      7  C   UNL     1      -4.670  11.449  17.013  0.00  0.00    +0.000 C 
ATOM      8  C   UNL     1      -3.545  11.443  18.003  0.00  0.00    +0.000 A 
ATOM      9  C   UNL     1      -3.568  12.300  19.102  0.00  0.00    +0.000 A 
ATOM     10  C   UNL     1      -2.510  12.260  19.985  0.00  0.00    +0.000 A 
ATOM     11  N   UNL     1      -1.455  11.433  19.848  0.00  0.00    +0.000 NA
ATOM     12  C   UNL     1      -1.425  10.597  18.795  0.00  0.00    +0.000 A 
ATOM     13  N   UNL     1      -0.351   9.710  18.641  0.00  0.00    +0.000 N 
ATOM     14  C   UNL     1       0.734   9.640  19.497  0.00  0.00    +0.000 C 
ATOM     15  O   UNL     1       0.958  10.334  20.483  0.00  0.00    +0.000 OA
ATOM     16  C   UNL     1      -2.450  10.579  17.848  0.00  0.00    +0.000 A 
ATOM     17  H   UNL     1      -0.351   9.063  17.861  0.00  0.00    +0.000 HD
ENDBRANCH   1  14
BRANCH   4  18
ATOM     18  C   UNL     1       4.324   5.594  17.716  0.00  0.00    +0.000 C 
ATOM     19  C   UNL     1       5.330   5.002  18.724  0.00  0.00    +0.000 C 
ATOM     20  C   UNL     1       6.721   5.635  18.683  0.00  0.00    +0.000 C 
ATOM     21  C   UNL     1       7.206   5.895  17.262  0.00  0.00    +0.000 C 
ATOM     22  N   UNL     1       6.233   6.705  16.531  0.00  0.00    +0.000 NA
ATOM     23  C   UNL     1       4.974   5.968  16.376  0.00  0.00    +0.000 C 
ATOM     24  H   UNL     1       6.605   6.912  15.603  0.00  0.00    +0.000 HD
ENDBRANCH   4  18
TORSDOF 2
ENDMDL
MODEL 6
REMARK VINA RESULT:      -7.1      4.304      6.153
REMARK  Name = 
REMARK  3 active torsions:
REMARK  status: ('A' for Active; 'I' for Inactive)
REMARK    1  A    between atoms: C_1  and  C_2
REMARK    2  A    between atoms: C_8  and  C_10
REMARK    3  A    between atoms: C_13  and  C_14
REMARK                            x       y       z     vdW  Elec       q    Type
REMARK                         _______ _______ _______ _____ _____    ______ ____
ROOT
ATOM      1  C   UNL     1       2.121   7.731  19.033  0.00  0.00    +0.000 A 
ATOM      2  C   UNL     1       1.970   8.772  18.132  0.00  0.00    +0.000 A 
ATOM      3  N   UNL     1       1.464   9.979  18.492  0.00  0.00    +0.000 NA
ATOM      4  C   UNL     1       1.095  10.114  19.794  0.00  0.00    +0.000 A 
ATOM      5  C   UNL     1       1.193   9.035  20.675  0.00  0.00    +0.000 A 
ATOM      6  N   UNL     1       1.726   7.828  20.335  0.00  0.00    +0.000 NA
ENDROOT
BRANCH   1  14
ATOM      7  C   UNL     1       6.995   5.165  14.205  0.00  0.00    +0.000 C 
ATOM      8  C   UNL     1       6.055   4.882  15.337  0.00  0.00    +0.000 A 
ATOM      9  C   UNL     1       5.930   3.590  15.844  0.00  0.00    +0.000 A 
ATOM     10  C   UNL     1       5.052   3.379  16.885  0.00  0.00    +0.000 A 
ATOM     11  N   UNL     1       4.308   4.354  17.444  0.00  0.00    +0.000 NA
ATOM     12  C   UNL     1       4.424   5.605  16.967  0.00  0.00    +0.000 A 
ATOM     13  N   UNL     1       3.680   6.643  17.545  0.00  0.00    +0.000 N 
ATOM     14  C   UNL     1       2.782   6.476  18.584  0.00  0.00    +0.000 C 
ATOM     15  O   UNL     1       2.465   5.430  19.140  0.00  0.00    +0.000 OA
ATOM     16  C   UNL     1       5.284   5.906  15.910  0.00  0.00    +0.000 A 
ATOM     17  H   UNL     1       3.797   7.588  17.199  0.00  0.00    +0.000 HD
ENDBRANCH   1  14
BRANCH   4  18
ATOM     18  C   UNL     1       0.654  11.502  20.209  0.00  0.00    +0.000 C 
ATOM     19  C   UNL     1      -0.868  11.731  20.111  0.00  0.00    +0.000 C 
ATOM     20  C   UNL     1      -1.335  12.352  18.794  0.00  0.00    +0.000 C 
ATOM     21  C   UNL     1      -0.415  13.467  18.312  0.00  0.00    +0.000 C 
ATOM     22  N   UNL     1       0.961  12.983  18.210  0.00  0.00    +0.000 NA
ATOM     23  C   UNL     1       1.469  12.617  19.538  0.00  0.00    +0.000 C 
ATOM     24  H   UNL     1       1.548  13.730  17.833  0.00  0.00    +0.000 HD
ENDBRANCH   4  18
TORSDOF 2
ENDMDL
MODEL 7
REMARK VINA RESULT:      -7.1      5.960      8.753
REMARK  Name = 
REMARK  3 active torsions:
REMARK  status: ('A' for Active; 'I' for Inactive)
REMARK    1  A    between atoms: C_1  and  C_2
REMARK    2  A    between atoms: C_8  and  C_10
REMARK    3  A    between atoms: C_13  and  C_14
REMARK                            x       y       z     vdW  Elec       q    Type
REMARK                         _______ _______ _______ _____ _____    ______ ____
ROOT
ATOM      1  C   UNL     1       1.282   9.711  19.207  0.00  0.00    +0.000 A 
ATOM      2  C   UNL     1       1.195   8.913  20.336  0.00  0.00    +0.000 A 
ATOM      3  N   UNL     1       1.668   7.641  20.367  0.00  0.00    +0.000 NA
ATOM      4  C   UNL     1       2.226   7.178  19.217  0.00  0.00    +0.000 A 
ATOM      5  C   UNL     1       2.248   7.971  18.068  0.00  0.00    +0.000 A 
ATOM      6  N   UNL     1       1.803   9.259  18.031  0.00  0.00    +0.000 NA
ENDROOT
BRANCH   1  14
ATOM      7  C   UNL     1       3.461  16.554  17.767  0.00  0.00    +0.000 C 
ATOM      8  C   UNL     1       2.386  15.640  18.272  0.00  0.00    +0.000 A 
ATOM      9  C   UNL     1       1.163  16.157  18.694  0.00  0.00    +0.000 A 
ATOM     10  C   UNL     1       0.206  15.277  19.153  0.00  0.00    +0.000 A 
ATOM     11  N   UNL     1       0.385  13.943  19.211  0.00  0.00    +0.000 NA
ATOM     12  C   UNL     1       1.559  13.433  18.801  0.00  0.00    +0.000 A 
ATOM     13  N   UNL     1       1.764  12.047  18.830  0.00  0.00    +0.000 N 
ATOM     14  C   UNL     1       0.836  11.128  19.288  0.00  0.00    +0.000 C 
ATOM     15  O   UNL     1      -0.272  11.355  19.762  0.00  0.00    +0.000 OA
ATOM     16  C   UNL     1       2.586  14.252  18.331  0.00  0.00    +0.000 A 
ATOM     17  H   UNL     1       2.641  11.669  18.490  0.00  0.00    +0.000 HD
ENDBRANCH   1  14
BRANCH   4  18
ATOM     18  C   UNL     1       2.864   5.807  19.305  0.00  0.00    +0.000 C 
ATOM     19  C   UNL     1       2.775   4.990  18.000  0.00  0.00    +0.000 C 
ATOM     20  C   UNL     1       1.576   4.045  17.920  0.00  0.00    +0.000 C 
ATOM     21  C   UNL     1       1.311   3.320  19.234  0.00  0.00    +0.000 C 
ATOM     22  N   UNL     1       1.156   4.281  20.324  0.00  0.00    +0.000 NA
ATOM     23  C   UNL     1       2.411   5.012  20.538  0.00  0.00    +0.000 C 
ATOM     24  H   UNL     1       0.925   3.776  21.181  0.00  0.00    +0.000 HD
ENDBRANCH   4  18
TORSDOF 2
ENDMDL
MODEL 8
REMARK VINA RESULT:      -7.1      4.375      8.278
REMARK  Name = 
REMARK  3 active torsions:
REMARK  status: ('A' for Active; 'I' for Inactive)
REMARK    1  A    between atoms: C_1  and  C_2
REMARK    2  A    between atoms: C_8  and  C_10
REMARK    3  A    between atoms: C_13  and  C_14
REMARK                            x       y       z     vdW  Elec       q    Type
REMARK                         _______ _______ _______ _____ _____    ______ ____
ROOT
ATOM      1  C   UNL     1       2.564   7.845  18.271  0.00  0.00    +0.000 A 
ATOM      2  C   UNL     1       2.205   6.759  19.053  0.00  0.00    +0.000 A 
ATOM      3  N   UNL     1       2.840   5.563  18.973  0.00  0.00    +0.000 NA
ATOM      4  C   UNL     1       3.849   5.475  18.065  0.00  0.00    +0.000 A 
ATOM      5  C   UNL     1       4.156   6.557  17.238  0.00  0.00    +0.000 A 
ATOM      6  N   UNL     1       3.547   7.773  17.328  0.00  0.00    +0.000 NA
ENDROOT
BRANCH   1  14
ATOM      7  C   UNL     1      -1.630  11.444  23.079  0.00  0.00    +0.000 C 
ATOM      8  C   UNL     1      -0.889  11.457  21.776  0.00  0.00    +0.000 A 
ATOM      9  C   UNL     1      -0.871  12.605  20.986  0.00  0.00    +0.000 A 
ATOM     10  C   UNL     1      -0.177  12.568  19.796  0.00  0.00    +0.000 A 
ATOM     11  N   UNL     1       0.489  11.483  19.353  0.00  0.00    +0.000 NA
ATOM     12  C   UNL     1       0.483  10.372  20.109  0.00  0.00    +0.000 A 
ATOM     13  N   UNL     1       1.187   9.237  19.684  0.00  0.00    +0.000 N 
ATOM     14  C   UNL     1       1.889   9.152  18.495  0.00  0.00    +0.000 C 
ATOM     15  O   UNL     1       1.990  10.006  17.621  0.00  0.00    +0.000 OA
ATOM     16  C   UNL     1      -0.201  10.319  21.325  0.00  0.00    +0.000 A 
ATOM     17  H   UNL     1       1.202   8.413  20.275  0.00  0.00    +0.000 HD
ENDBRANCH   1  14
BRANCH   4  18
ATOM     18  C   UNL     1       4.630   4.178  18.078  0.00  0.00    +0.000 C 
ATOM     19  C   UNL     1       4.131   3.136  17.055  0.00  0.00    +0.000 C 
ATOM     20  C   UNL     1       3.121   2.131  17.611  0.00  0.00    +0.000 C 
ATOM     21  C   UNL     1       3.489   1.641  19.006  0.00  0.00    +0.000 C 
ATOM     22  N   UNL     1       3.664   2.772  19.914  0.00  0.00    +0.000 NA
ATOM     23  C   UNL     1       4.803   3.594  19.487  0.00  0.00    +0.000 C 
ATOM     24  H   UNL     1       3.855   2.417  20.853  0.00  0.00    +0.000 HD
ENDBRANCH   4  18
TORSDOF 2
ENDMDL
MODEL 9
REMARK VINA RESULT:      -7.1      5.026      8.671
REMARK  Name = 
REMARK  3 active torsions:
REMARK  status: ('A' for Active; 'I' for Inactive)
REMARK    1  A    between atoms: C_1  and  C_2
REMARK    2  A    between atoms: C_8  and  C_10
REMARK    3  A    between atoms: C_13  and  C_14
REMARK                            x       y       z     vdW  Elec       q    Type
REMARK                         _______ _______ _______ _____ _____    ______ ____
ROOT
ATOM      1  C   UNL     1       1.834   7.592  19.961  0.00  0.00    +0.000 A 
ATOM      2  C   UNL     1       1.920   6.333  20.533  0.00  0.00    +0.000 A 
ATOM      3  N   UNL     1       2.562   5.301  19.929  0.00  0.00    +0.000 NA
ATOM      4  C   UNL     1       3.111   5.562  18.712  0.00  0.00    +0.000 A 
ATOM      5  C   UNL     1       2.959   6.817  18.120  0.00  0.00    +0.000 A 
ATOM      6  N   UNL     1       2.343   7.870  18.727  0.00  0.00    +0.000 NA
ENDROOT
BRANCH   1  14
ATOM      7  C   UNL     1      -0.417  14.535  19.349  0.00  0.00    +0.000 C 
ATOM      8  C   UNL     1      -0.272  13.315  20.207  0.00  0.00    +0.000 A 
ATOM      9  C   UNL     1      -0.735  13.318  21.521  0.00  0.00    +0.000 A 
ATOM     10  C   UNL     1      -0.578  12.173  22.272  0.00  0.00    +0.000 A 
ATOM     11  N   UNL     1      -0.004  11.047  21.804  0.00  0.00    +0.000 NA
ATOM     12  C   UNL     1       0.441  11.030  20.536  0.00  0.00    +0.000 A 
ATOM     13  N   UNL     1       1.021   9.865  20.017  0.00  0.00    +0.000 N 
ATOM     14  C   UNL     1       1.206   8.696  20.735  0.00  0.00    +0.000 C 
ATOM     15  O   UNL     1       0.937   8.490  21.914  0.00  0.00    +0.000 OA
ATOM     16  C   UNL     1       0.330  12.149  19.709  0.00  0.00    +0.000 A 
ATOM     17  H   UNL     1       1.327   9.852  19.051  0.00  0.00    +0.000 HD
ENDBRANCH   1  14
BRANCH   4  18
ATOM     18  C   UNL     1       3.931   4.440  18.111  0.00  0.00    +0.000 C 
ATOM     19  C   UNL     1       3.136   3.521  17.161  0.00  0.00    +0.000 C 
ATOM     20  C   UNL     1       2.552   2.273  17.824  0.00  0.00    +0.000 C 
ATOM     21  C   UNL     1       3.521   1.619  18.801  0.00  0.00    +0.000 C 
ATOM     22  N   UNL     1       3.970   2.588  19.800  0.00  0.00    +0.000 NA
ATOM     23  C   UNL     1       4.740   3.660  19.157  0.00  0.00    +0.000 C 
ATOM     24  H   UNL     1       4.573   2.114  20.474  0.00  0.00    +0.000 HD
ENDBRANCH   4  18
TORSDOF 2
ENDMDL
