MODEL 1
REMARK VINA RESULT:      -8.7      0.000      0.000
REMARK  Name = 
REMARK  3 active torsions:
REMARK  status: ('A' for Active; 'I' for Inactive)
REMARK    1  A    between atoms: C_1  and  C_2
REMARK    2  A    between atoms: C_6  and  N_7
REMARK    3  A    between atoms: C_9  and  C_10
REMARK                            x       y       z     vdW  Elec       q    Type
REMARK                         _______ _______ _______ _____ _____    ______ ____
ROOT
ATOM      1  N   UNL     1       2.061   6.714  19.400  0.00  0.00    +0.000 N 
ATOM      2  N   UNL     1       1.496   7.661  20.234  0.00  0.00    +0.000 NA
ATOM      3  C   UNL     1       1.367   8.884  19.818  0.00  0.00    +0.000 C 
ATOM      4  C   UNL     1       1.792   9.347  18.456  0.00  0.00    +0.000 C 
ATOM      5  C   UNL     1       2.930   8.498  17.948  0.00  0.00    +0.000 C 
ATOM      6  C   UNL     1       2.739   7.026  18.213  0.00  0.00    +0.000 C 
ATOM      7  O   UNL     1       3.213   6.217  17.414  0.00  0.00    +0.000 OA
ENDROOT
BRANCH   3   8
ATOM      8  C   UNL     1       0.705   9.931  20.715  0.00  0.00    +0.000 C 
ATOM      9  O   UNL     1       1.337  10.212  21.730  0.00  0.00    +0.000 OA
ATOM     10  N   UNL     1      -0.482  10.549  20.289  0.00  0.00    +0.000 N 
ATOM     11  C   UNL     1      -1.180  10.176  19.052  0.00  0.00    +0.000 C 
ATOM     12  C   UNL     1      -1.741  11.335  18.251  0.00  0.00    +0.000 C 
ATOM     13  O   UNL     1      -1.985  11.248  17.049  0.00  0.00    +0.000 OA
ATOM     14  N   UNL     1      -2.122  12.430  18.967  0.00  0.00    +0.000 N 
ATOM     15  C   UNL     1      -1.930  12.530  20.348  0.00  0.00    +0.000 A 
ATOM     16  C   UNL     1      -2.529  13.605  21.010  0.00  0.00    +0.000 A 
ATOM     17  C   UNL     1      -2.372  13.743  22.384  0.00  0.00    +0.000 A 
ATOM     18  C   UNL     1      -1.600  12.821  23.089  0.00  0.00    +0.000 A 
ATOM     19  C   UNL     1      -0.971  11.769  22.419  0.00  0.00    +0.000 A 
ATOM     20  C   UNL     1      -1.120  11.600  21.035  0.00  0.00    +0.000 A 
ATOM     21  H   UNL     1      -2.598  13.159  18.453  0.00  0.00    +0.000 HD
ENDBRANCH   3   8
BRANCH   1  27
ATOM     22  C   UNL     1       0.646   1.975  18.727  0.00  0.00    +0.000 C 
ATOM     23  C   UNL     1       1.234   3.041  19.606  0.00  0.00    +0.000 A 
ATOM     24  C   UNL     1       1.662   2.745  20.900  0.00  0.00    +0.000 A 
ATOM     25  C   UNL     1       2.245   3.738  21.685  0.00  0.00    +0.000 A 
ATOM     26  C   UNL     1       2.404   5.034  21.189  0.00  0.00    +0.000 A 
ATOM     27  C   UNL     1       1.959   5.372  19.905  0.00  0.00    +0.000 A 
ATOM     28  C   UNL     1       1.376   4.354  19.126  0.00  0.00    +0.000 A 
ENDBRANCH   1  27
TORSDOF 2
ENDMDL
MODEL 2
REMARK VINA RESULT:      -8.7      2.726      4.147
REMARK  Name = 
REMARK  3 active torsions:
REMARK  status: ('A' for Active; 'I' for Inactive)
REMARK    1  A    between atoms: C_1  and  C_2
REMARK    2  A    between atoms: C_6  and  N_7
REMARK    3  A    between atoms: C_9  and  C_10
REMARK                            x       y       z     vdW  Elec       q    Type
REMARK                         _______ _______ _______ _____ _____    ______ ____
ROOT
ATOM      1  N   UNL     1       3.578   5.760  19.050  0.00  0.00    +0.000 N 
ATOM      2  N   UNL     1       3.046   6.992  18.714  0.00  0.00    +0.000 NA
ATOM      3  C   UNL     1       2.085   7.490  19.430  0.00  0.00    +0.000 C 
ATOM      4  C   UNL     1       1.505   6.807  20.633  0.00  0.00    +0.000 C 
ATOM      5  C   UNL     1       1.642   5.311  20.499  0.00  0.00    +0.000 C 
ATOM      6  C   UNL     1       2.987   4.882  19.970  0.00  0.00    +0.000 C 
ATOM      7  O   UNL     1       3.447   3.800  20.339  0.00  0.00    +0.000 OA
ENDROOT
BRANCH   3   8
ATOM      8  C   UNL     1       1.518   8.870  19.095  0.00  0.00    +0.000 C 
ATOM      9  O   UNL     1       1.366   9.086  17.895  0.00  0.00    +0.000 OA
ATOM     10  N   UNL     1       1.135   9.728  20.139  0.00  0.00    +0.000 N 
ATOM     11  C   UNL     1       1.331   9.402  21.557  0.00  0.00    +0.000 C 
ATOM     12  C   UNL     1       0.184   9.781  22.473  0.00  0.00    +0.000 C 
ATOM     13  O   UNL     1       0.008   9.244  23.565  0.00  0.00    +0.000 OA
ATOM     14  N   UNL     1      -0.546  10.869  22.101  0.00  0.00    +0.000 N 
ATOM     15  C   UNL     1      -0.322  11.551  20.900  0.00  0.00    +0.000 A 
ATOM     16  C   UNL     1      -0.993  12.761  20.707  0.00  0.00    +0.000 A 
ATOM     17  C   UNL     1      -0.796  13.479  19.533  0.00  0.00    +0.000 A 
ATOM     18  C   UNL     1       0.051  12.975  18.547  0.00  0.00    +0.000 A 
ATOM     19  C   UNL     1       0.690  11.746  18.727  0.00  0.00    +0.000 A 
ATOM     20  C   UNL     1       0.518  11.006  19.905  0.00  0.00    +0.000 A 
ATOM     21  H   UNL     1      -1.239  11.193  22.761  0.00  0.00    +0.000 HD
ENDBRANCH   3   8
BRANCH   1  27
ATOM     22  C   UNL     1       5.666   4.271  14.769  0.00  0.00    +0.000 C 
ATOM     23  C   UNL     1       5.802   4.654  16.214  0.00  0.00    +0.000 A 
ATOM     24  C   UNL     1       7.052   4.669  16.835  0.00  0.00    +0.000 A 
ATOM     25  C   UNL     1       7.163   5.068  18.165  0.00  0.00    +0.000 A 
ATOM     26  C   UNL     1       6.032   5.454  18.889  0.00  0.00    +0.000 A 
ATOM     27  C   UNL     1       4.759   5.423  18.304  0.00  0.00    +0.000 A 
ATOM     28  C   UNL     1       4.668   5.020  16.959  0.00  0.00    +0.000 A 
ENDBRANCH   1  27
TORSDOF 2
ENDMDL
MODEL 3
REMARK VINA RESULT:      -8.6      2.933      4.568
REMARK  Name = 
REMARK  3 active torsions:
REMARK  status: ('A' for Active; 'I' for Inactive)
REMARK    1  A    between atoms: C_1  and  C_2
REMARK    2  A    between atoms: C_6  and  N_7
REMARK    3  A    between atoms: C_9  and  C_10
REMARK                            x       y       z     vdW  Elec       q    Type
REMARK                         _______ _______ _______ _____ _____    ______ ____
ROOT
ATOM      1  N   UNL     1       0.828  10.842  19.073  0.00  0.00    +0.000 N 
ATOM      2  N   UNL     1      -0.473  11.052  19.495  0.00  0.00    +0.000 NA
ATOM      3  C   UNL     1      -1.091  12.138  19.147  0.00  0.00    +0.000 C 
ATOM      4  C   UNL     1      -0.477  13.205  18.287  0.00  0.00    +0.000 C 
ATOM      5  C   UNL     1       1.022  13.217  18.463  0.00  0.00    +0.000 C 
ATOM      6  C   UNL     1       1.628  11.837  18.494  0.00  0.00    +0.000 C 
ATOM      7  O   UNL     1       2.771  11.687  18.058  0.00  0.00    +0.000 OA
ENDROOT
BRANCH   3   8
ATOM      8  C   UNL     1      -2.543  12.362  19.570  0.00  0.00    +0.000 C 
ATOM      9  O   UNL     1      -2.688  13.114  20.530  0.00  0.00    +0.000 OA
ATOM     10  N   UNL     1      -3.577  11.795  18.807  0.00  0.00    +0.000 N 
ATOM     11  C   UNL     1      -3.334  10.916  17.657  0.00  0.00    +0.000 C 
ATOM     12  C   UNL     1      -4.244  11.141  16.465  0.00  0.00    +0.000 C 
ATOM     13  O   UNL     1      -3.936  10.795  15.326  0.00  0.00    +0.000 OA
ATOM     14  N   UNL     1      -5.497  11.596  16.745  0.00  0.00    +0.000 N 
ATOM     15  C   UNL     1      -5.905  11.927  18.041  0.00  0.00    +0.000 A 
ATOM     16  C   UNL     1      -7.261  12.196  18.245  0.00  0.00    +0.000 A 
ATOM     17  C   UNL     1      -7.715  12.523  19.516  0.00  0.00    +0.000 A 
ATOM     18  C   UNL     1      -6.812  12.601  20.576  0.00  0.00    +0.000 A 
ATOM     19  C   UNL     1      -5.452  12.369  20.362  0.00  0.00    +0.000 A 
ATOM     20  C   UNL     1      -4.968  12.028  19.092  0.00  0.00    +0.000 A 
ATOM     21  H   UNL     1      -6.142  11.643  15.968  0.00  0.00    +0.000 HD
ENDBRANCH   3   8
BRANCH   1  27
ATOM     22  C   UNL     1       3.283   6.763  17.576  0.00  0.00    +0.000 C 
ATOM     23  C   UNL     1       2.491   7.488  18.625  0.00  0.00    +0.000 A 
ATOM     24  C   UNL     1       2.216   6.889  19.855  0.00  0.00    +0.000 A 
ATOM     25  C   UNL     1       1.516   7.595  20.831  0.00  0.00    +0.000 A 
ATOM     26  C   UNL     1       1.083   8.901  20.592  0.00  0.00    +0.000 A 
ATOM     27  C   UNL     1       1.317   9.521  19.358  0.00  0.00    +0.000 A 
ATOM     28  C   UNL     1       2.029   8.793  18.385  0.00  0.00    +0.000 A 
ENDBRANCH   1  27
TORSDOF 2
ENDMDL
MODEL 4
REMARK VINA RESULT:      -8.6      0.852      1.100
REMARK  Name = 
REMARK  3 active torsions:
REMARK  status: ('A' for Active; 'I' for Inactive)
REMARK    1  A    between atoms: C_1  and  C_2
REMARK    2  A    between atoms: C_6  and  N_7
REMARK    3  A    between atoms: C_9  and  C_10
REMARK                            x       y       z     vdW  Elec       q    Type
REMARK                         _______ _______ _______ _____ _____    ______ ____
ROOT
ATOM      1  N   UNL     1       2.256   6.558  19.351  0.00  0.00    +0.000 N 
ATOM      2  N   UNL     1       1.692   7.496  20.197  0.00  0.00    +0.000 NA
ATOM      3  C   UNL     1       1.491   8.704  19.768  0.00  0.00    +0.000 C 
ATOM      4  C   UNL     1       1.827   9.159  18.378  0.00  0.00    +0.000 C 
ATOM      5  C   UNL     1       2.975   8.349  17.828  0.00  0.00    +0.000 C 
ATOM      6  C   UNL     1       2.860   6.876  18.128  0.00  0.00    +0.000 C 
ATOM      7  O   UNL     1       3.329   6.073  17.319  0.00  0.00    +0.000 OA
ENDROOT
BRANCH   3   8
ATOM      8  C   UNL     1       0.829   9.740  20.678  0.00  0.00    +0.000 C 
ATOM      9  O   UNL     1       1.463  10.010  21.695  0.00  0.00    +0.000 OA
ATOM     10  N   UNL     1      -0.361  10.359  20.264  0.00  0.00    +0.000 N 
ATOM     11  C   UNL     1      -1.063   9.999  19.025  0.00  0.00    +0.000 C 
ATOM     12  C   UNL     1      -1.629  11.166  18.240  0.00  0.00    +0.000 C 
ATOM     13  O   UNL     1      -1.876  11.092  17.037  0.00  0.00    +0.000 OA
ATOM     14  N   UNL     1      -2.010  12.251  18.969  0.00  0.00    +0.000 N 
ATOM     15  C   UNL     1      -1.814  12.336  20.351  0.00  0.00    +0.000 A 
ATOM     16  C   UNL     1      -2.413  13.402  21.027  0.00  0.00    +0.000 A 
ATOM     17  C   UNL     1      -2.252  13.524  22.401  0.00  0.00    +0.000 A 
ATOM     18  C   UNL     1      -1.475  12.596  23.093  0.00  0.00    +0.000 A 
ATOM     19  C   UNL     1      -0.846  11.554  22.410  0.00  0.00    +0.000 A 
ATOM     20  C   UNL     1      -0.999  11.400  21.024  0.00  0.00    +0.000 A 
ATOM     21  H   UNL     1      -2.489  12.985  18.465  0.00  0.00    +0.000 HD
ENDBRANCH   3   8
BRANCH   1  27
ATOM     22  C   UNL     1       4.597   2.221  20.138  0.00  0.00    +0.000 C 
ATOM     23  C   UNL     1       3.361   3.066  20.247  0.00  0.00    +0.000 A 
ATOM     24  C   UNL     1       2.202   2.564  20.839  0.00  0.00    +0.000 A 
ATOM     25  C   UNL     1       1.078   3.378  20.970  0.00  0.00    +0.000 A 
ATOM     26  C   UNL     1       1.099   4.697  20.509  0.00  0.00    +0.000 A 
ATOM     27  C   UNL     1       2.236   5.223  19.884  0.00  0.00    +0.000 A 
ATOM     28  C   UNL     1       3.362   4.386  19.765  0.00  0.00    +0.000 A 
ENDBRANCH   1  27
TORSDOF 2
ENDMDL
MODEL 5
REMARK VINA RESULT:      -8.5      4.336      9.336
REMARK  Name = 
REMARK  3 active torsions:
REMARK  status: ('A' for Active; 'I' for Inactive)
REMARK    1  A    between atoms: C_1  and  C_2
REMARK    2  A    between atoms: C_6  and  N_7
REMARK    3  A    between atoms: C_9  and  C_10
REMARK                            x       y       z     vdW  Elec       q    Type
REMARK                         _______ _______ _______ _____ _____    ______ ____
ROOT
ATOM      1  N   UNL     1       2.674   5.280  19.532  0.00  0.00    +0.000 N 
ATOM      2  N   UNL     1       3.196   5.158  18.256  0.00  0.00    +0.000 NA
ATOM      3  C   UNL     1       3.580   3.994  17.831  0.00  0.00    +0.000 C 
ATOM      4  C   UNL     1       3.485   2.738  18.647  0.00  0.00    +0.000 C 
ATOM      5  C   UNL     1       3.568   3.065  20.118  0.00  0.00    +0.000 C 
ATOM      6  C   UNL     1       2.755   4.274  20.505  0.00  0.00    +0.000 C 
ATOM      7  O   UNL     1       2.264   4.316  21.634  0.00  0.00    +0.000 OA
ENDROOT
BRANCH   3   8
ATOM      8  C   UNL     1       4.118   3.838  16.408  0.00  0.00    +0.000 C 
ATOM      9  O   UNL     1       3.286   3.473  15.581  0.00  0.00    +0.000 OA
ATOM     10  N   UNL     1       5.447   4.199  16.132  0.00  0.00    +0.000 N 
ATOM     11  C   UNL     1       6.388   4.644  17.167  0.00  0.00    +0.000 C 
ATOM     12  C   UNL     1       7.288   5.797  16.771  0.00  0.00    +0.000 C 
ATOM     13  O   UNL     1       7.825   6.530  17.602  0.00  0.00    +0.000 OA
ATOM     14  N   UNL     1       7.612   5.881  15.450  0.00  0.00    +0.000 N 
ATOM     15  C   UNL     1       7.080   5.014  14.490  0.00  0.00    +0.000 A 
ATOM     16  C   UNL     1       7.622   5.061  13.203  0.00  0.00    +0.000 A 
ATOM     17  C   UNL     1       7.131   4.215  12.217  0.00  0.00    +0.000 A 
ATOM     18  C   UNL     1       6.085   3.342  12.511  0.00  0.00    +0.000 A 
ATOM     19  C   UNL     1       5.519   3.324  13.788  0.00  0.00    +0.000 A 
ATOM     20  C   UNL     1       6.001   4.160  14.805  0.00  0.00    +0.000 A 
ATOM     21  H   UNL     1       8.297   6.579  15.199  0.00  0.00    +0.000 HD
ENDBRANCH   3   8
BRANCH   1  27
ATOM     22  C   UNL     1       1.746   9.946  18.025  0.00  0.00    +0.000 C 
ATOM     23  C   UNL     1       1.674   8.888  19.087  0.00  0.00    +0.000 A 
ATOM     24  C   UNL     1       1.081   9.152  20.322  0.00  0.00    +0.000 A 
ATOM     25  C   UNL     1       0.985   8.144  21.279  0.00  0.00    +0.000 A 
ATOM     26  C   UNL     1       1.480   6.865  21.015  0.00  0.00    +0.000 A 
ATOM     27  C   UNL     1       2.107   6.573  19.798  0.00  0.00    +0.000 A 
ATOM     28  C   UNL     1       2.191   7.604  18.843  0.00  0.00    +0.000 A 
ENDBRANCH   1  27
TORSDOF 2
ENDMDL
MODEL 6
REMARK VINA RESULT:      -8.4      2.834      4.915
REMARK  Name = 
REMARK  3 active torsions:
REMARK  status: ('A' for Active; 'I' for Inactive)
REMARK    1  A    between atoms: C_1  and  C_2
REMARK    2  A    between atoms: C_6  and  N_7
REMARK    3  A    between atoms: C_9  and  C_10
REMARK                            x       y       z     vdW  Elec       q    Type
REMARK                         _______ _______ _______ _____ _____    ______ ____
ROOT
ATOM      1  N   UNL     1       0.580  10.787  18.992  0.00  0.00    +0.000 N 
ATOM      2  N   UNL     1      -0.798  10.815  19.116  0.00  0.00    +0.000 NA
ATOM      3  C   UNL     1      -1.457  11.846  18.684  0.00  0.00    +0.000 C 
ATOM      4  C   UNL     1      -0.811  13.034  18.034  0.00  0.00    +0.000 C 
ATOM      5  C   UNL     1       0.598  13.205  18.546  0.00  0.00    +0.000 C 
ATOM      6  C   UNL     1       1.354  11.905  18.653  0.00  0.00    +0.000 C 
ATOM      7  O   UNL     1       2.574  11.918  18.482  0.00  0.00    +0.000 OA
ENDROOT
BRANCH   3   8
ATOM      8  C   UNL     1      -2.984  11.871  18.776  0.00  0.00    +0.000 C 
ATOM      9  O   UNL     1      -3.563  11.306  17.852  0.00  0.00    +0.000 OA
ATOM     10  N   UNL     1      -3.596  12.430  19.910  0.00  0.00    +0.000 N 
ATOM     11  C   UNL     1      -2.841  13.079  20.989  0.00  0.00    +0.000 C 
ATOM     12  C   UNL     1      -3.330  12.778  22.392  0.00  0.00    +0.000 C 
ATOM     13  O   UNL     1      -2.608  12.898  23.381  0.00  0.00    +0.000 OA
ATOM     14  N   UNL     1      -4.663  12.530  22.523  0.00  0.00    +0.000 N 
ATOM     15  C   UNL     1      -5.526  12.463  21.425  0.00  0.00    +0.000 A 
ATOM     16  C   UNL     1      -6.898  12.396  21.682  0.00  0.00    +0.000 A 
ATOM     17  C   UNL     1      -7.796  12.335  20.623  0.00  0.00    +0.000 A 
ATOM     18  C   UNL     1      -7.321  12.318  19.312  0.00  0.00    +0.000 A 
ATOM     19  C   UNL     1      -5.948  12.346  19.059  0.00  0.00    +0.000 A 
ATOM     20  C   UNL     1      -5.020  12.417  20.108  0.00  0.00    +0.000 A 
ATOM     21  H   UNL     1      -5.013  12.439  23.466  0.00  0.00    +0.000 HD
ENDBRANCH   3   8
BRANCH   1  27
ATOM     22  C   UNL     1       3.302   6.831  17.633  0.00  0.00    +0.000 C 
ATOM     23  C   UNL     1       2.466   7.539  18.659  0.00  0.00    +0.000 A 
ATOM     24  C   UNL     1       2.235   6.969  19.911  0.00  0.00    +0.000 A 
ATOM     25  C   UNL     1       1.492   7.661  20.865  0.00  0.00    +0.000 A 
ATOM     26  C   UNL     1       0.971   8.925  20.580  0.00  0.00    +0.000 A 
ATOM     27  C   UNL     1       1.158   9.513  19.323  0.00  0.00    +0.000 A 
ATOM     28  C   UNL     1       1.915   8.800  18.374  0.00  0.00    +0.000 A 
ENDBRANCH   1  27
TORSDOF 2
ENDMDL
MODEL 7
REMARK VINA RESULT:      -8.4      2.993      4.754
REMARK  Name = 
REMARK  3 active torsions:
REMARK  status: ('A' for Active; 'I' for Inactive)
REMARK    1  A    between atoms: C_1  and  C_2
REMARK    2  A    between atoms: C_6  and  N_7
REMARK    3  A    between atoms: C_9  and  C_10
REMARK                            x       y       z     vdW  Elec       q    Type
REMARK                         _______ _______ _______ _____ _____    ______ ____
ROOT
ATOM      1  N   UNL     1       0.987  11.112  18.774  0.00  0.00    +0.000 N 
ATOM      2  N   UNL     1      -0.325  11.207  19.205  0.00  0.00    +0.000 NA
ATOM      3  C   UNL     1      -0.953  12.337  19.097  0.00  0.00    +0.000 C 
ATOM      4  C   UNL     1      -0.341  13.576  18.513  0.00  0.00    +0.000 C 
ATOM      5  C   UNL     1       1.154  13.565  18.719  0.00  0.00    +0.000 C 
ATOM      6  C   UNL     1       1.781  12.221  18.451  0.00  0.00    +0.000 C 
ATOM      7  O   UNL     1       2.934  12.185  18.016  0.00  0.00    +0.000 OA
ENDROOT
BRANCH   3   8
ATOM      8  C   UNL     1      -2.416  12.443  19.529  0.00  0.00    +0.000 C 
ATOM      9  O   UNL     1      -2.612  13.157  20.509  0.00  0.00    +0.000 OA
ATOM     10  N   UNL     1      -3.409  11.823  18.753  0.00  0.00    +0.000 N 
ATOM     11  C   UNL     1      -3.108  10.994  17.579  0.00  0.00    +0.000 C 
ATOM     12  C   UNL     1      -4.036  11.185  16.396  0.00  0.00    +0.000 C 
ATOM     13  O   UNL     1      -3.708  10.893  15.247  0.00  0.00    +0.000 OA
ATOM     14  N   UNL     1      -5.318  11.540  16.690  0.00  0.00    +0.000 N 
ATOM     15  C   UNL     1      -5.744  11.805  17.995  0.00  0.00    +0.000 A 
ATOM     16  C   UNL     1      -7.115  11.970  18.208  0.00  0.00    +0.000 A 
ATOM     17  C   UNL     1      -7.587  12.229  19.489  0.00  0.00    +0.000 A 
ATOM     18  C   UNL     1      -6.688  12.344  20.549  0.00  0.00    +0.000 A 
ATOM     19  C   UNL     1      -5.315  12.217  20.326  0.00  0.00    +0.000 A 
ATOM     20  C   UNL     1      -4.812  11.947  19.046  0.00  0.00    +0.000 A 
ATOM     21  H   UNL     1      -5.967  11.561  15.916  0.00  0.00    +0.000 HD
ENDBRANCH   3   8
BRANCH   1  27
ATOM     22  C   UNL     1       1.557   6.731  21.095  0.00  0.00    +0.000 C 
ATOM     23  C   UNL     1       1.815   7.613  19.908  0.00  0.00    +0.000 A 
ATOM     24  C   UNL     1       2.546   7.146  18.815  0.00  0.00    +0.000 A 
ATOM     25  C   UNL     1       2.737   7.965  17.704  0.00  0.00    +0.000 A 
ATOM     26  C   UNL     1       2.205   9.256  17.673  0.00  0.00    +0.000 A 
ATOM     27  C   UNL     1       1.491   9.766  18.765  0.00  0.00    +0.000 A 
ATOM     28  C   UNL     1       1.305   8.922  19.876  0.00  0.00    +0.000 A 
ENDBRANCH   1  27
TORSDOF 2
ENDMDL
MODEL 8
REMARK VINA RESULT:      -8.4      2.842      8.618
REMARK  Name = 
REMARK  3 active torsions:
REMARK  status: ('A' for Active; 'I' for Inactive)
REMARK    1  A    between atoms: C_1  and  C_2
REMARK    2  A    between atoms: C_6  and  N_7
REMARK    3  A    between atoms: C_9  and  C_10
REMARK                            x       y       z     vdW  Elec       q    Type
REMARK                         _______ _______ _______ _____ _____    ______ ____
ROOT
ATOM      1  N   UNL     1       0.868   9.185  19.565  0.00  0.00    +0.000 N 
ATOM      2  N   UNL     1       1.838   8.762  18.674  0.00  0.00    +0.000 NA
ATOM      3  C   UNL     1       2.444   7.633  18.877  0.00  0.00    +0.000 C 
ATOM      4  C   UNL     1       2.149   6.728  20.037  0.00  0.00    +0.000 C 
ATOM      5  C   UNL     1       1.648   7.532  21.211  0.00  0.00    +0.000 C 
ATOM      6  C   UNL     1       0.657   8.599  20.821  0.00  0.00    +0.000 C 
ATOM      7  O   UNL     1      -0.224   8.906  21.626  0.00  0.00    +0.000 OA
ENDROOT
BRANCH   3   8
ATOM      8  C   UNL     1       3.487   7.134  17.876  0.00  0.00    +0.000 C 
ATOM      9  O   UNL     1       4.308   7.977  17.526  0.00  0.00    +0.000 OA
ATOM     10  N   UNL     1       3.497   5.777  17.513  0.00  0.00    +0.000 N 
ATOM     11  C   UNL     1       2.493   4.814  17.982  0.00  0.00    +0.000 C 
ATOM     12  C   UNL     1       3.031   3.448  18.358  0.00  0.00    +0.000 C 
ATOM     13  O   UNL     1       2.430   2.689  19.117  0.00  0.00    +0.000 OA
ATOM     14  N   UNL     1       4.136   3.031  17.679  0.00  0.00    +0.000 N 
ATOM     15  C   UNL     1       4.799   3.840  16.751  0.00  0.00    +0.000 A 
ATOM     16  C   UNL     1       5.798   3.250  15.973  0.00  0.00    +0.000 A 
ATOM     17  C   UNL     1       6.480   4.013  15.033  0.00  0.00    +0.000 A 
ATOM     18  C   UNL     1       6.179   5.366  14.888  0.00  0.00    +0.000 A 
ATOM     19  C   UNL     1       5.206   5.962  15.693  0.00  0.00    +0.000 A 
ATOM     20  C   UNL     1       4.496   5.215  16.643  0.00  0.00    +0.000 A 
ATOM     21  H   UNL     1       4.433   2.079  17.845  0.00  0.00    +0.000 HD
ENDBRANCH   3   8
BRANCH   1  27
ATOM     22  C   UNL     1      -2.930  11.124  16.973  0.00  0.00    +0.000 C 
ATOM     23  C   UNL     1      -1.701  11.317  17.813  0.00  0.00    +0.000 A 
ATOM     24  C   UNL     1      -1.254  12.596  18.144  0.00  0.00    +0.000 A 
ATOM     25  C   UNL     1      -0.137  12.754  18.961  0.00  0.00    +0.000 A 
ATOM     26  C   UNL     1       0.547  11.639  19.454  0.00  0.00    +0.000 A 
ATOM     27  C   UNL     1       0.143  10.341  19.116  0.00  0.00    +0.000 A 
ATOM     28  C   UNL     1      -0.991  10.203  18.293  0.00  0.00    +0.000 A 
ENDBRANCH   1  27
TORSDOF 2
ENDMDL
MODEL 9
REMARK VINA RESULT:      -8.3      4.316      9.338
REMARK  Name = 
REMARK  3 active torsions:
REMARK  status: ('A' for Active; 'I' for Inactive)
REMARK    1  A    between atoms: C_1  and  C_2
REMARK    2  A    between atoms: C_6  and  N_7
REMARK    3  A    between atoms: C_9  and  C_10
REMARK                            x       y       z     vdW  Elec       q    Type
REMARK                         _______ _______ _______ _____ _____    ______ ____
ROOT
ATOM      1  N   UNL     1       2.647   5.625  19.450  0.00  0.00    +0.000 N 
ATOM      2  N   UNL     1       3.177   5.432  18.187  0.00  0.00    +0.000 NA
ATOM      3  C   UNL     1       3.539   4.240  17.821  0.00  0.00    +0.000 C 
ATOM      4  C   UNL     1       3.406   3.027  18.694  0.00  0.00    +0.000 C 
ATOM      5  C   UNL     1       3.483   3.420  20.148  0.00  0.00    +0.000 C 
ATOM      6  C   UNL     1       2.695   4.664  20.470  0.00  0.00    +0.000 C 
ATOM      7  O   UNL     1       2.194   4.770  21.591  0.00  0.00    +0.000 OA
ENDROOT
BRANCH   3   8
ATOM      8  C   UNL     1       4.086   4.006  16.413  0.00  0.00    +0.000 C 
ATOM      9  O   UNL     1       3.255   3.617  15.596  0.00  0.00    +0.000 OA
ATOM     10  N   UNL     1       5.424   4.329  16.132  0.00  0.00    +0.000 N 
ATOM     11  C   UNL     1       6.364   4.807  17.154  0.00  0.00    +0.000 C 
ATOM     12  C   UNL     1       7.288   5.924  16.711  0.00  0.00    +0.000 C 
ATOM     13  O   UNL     1       7.830   6.686  17.510  0.00  0.00    +0.000 OA
ATOM     14  N   UNL     1       7.625   5.937  15.391  0.00  0.00    +0.000 N 
ATOM     15  C   UNL     1       7.085   5.035  14.469  0.00  0.00    +0.000 A 
ATOM     16  C   UNL     1       7.640   5.010  13.187  0.00  0.00    +0.000 A 
ATOM     17  C   UNL     1       7.142   4.125  12.238  0.00  0.00    +0.000 A 
ATOM     18  C   UNL     1       6.078   3.286  12.564  0.00  0.00    +0.000 A 
ATOM     19  C   UNL     1       5.500   3.340  13.834  0.00  0.00    +0.000 A 
ATOM     20  C   UNL     1       5.989   4.216  14.814  0.00  0.00    +0.000 A 
ATOM     21  H   UNL     1       8.325   6.610  15.113  0.00  0.00    +0.000 HD
ENDBRANCH   3   8
BRANCH   1  27
ATOM     22  C   UNL     1       0.287   8.892  22.395  0.00  0.00    +0.000 C 
ATOM     23  C   UNL     1       0.912   8.553  21.072  0.00  0.00    +0.000 A 
ATOM     24  C   UNL     1       0.959   9.493  20.042  0.00  0.00    +0.000 A 
ATOM     25  C   UNL     1       1.581   9.175  18.837  0.00  0.00    +0.000 A 
ATOM     26  C   UNL     1       2.162   7.918  18.647  0.00  0.00    +0.000 A 
ATOM     27  C   UNL     1       2.107   6.942  19.650  0.00  0.00    +0.000 A 
ATOM     28  C   UNL     1       1.477   7.284  20.861  0.00  0.00    +0.000 A 
ENDBRANCH   1  27
TORSDOF 2
ENDMDL
