MODEL 1
REMARK VINA RESULT:      -7.9      0.000      0.000
REMARK  Name = 
REMARK  10 active torsions:
REMARK  status: ('A' for Active; 'I' for Inactive)
REMARK    1  A    between atoms: C_1  and  C_2
REMARK    2  A    between atoms: C_2  and  C_3
REMARK    3  A    between atoms: C_2  and  O_4
REMARK    4  A    between atoms: O_4  and  C_5
REMARK    5  A    between atoms: C_9  and  C_10
REMARK    6  A    between atoms: N_12  and  C_13
REMARK    7  A    between atoms: C_13  and  N_15
REMARK    8  A    between atoms: N_15  and  C_16
REMARK    9  A    between atoms: C_19  and  N_20
REMARK   10  A    between atoms: N_23  and  C_24
REMARK                            x       y       z     vdW  Elec       q    Type
REMARK                         _______ _______ _______ _____ _____    ______ ____
ROOT
ATOM      1  C   UNL     1       2.190   4.819  20.364  0.00  0.00    +0.000 C 
ATOM      2  S   UNL     1       1.053   3.588  20.348  0.00  0.00    +0.000 S 
ENDROOT
BRANCH   1   5
ATOM      3  C   UNL     1       3.413   4.594  18.207  0.00  0.00    +0.000 C 
ATOM      4  O   UNL     1       2.426   4.601  17.471  0.00  0.00    +0.000 OA
ATOM      5  N   UNL     1       3.317   4.630  19.590  0.00  0.00    +0.000 N 
ATOM      6  H   UNL     1       4.152   4.605  20.151  0.00  0.00    +0.000 HD
BRANCH   3  11
ATOM      7  C   UNL     1       6.312   3.982  15.790  0.00  0.00    +0.000 A 
ATOM      8  C   UNL     1       7.372   4.473  16.552  0.00  0.00    +0.000 A 
ATOM      9  C   UNL     1       7.149   4.954  17.839  0.00  0.00    +0.000 A 
ATOM     10  C   UNL     1       5.855   4.958  18.360  0.00  0.00    +0.000 A 
ATOM     11  C   UNL     1       4.777   4.468  17.605  0.00  0.00    +0.000 A 
ATOM     12  C   UNL     1       5.024   3.937  16.330  0.00  0.00    +0.000 A 
BRANCH   7  13
ATOM     13  O   UNL     1       6.647   3.519  14.548  0.00  0.00    +0.000 OA
BRANCH  13  15
ATOM     14  C   UNL     1       7.480   4.981  12.849  0.00  0.00    +0.000 C 
ATOM     15  C   UNL     1       6.237   4.304  13.418  0.00  0.00    +0.000 C 
ATOM     16  C   UNL     1       5.611   3.364  12.392  0.00  0.00    +0.000 C 
ENDBRANCH  13  15
ENDBRANCH   7  13
ENDBRANCH   3  11
ENDBRANCH   1   5
BRANCH   1  17
ATOM     17  N   UNL     1       2.114   6.020  21.021  0.00  0.00    +0.000 N 
ATOM     18  H   UNL     1       2.283   5.973  22.026  0.00  0.00    +0.000 HD
BRANCH  17  19
ATOM     19  C   UNL     1       1.722   7.281  20.532  0.00  0.00    +0.000 A 
ATOM     20  C   UNL     1       1.026   8.195  21.312  0.00  0.00    +0.000 A 
ATOM     21  C   UNL     1       0.733   9.466  20.813  0.00  0.00    +0.000 A 
ATOM     22  C   UNL     1       1.105   9.869  19.525  0.00  0.00    +0.000 A 
ATOM     23  C   UNL     1       1.811   8.935  18.758  0.00  0.00    +0.000 A 
ATOM     24  C   UNL     1       2.139   7.663  19.259  0.00  0.00    +0.000 A 
BRANCH  22  25
ATOM     25  N   UNL     1       0.734  11.111  19.055  0.00  0.00    +0.000 N 
ATOM     26  C   UNL     1       1.734  12.055  18.525  0.00  0.00    +0.000 C 
ATOM     27  C   UNL     1       1.368  13.489  18.965  0.00  0.00    +0.000 C 
ATOM     28  N   UNL     1       0.002  13.875  18.540  0.00  0.00    +0.000 NA
ATOM     29  C   UNL     1      -0.320  15.219  19.012  0.00  0.00    +0.000 C 
ATOM     30  C   UNL     1      -0.967  12.888  19.073  0.00  0.00    +0.000 C 
ATOM     31  C   UNL     1      -0.643  11.430  18.659  0.00  0.00    +0.000 C 
ENDBRANCH  22  25
ENDBRANCH  17  19
ENDBRANCH   1  17
TORSDOF 7
ENDMDL
MODEL 2
REMARK VINA RESULT:      -7.7      1.537      2.237
REMARK  Name = 
REMARK  10 active torsions:
REMARK  status: ('A' for Active; 'I' for Inactive)
REMARK    1  A    between atoms: C_1  and  C_2
REMARK    2  A    between atoms: C_2  and  C_3
REMARK    3  A    between atoms: C_2  and  O_4
REMARK    4  A    between atoms: O_4  and  C_5
REMARK    5  A    between atoms: C_9  and  C_10
REMARK    6  A    between atoms: N_12  and  C_13
REMARK    7  A    between atoms: C_13  and  N_15
REMARK    8  A    between atoms: N_15  and  C_16
REMARK    9  A    between atoms: C_19  and  N_20
REMARK   10  A    between atoms: N_23  and  C_24
REMARK                            x       y       z     vdW  Elec       q    Type
REMARK                         _______ _______ _______ _____ _____    ______ ____
ROOT
ATOM      1  C   UNL     1       2.691   5.038  18.329  0.00  0.00    +0.000 C 
ATOM      2  S   UNL     1       1.425   3.971  18.068  0.00  0.00    +0.000 S 
ENDROOT
BRANCH   1   5
ATOM      3  C   UNL     1       4.441   3.915  16.959  0.00  0.00    +0.000 C 
ATOM      4  O   UNL     1       4.318   2.793  17.447  0.00  0.00    +0.000 OA
ATOM      5  N   UNL     1       3.722   5.011  17.412  0.00  0.00    +0.000 N 
ATOM      6  H   UNL     1       3.868   5.915  16.993  0.00  0.00    +0.000 HD
BRANCH   3  11
ATOM      7  C   UNL     1       6.249   4.033  13.592  0.00  0.00    +0.000 A 
ATOM      8  C   UNL     1       7.353   4.812  13.936  0.00  0.00    +0.000 A 
ATOM      9  C   UNL     1       7.523   5.253  15.246  0.00  0.00    +0.000 A 
ATOM     10  C   UNL     1       6.573   4.924  16.212  0.00  0.00    +0.000 A 
ATOM     11  C   UNL     1       5.454   4.143  15.882  0.00  0.00    +0.000 A 
ATOM     12  C   UNL     1       5.324   3.660  14.571  0.00  0.00    +0.000 A 
BRANCH   7  13
ATOM     13  O   UNL     1       6.191   3.641  12.284  0.00  0.00    +0.000 OA
BRANCH  13  15
ATOM     14  C   UNL     1       4.169   3.212  11.081  0.00  0.00    +0.000 C 
ATOM     15  C   UNL     1       5.264   2.597  11.947  0.00  0.00    +0.000 C 
ATOM     16  C   UNL     1       6.025   1.520  11.181  0.00  0.00    +0.000 C 
ENDBRANCH  13  15
ENDBRANCH   7  13
ENDBRANCH   3  11
ENDBRANCH   1   5
BRANCH   1  17
ATOM     17  N   UNL     1       2.805   5.973  19.326  0.00  0.00    +0.000 N 
ATOM     18  H   UNL     1       3.302   5.658  20.158  0.00  0.00    +0.000 HD
BRANCH  17  19
ATOM     19  C   UNL     1       2.234   7.257  19.413  0.00  0.00    +0.000 A 
ATOM     20  C   UNL     1       2.111   8.090  18.308  0.00  0.00    +0.000 A 
ATOM     21  C   UNL     1       1.461   9.320  18.424  0.00  0.00    +0.000 A 
ATOM     22  C   UNL     1       0.923   9.772  19.635  0.00  0.00    +0.000 A 
ATOM     23  C   UNL     1       1.052   8.914  20.734  0.00  0.00    +0.000 A 
ATOM     24  C   UNL     1       1.678   7.661  20.625  0.00  0.00    +0.000 A 
BRANCH  22  25
ATOM     25  N   UNL     1       0.349  11.023  19.714  0.00  0.00    +0.000 N 
ATOM     26  C   UNL     1       0.853  12.035  20.658  0.00  0.00    +0.000 C 
ATOM     27  C   UNL     1      -0.337  12.818  21.255  0.00  0.00    +0.000 C 
ATOM     28  N   UNL     1      -1.176  13.446  20.208  0.00  0.00    +0.000 NA
ATOM     29  C   UNL     1      -2.311  14.139  20.811  0.00  0.00    +0.000 C 
ATOM     30  C   UNL     1      -1.642  12.399  19.268  0.00  0.00    +0.000 C 
ATOM     31  C   UNL     1      -0.483  11.582  18.641  0.00  0.00    +0.000 C 
ENDBRANCH  22  25
ENDBRANCH  17  19
ENDBRANCH   1  17
TORSDOF 7
ENDMDL
MODEL 3
REMARK VINA RESULT:      -7.6      1.229      1.450
REMARK  Name = 
REMARK  10 active torsions:
REMARK  status: ('A' for Active; 'I' for Inactive)
REMARK    1  A    between atoms: C_1  and  C_2
REMARK    2  A    between atoms: C_2  and  C_3
REMARK    3  A    between atoms: C_2  and  O_4
REMARK    4  A    between atoms: O_4  and  C_5
REMARK    5  A    between atoms: C_9  and  C_10
REMARK    6  A    between atoms: N_12  and  C_13
REMARK    7  A    between atoms: C_13  and  N_15
REMARK    8  A    between atoms: N_15  and  C_16
REMARK    9  A    between atoms: C_19  and  N_20
REMARK   10  A    between atoms: N_23  and  C_24
REMARK                            x       y       z     vdW  Elec       q    Type
REMARK                         _______ _______ _______ _____ _____    ______ ____
ROOT
ATOM      1  C   UNL     1       2.287   5.007  19.662  0.00  0.00    +0.000 C 
ATOM      2  S   UNL     1       1.150   3.778  19.574  0.00  0.00    +0.000 S 
ENDROOT
BRANCH   1   5
ATOM      3  C   UNL     1       4.391   4.134  18.656  0.00  0.00    +0.000 C 
ATOM      4  O   UNL     1       4.669   3.338  19.553  0.00  0.00    +0.000 OA
ATOM      5  N   UNL     1       3.297   4.984  18.722  0.00  0.00    +0.000 N 
ATOM      6  H   UNL     1       3.119   5.631  17.972  0.00  0.00    +0.000 HD
BRANCH   3  11
ATOM      7  C   UNL     1       5.752   4.493  15.101  0.00  0.00    +0.000 A 
ATOM      8  C   UNL     1       7.106   4.678  15.377  0.00  0.00    +0.000 A 
ATOM      9  C   UNL     1       7.568   4.646  16.690  0.00  0.00    +0.000 A 
ATOM     10  C   UNL     1       6.665   4.442  17.734  0.00  0.00    +0.000 A 
ATOM     11  C   UNL     1       5.298   4.255  17.473  0.00  0.00    +0.000 A 
ATOM     12  C   UNL     1       4.855   4.236  16.142  0.00  0.00    +0.000 A 
BRANCH   7  13
ATOM     13  O   UNL     1       5.412   4.526  13.778  0.00  0.00    +0.000 OA
BRANCH  13  15
ATOM     14  C   UNL     1       4.944   3.022  11.979  0.00  0.00    +0.000 C 
ATOM     15  C   UNL     1       6.024   3.556  12.914  0.00  0.00    +0.000 C 
ATOM     16  C   UNL     1       7.128   4.256  12.127  0.00  0.00    +0.000 C 
ENDBRANCH  13  15
ENDBRANCH   7  13
ENDBRANCH   3  11
ENDBRANCH   1   5
BRANCH   1  17
ATOM     17  N   UNL     1       2.309   6.065  20.534  0.00  0.00    +0.000 N 
ATOM     18  H   UNL     1       2.697   5.859  21.454  0.00  0.00    +0.000 HD
BRANCH  17  19
ATOM     19  C   UNL     1       1.766   7.355  20.383  0.00  0.00    +0.000 A 
ATOM     20  C   UNL     1       1.172   8.038  21.436  0.00  0.00    +0.000 A 
ATOM     21  C   UNL     1       0.724   9.349  21.261  0.00  0.00    +0.000 A 
ATOM     22  C   UNL     1       0.836  10.022  20.038  0.00  0.00    +0.000 A 
ATOM     23  C   UNL     1       1.443   9.318  18.992  0.00  0.00    +0.000 A 
ATOM     24  C   UNL     1       1.925   8.009  19.162  0.00  0.00    +0.000 A 
BRANCH  22  25
ATOM     25  N   UNL     1       0.318  11.292  19.897  0.00  0.00    +0.000 N 
ATOM     26  C   UNL     1       1.030  12.468  20.426  0.00  0.00    +0.000 C 
ATOM     27  C   UNL     1       0.009  13.464  21.018  0.00  0.00    +0.000 C 
ATOM     28  N   UNL     1      -1.017  13.870  20.029  0.00  0.00    +0.000 NA
ATOM     29  C   UNL     1      -1.986  14.775  20.639  0.00  0.00    +0.000 C 
ATOM     30  C   UNL     1      -1.691  12.658  19.506  0.00  0.00    +0.000 C 
ATOM     31  C   UNL     1      -0.707  11.624  18.900  0.00  0.00    +0.000 C 
ENDBRANCH  22  25
ENDBRANCH  17  19
ENDBRANCH   1  17
TORSDOF 7
ENDMDL
MODEL 4
REMARK VINA RESULT:      -7.6      1.128      1.543
REMARK  Name = 
REMARK  10 active torsions:
REMARK  status: ('A' for Active; 'I' for Inactive)
REMARK    1  A    between atoms: C_1  and  C_2
REMARK    2  A    between atoms: C_2  and  C_3
REMARK    3  A    between atoms: C_2  and  O_4
REMARK    4  A    between atoms: O_4  and  C_5
REMARK    5  A    between atoms: C_9  and  C_10
REMARK    6  A    between atoms: N_12  and  C_13
REMARK    7  A    between atoms: C_13  and  N_15
REMARK    8  A    between atoms: N_15  and  C_16
REMARK    9  A    between atoms: C_19  and  N_20
REMARK   10  A    between atoms: N_23  and  C_24
REMARK                            x       y       z     vdW  Elec       q    Type
REMARK                         _______ _______ _______ _____ _____    ______ ____
ROOT
ATOM      1  C   UNL     1       2.614   4.694  20.280  0.00  0.00    +0.000 C 
ATOM      2  S   UNL     1       2.363   3.086  20.678  0.00  0.00    +0.000 S 
ENDROOT
BRANCH   1   5
ATOM      3  C   UNL     1       4.477   4.404  18.654  0.00  0.00    +0.000 C 
ATOM      4  O   UNL     1       5.191   3.699  19.367  0.00  0.00    +0.000 OA
ATOM      5  N   UNL     1       3.278   4.942  19.095  0.00  0.00    +0.000 N 
ATOM      6  H   UNL     1       2.735   5.528  18.483  0.00  0.00    +0.000 HD
BRANCH   3  11
ATOM      7  C   UNL     1       5.630   4.240  15.012  0.00  0.00    +0.000 A 
ATOM      8  C   UNL     1       5.604   5.597  14.688  0.00  0.00    +0.000 A 
ATOM      9  C   UNL     1       5.258   6.543  15.648  0.00  0.00    +0.000 A 
ATOM     10  C   UNL     1       4.921   6.128  16.936  0.00  0.00    +0.000 A 
ATOM     11  C   UNL     1       4.940   4.766  17.278  0.00  0.00    +0.000 A 
ATOM     12  C   UNL     1       5.343   3.828  16.316  0.00  0.00    +0.000 A 
BRANCH   7  13
ATOM     13  O   UNL     1       6.000   3.401  13.999  0.00  0.00    +0.000 OA
BRANCH  13  15
ATOM     14  C   UNL     1       7.239   3.724  11.979  0.00  0.00    +0.000 C 
ATOM     15  C   UNL     1       5.883   3.895  12.656  0.00  0.00    +0.000 C 
ATOM     16  C   UNL     1       4.812   3.074  11.943  0.00  0.00    +0.000 C 
ENDBRANCH  13  15
ENDBRANCH   7  13
ENDBRANCH   3  11
ENDBRANCH   1   5
BRANCH   1  17
ATOM     17  N   UNL     1       2.196   5.803  20.971  0.00  0.00    +0.000 N 
ATOM     18  H   UNL     1       2.013   5.649  21.962  0.00  0.00    +0.000 HD
BRANCH  17  19
ATOM     19  C   UNL     1       1.869   7.084  20.487  0.00  0.00    +0.000 A 
ATOM     20  C   UNL     1       2.254   7.520  19.226  0.00  0.00    +0.000 A 
ATOM     21  C   UNL     1       1.835   8.766  18.754  0.00  0.00    +0.000 A 
ATOM     22  C   UNL     1       1.035   9.625  19.517  0.00  0.00    +0.000 A 
ATOM     23  C   UNL     1       0.653   9.163  20.783  0.00  0.00    +0.000 A 
ATOM     24  C   UNL     1       1.043   7.900  21.257  0.00  0.00    +0.000 A 
BRANCH  22  25
ATOM     25  N   UNL     1       0.702  10.873  19.034  0.00  0.00    +0.000 N 
ATOM     26  C   UNL     1       1.736  11.799  18.542  0.00  0.00    +0.000 C 
ATOM     27  C   UNL     1       1.379  13.240  18.969  0.00  0.00    +0.000 C 
ATOM     28  N   UNL     1       0.036  13.649  18.494  0.00  0.00    +0.000 NA
ATOM     29  C   UNL     1      -0.279  14.998  18.955  0.00  0.00    +0.000 C 
ATOM     30  C   UNL     1      -0.968  12.679  18.991  0.00  0.00    +0.000 C 
ATOM     31  C   UNL     1      -0.654  11.215  18.589  0.00  0.00    +0.000 C 
ENDBRANCH  22  25
ENDBRANCH  17  19
ENDBRANCH   1  17
TORSDOF 7
ENDMDL
MODEL 5
REMARK VINA RESULT:      -7.5      1.472      1.899
REMARK  Name = 
REMARK  10 active torsions:
REMARK  status: ('A' for Active; 'I' for Inactive)
REMARK    1  A    between atoms: C_1  and  C_2
REMARK    2  A    between atoms: C_2  and  C_3
REMARK    3  A    between atoms: C_2  and  O_4
REMARK    4  A    between atoms: O_4  and  C_5
REMARK    5  A    between atoms: C_9  and  C_10
REMARK    6  A    between atoms: N_12  and  C_13
REMARK    7  A    between atoms: C_13  and  N_15
REMARK    8  A    between atoms: N_15  and  C_16
REMARK    9  A    between atoms: C_19  and  N_20
REMARK   10  A    between atoms: N_23  and  C_24
REMARK                            x       y       z     vdW  Elec       q    Type
REMARK                         _______ _______ _______ _____ _____    ______ ____
ROOT
ATOM      1  C   UNL     1       2.574   4.960  19.092  0.00  0.00    +0.000 C 
ATOM      2  S   UNL     1       1.408   3.758  19.076  0.00  0.00    +0.000 S 
ENDROOT
BRANCH   1   5
ATOM      3  C   UNL     1       4.877   4.982  18.146  0.00  0.00    +0.000 C 
ATOM      4  O   UNL     1       5.474   5.173  19.205  0.00  0.00    +0.000 OA
ATOM      5  N   UNL     1       3.494   4.944  18.062  0.00  0.00    +0.000 N 
ATOM      6  H   UNL     1       3.049   4.802  17.171  0.00  0.00    +0.000 HD
BRANCH   3  11
ATOM      7  C   UNL     1       6.100   3.907  14.686  0.00  0.00    +0.000 A 
ATOM      8  C   UNL     1       7.084   4.871  14.466  0.00  0.00    +0.000 A 
ATOM      9  C   UNL     1       7.367   5.822  15.441  0.00  0.00    +0.000 A 
ATOM     10  C   UNL     1       6.651   5.818  16.638  0.00  0.00    +0.000 A 
ATOM     11  C   UNL     1       5.657   4.856  16.875  0.00  0.00    +0.000 A 
ATOM     12  C   UNL     1       5.419   3.870  15.906  0.00  0.00    +0.000 A 
BRANCH   7  13
ATOM     13  O   UNL     1       5.916   3.011  13.670  0.00  0.00    +0.000 OA
BRANCH  13  15
ATOM     14  C   UNL     1       7.017   2.738  11.564  0.00  0.00    +0.000 C 
ATOM     15  C   UNL     1       5.952   3.520  12.327  0.00  0.00    +0.000 C 
ATOM     16  C   UNL     1       4.574   3.311  11.707  0.00  0.00    +0.000 C 
ENDBRANCH  13  15
ENDBRANCH   7  13
ENDBRANCH   3  11
ENDBRANCH   1   5
BRANCH   1  17
ATOM     17  N   UNL     1       2.699   5.993  19.985  0.00  0.00    +0.000 N 
ATOM     18  H   UNL     1       3.215   5.768  20.836  0.00  0.00    +0.000 HD
BRANCH  17  19
ATOM     19  C   UNL     1       2.119   7.275  19.951  0.00  0.00    +0.000 A 
ATOM     20  C   UNL     1       2.119   8.059  18.805  0.00  0.00    +0.000 A 
ATOM     21  C   UNL     1       1.456   9.288  18.794  0.00  0.00    +0.000 A 
ATOM     22  C   UNL     1       0.785   9.788  19.916  0.00  0.00    +0.000 A 
ATOM     23  C   UNL     1       0.792   8.979  21.059  0.00  0.00    +0.000 A 
ATOM     24  C   UNL     1       1.429   7.727  21.075  0.00  0.00    +0.000 A 
BRANCH  22  25
ATOM     25  N   UNL     1       0.203  11.037  19.875  0.00  0.00    +0.000 N 
ATOM     26  C   UNL     1       0.764  12.165  20.639  0.00  0.00    +0.000 C 
ATOM     27  C   UNL     1      -0.387  13.016  21.218  0.00  0.00    +0.000 C 
ATOM     28  N   UNL     1      -1.311  13.500  20.166  0.00  0.00    +0.000 NA
ATOM     29  C   UNL     1      -2.406  14.262  20.759  0.00  0.00    +0.000 C 
ATOM     30  C   UNL     1      -1.833  12.338  19.409  0.00  0.00    +0.000 C 
ATOM     31  C   UNL     1      -0.715  11.449  18.806  0.00  0.00    +0.000 C 
ENDBRANCH  22  25
ENDBRANCH  17  19
ENDBRANCH   1  17
TORSDOF 7
ENDMDL
MODEL 6
REMARK VINA RESULT:      -7.5      1.214      1.706
REMARK  Name = 
REMARK  10 active torsions:
REMARK  status: ('A' for Active; 'I' for Inactive)
REMARK    1  A    between atoms: C_1  and  C_2
REMARK    2  A    between atoms: C_2  and  C_3
REMARK    3  A    between atoms: C_2  and  O_4
REMARK    4  A    between atoms: O_4  and  C_5
REMARK    5  A    between atoms: C_9  and  C_10
REMARK    6  A    between atoms: N_12  and  C_13
REMARK    7  A    between atoms: C_13  and  N_15
REMARK    8  A    between atoms: N_15  and  C_16
REMARK    9  A    between atoms: C_19  and  N_20
REMARK   10  A    between atoms: N_23  and  C_24
REMARK                            x       y       z     vdW  Elec       q    Type
REMARK                         _______ _______ _______ _____ _____    ______ ____
ROOT
ATOM      1  C   UNL     1       2.183   4.842  19.584  0.00  0.00    +0.000 C 
ATOM      2  S   UNL     1       1.011   3.645  19.543  0.00  0.00    +0.000 S 
ENDROOT
BRANCH   1   5
ATOM      3  C   UNL     1       4.520   4.894  18.725  0.00  0.00    +0.000 C 
ATOM      4  O   UNL     1       5.068   5.161  19.794  0.00  0.00    +0.000 OA
ATOM      5  N   UNL     1       3.142   4.804  18.592  0.00  0.00    +0.000 N 
ATOM      6  H   UNL     1       2.737   4.600  17.694  0.00  0.00    +0.000 HD
BRANCH   3  11
ATOM      7  C   UNL     1       5.677   4.643  15.089  0.00  0.00    +0.000 A 
ATOM      8  C   UNL     1       7.059   4.604  15.277  0.00  0.00    +0.000 A 
ATOM      9  C   UNL     1       7.596   4.618  16.561  0.00  0.00    +0.000 A 
ATOM     10  C   UNL     1       6.745   4.687  17.664  0.00  0.00    +0.000 A 
ATOM     11  C   UNL     1       5.352   4.729  17.493  0.00  0.00    +0.000 A 
ATOM     12  C   UNL     1       4.822   4.659  16.195  0.00  0.00    +0.000 A 
BRANCH   7  13
ATOM     13  O   UNL     1       5.259   4.606  13.789  0.00  0.00    +0.000 OA
BRANCH  13  15
ATOM     14  C   UNL     1       4.697   3.186  11.949  0.00  0.00    +0.000 C 
ATOM     15  C   UNL     1       5.780   3.559  12.957  0.00  0.00    +0.000 C 
ATOM     16  C   UNL     1       7.022   4.092  12.249  0.00  0.00    +0.000 C 
ENDBRANCH  13  15
ENDBRANCH   7  13
ENDBRANCH   3  11
ENDBRANCH   1   5
BRANCH   1  17
ATOM     17  N   UNL     1       2.279   5.889  20.465  0.00  0.00    +0.000 N 
ATOM     18  H   UNL     1       2.637   5.645  21.388  0.00  0.00    +0.000 HD
BRANCH  17  19
ATOM     19  C   UNL     1       1.843   7.219  20.317  0.00  0.00    +0.000 A 
ATOM     20  C   UNL     1       1.975   7.915  19.123  0.00  0.00    +0.000 A 
ATOM     21  C   UNL     1       1.451   9.203  18.997  0.00  0.00    +0.000 A 
ATOM     22  C   UNL     1       0.793   9.850  20.050  0.00  0.00    +0.000 A 
ATOM     23  C   UNL     1       0.665   9.129  21.243  0.00  0.00    +0.000 A 
ATOM     24  C   UNL     1       1.161   7.821  21.373  0.00  0.00    +0.000 A 
BRANCH  22  25
ATOM     25  N   UNL     1       0.352  11.147  19.897  0.00  0.00    +0.000 N 
ATOM     26  C   UNL     1      -0.023  11.674  18.573  0.00  0.00    +0.000 C 
ATOM     27  C   UNL     1       0.451  13.139  18.450  0.00  0.00    +0.000 C 
ATOM     28  N   UNL     1      -0.091  13.995  19.531  0.00  0.00    +0.000 NA
ATOM     29  C   UNL     1       0.415  15.359  19.404  0.00  0.00    +0.000 C 
ATOM     30  C   UNL     1       0.289  13.418  20.842  0.00  0.00    +0.000 C 
ATOM     31  C   UNL     1      -0.165  11.946  21.015  0.00  0.00    +0.000 C 
ENDBRANCH  22  25
ENDBRANCH  17  19
ENDBRANCH   1  17
TORSDOF 7
ENDMDL
MODEL 7
REMARK VINA RESULT:      -7.4      4.001      9.772
REMARK  Name = 
REMARK  10 active torsions:
REMARK  status: ('A' for Active; 'I' for Inactive)
REMARK    1  A    between atoms: C_1  and  C_2
REMARK    2  A    between atoms: C_2  and  C_3
REMARK    3  A    between atoms: C_2  and  O_4
REMARK    4  A    between atoms: O_4  and  C_5
REMARK    5  A    between atoms: C_9  and  C_10
REMARK    6  A    between atoms: N_12  and  C_13
REMARK    7  A    between atoms: C_13  and  N_15
REMARK    8  A    between atoms: N_15  and  C_16
REMARK    9  A    between atoms: C_19  and  N_20
REMARK   10  A    between atoms: N_23  and  C_24
REMARK                            x       y       z     vdW  Elec       q    Type
REMARK                         _______ _______ _______ _____ _____    ______ ____
ROOT
ATOM      1  C   UNL     1       0.129   9.843  20.762  0.00  0.00    +0.000 C 
ATOM      2  S   UNL     1       0.636  11.200  21.604  0.00  0.00    +0.000 S 
ENDROOT
BRANCH   1   5
ATOM      3  C   UNL     1      -0.772  10.682  18.598  0.00  0.00    +0.000 C 
ATOM      4  O   UNL     1       0.229  11.309  18.251  0.00  0.00    +0.000 OA
ATOM      5  N   UNL     1      -0.862  10.033  19.820  0.00  0.00    +0.000 N 
ATOM      6  H   UNL     1      -1.707   9.547  20.069  0.00  0.00    +0.000 HD
BRANCH   3  11
ATOM      7  C   UNL     1      -4.148  11.475  16.989  0.00  0.00    +0.000 A 
ATOM      8  C   UNL     1      -4.072  10.668  15.854  0.00  0.00    +0.000 A 
ATOM      9  C   UNL     1      -2.962   9.855  15.642  0.00  0.00    +0.000 A 
ATOM     10  C   UNL     1      -1.916   9.861  16.564  0.00  0.00    +0.000 A 
ATOM     11  C   UNL     1      -1.976  10.669  17.711  0.00  0.00    +0.000 A 
ATOM     12  C   UNL     1      -3.124  11.443  17.939  0.00  0.00    +0.000 A 
BRANCH   7  13
ATOM     13  O   UNL     1      -5.289  12.219  17.105  0.00  0.00    +0.000 OA
BRANCH  13  15
ATOM     14  C   UNL     1      -6.924  13.375  18.413  0.00  0.00    +0.000 C 
ATOM     15  C   UNL     1      -5.978  12.179  18.364  0.00  0.00    +0.000 C 
ATOM     16  C   UNL     1      -6.754  10.868  18.436  0.00  0.00    +0.000 C 
ENDBRANCH  13  15
ENDBRANCH   7  13
ENDBRANCH   3  11
ENDBRANCH   1   5
BRANCH   1  17
ATOM     17  N   UNL     1       0.615   8.564  20.865  0.00  0.00    +0.000 N 
ATOM     18  H   UNL     1       0.307   8.051  21.691  0.00  0.00    +0.000 HD
BRANCH  17  19
ATOM     19  C   UNL     1       1.566   7.905  20.064  0.00  0.00    +0.000 A 
ATOM     20  C   UNL     1       2.013   6.622  20.348  0.00  0.00    +0.000 A 
ATOM     21  C   UNL     1       2.893   5.975  19.478  0.00  0.00    +0.000 A 
ATOM     22  C   UNL     1       3.369   6.579  18.308  0.00  0.00    +0.000 A 
ATOM     23  C   UNL     1       2.901   7.871  18.037  0.00  0.00    +0.000 A 
ATOM     24  C   UNL     1       1.993   8.521  18.889  0.00  0.00    +0.000 A 
BRANCH  22  25
ATOM     25  N   UNL     1       4.288   5.925  17.515  0.00  0.00    +0.000 N 
ATOM     26  C   UNL     1       5.263   6.673  16.702  0.00  0.00    +0.000 C 
ATOM     27  C   UNL     1       5.446   5.966  15.341  0.00  0.00    +0.000 C 
ATOM     28  N   UNL     1       5.864   4.553  15.496  0.00  0.00    +0.000 NA
ATOM     29  C   UNL     1       5.984   3.909  14.191  0.00  0.00    +0.000 C 
ATOM     30  C   UNL     1       4.871   3.844  16.339  0.00  0.00    +0.000 C 
ATOM     31  C   UNL     1       4.650   4.517  17.718  0.00  0.00    +0.000 C 
ENDBRANCH  22  25
ENDBRANCH  17  19
ENDBRANCH   1  17
TORSDOF 7
ENDMDL
MODEL 8
REMARK VINA RESULT:      -7.4      1.254      1.722
REMARK  Name = 
REMARK  10 active torsions:
REMARK  status: ('A' for Active; 'I' for Inactive)
REMARK    1  A    between atoms: C_1  and  C_2
REMARK    2  A    between atoms: C_2  and  C_3
REMARK    3  A    between atoms: C_2  and  O_4
REMARK    4  A    between atoms: O_4  and  C_5
REMARK    5  A    between atoms: C_9  and  C_10
REMARK    6  A    between atoms: N_12  and  C_13
REMARK    7  A    between atoms: C_13  and  N_15
REMARK    8  A    between atoms: N_15  and  C_16
REMARK    9  A    between atoms: C_19  and  N_20
REMARK   10  A    between atoms: N_23  and  C_24
REMARK                            x       y       z     vdW  Elec       q    Type
REMARK                         _______ _______ _______ _____ _____    ______ ____
ROOT
ATOM      1  C   UNL     1       2.059   5.774  20.441  0.00  0.00    +0.000 C 
ATOM      2  S   UNL     1       1.183   4.353  20.291  0.00  0.00    +0.000 S 
ENDROOT
BRANCH   1   5
ATOM      3  C   UNL     1       4.107   4.852  19.367  0.00  0.00    +0.000 C 
ATOM      4  O   UNL     1       4.017   3.712  19.823  0.00  0.00    +0.000 OA
ATOM      5  N   UNL     1       3.222   5.865  19.703  0.00  0.00    +0.000 N 
ATOM      6  H   UNL     1       3.345   6.787  19.320  0.00  0.00    +0.000 HD
BRANCH   3  11
ATOM      7  C   UNL     1       6.254   5.674  16.312  0.00  0.00    +0.000 A 
ATOM      8  C   UNL     1       7.442   6.045  16.942  0.00  0.00    +0.000 A 
ATOM      9  C   UNL     1       7.550   5.989  18.329  0.00  0.00    +0.000 A 
ATOM     10  C   UNL     1       6.458   5.573  19.090  0.00  0.00    +0.000 A 
ATOM     11  C   UNL     1       5.254   5.197  18.471  0.00  0.00    +0.000 A 
ATOM     12  C   UNL     1       5.177   5.207  17.070  0.00  0.00    +0.000 A 
BRANCH   7  13
ATOM     13  O   UNL     1       6.264   5.751  14.947  0.00  0.00    +0.000 OA
BRANCH  13  15
ATOM     14  C   UNL     1       5.837   3.829  13.589  0.00  0.00    +0.000 C 
ATOM     15  C   UNL     1       6.919   4.693  14.231  0.00  0.00    +0.000 C 
ATOM     16  C   UNL     1       7.813   5.325  13.169  0.00  0.00    +0.000 C 
ENDBRANCH  13  15
ENDBRANCH   7  13
ENDBRANCH   3  11
ENDBRANCH   1   5
BRANCH   1  17
ATOM     17  N   UNL     1       1.733   6.884  21.178  0.00  0.00    +0.000 N 
ATOM     18  H   UNL     1       1.613   6.719  22.177  0.00  0.00    +0.000 HD
BRANCH  17  19
ATOM     19  C   UNL     1       1.423   8.185  20.739  0.00  0.00    +0.000 A 
ATOM     20  C   UNL     1       1.512   8.558  19.404  0.00  0.00    +0.000 A 
ATOM     21  C   UNL     1       1.112   9.835  19.003  0.00  0.00    +0.000 A 
ATOM     22  C   UNL     1       0.628  10.787  19.908  0.00  0.00    +0.000 A 
ATOM     23  C   UNL     1       0.541  10.389  21.247  0.00  0.00    +0.000 A 
ATOM     24  C   UNL     1       0.911   9.098  21.660  0.00  0.00    +0.000 A 
BRANCH  22  25
ATOM     25  N   UNL     1       0.309  12.056  19.472  0.00  0.00    +0.000 N 
ATOM     26  C   UNL     1       1.204  12.798  18.568  0.00  0.00    +0.000 C 
ATOM     27  C   UNL     1       1.221  14.289  18.972  0.00  0.00    +0.000 C 
ATOM     28  N   UNL     1      -0.135  14.884  18.976  0.00  0.00    +0.000 NA
ATOM     29  C   UNL     1      -0.080  16.279  19.405  0.00  0.00    +0.000 C 
ATOM     30  C   UNL     1      -1.008  14.095  19.878  0.00  0.00    +0.000 C 
ATOM     31  C   UNL     1      -1.058  12.589  19.514  0.00  0.00    +0.000 C 
ENDBRANCH  22  25
ENDBRANCH  17  19
ENDBRANCH   1  17
TORSDOF 7
ENDMDL
MODEL 9
REMARK VINA RESULT:      -7.4      1.654      2.555
REMARK  Name = 
REMARK  10 active torsions:
REMARK  status: ('A' for Active; 'I' for Inactive)
REMARK    1  A    between atoms: C_1  and  C_2
REMARK    2  A    between atoms: C_2  and  C_3
REMARK    3  A    between atoms: C_2  and  O_4
REMARK    4  A    between atoms: O_4  and  C_5
REMARK    5  A    between atoms: C_9  and  C_10
REMARK    6  A    between atoms: N_12  and  C_13
REMARK    7  A    between atoms: C_13  and  N_15
REMARK    8  A    between atoms: N_15  and  C_16
REMARK    9  A    between atoms: C_19  and  N_20
REMARK   10  A    between atoms: N_23  and  C_24
REMARK                            x       y       z     vdW  Elec       q    Type
REMARK                         _______ _______ _______ _____ _____    ______ ____
ROOT
ATOM      1  C   UNL     1       3.306   4.667  17.814  0.00  0.00    +0.000 C 
ATOM      2  S   UNL     1       2.164   3.445  17.708  0.00  0.00    +0.000 S 
ENDROOT
BRANCH   1   5
ATOM      3  C   UNL     1       5.547   4.420  16.758  0.00  0.00    +0.000 C 
ATOM      4  O   UNL     1       6.157   4.082  17.773  0.00  0.00    +0.000 OA
ATOM      5  N   UNL     1       4.205   4.766  16.771  0.00  0.00    +0.000 N 
ATOM      6  H   UNL     1       3.752   5.052  15.920  0.00  0.00    +0.000 HD
BRANCH   3  11
ATOM      7  C   UNL     1       6.594   4.107  13.094  0.00  0.00    +0.000 A 
ATOM      8  C   UNL     1       7.657   5.009  13.067  0.00  0.00    +0.000 A 
ATOM      9  C   UNL     1       8.047   5.671  14.227  0.00  0.00    +0.000 A 
ATOM     10  C   UNL     1       7.359   5.441  15.418  0.00  0.00    +0.000 A 
ATOM     11  C   UNL     1       6.285   4.537  15.462  0.00  0.00    +0.000 A 
ATOM     12  C   UNL     1       5.938   3.836  14.297  0.00  0.00    +0.000 A 
BRANCH   7  13
ATOM     13  O   UNL     1       6.308   3.500  11.903  0.00  0.00    +0.000 OA
BRANCH  13  15
ATOM     14  C   UNL     1       4.074   3.074  11.161  0.00  0.00    +0.000 C 
ATOM     15  C   UNL     1       5.278   2.499  11.902  0.00  0.00    +0.000 C 
ATOM     16  C   UNL     1       5.820   1.266  11.186  0.00  0.00    +0.000 C 
ENDBRANCH  13  15
ENDBRANCH   7  13
ENDBRANCH   3  11
ENDBRANCH   1   5
BRANCH   1  17
ATOM     17  N   UNL     1       3.428   5.615  18.798  0.00  0.00    +0.000 N 
ATOM     18  H   UNL     1       4.129   5.411  19.509  0.00  0.00    +0.000 HD
BRANCH  17  19
ATOM     19  C   UNL     1       2.647   6.763  19.030  0.00  0.00    +0.000 A 
ATOM     20  C   UNL     1       2.098   7.046  20.274  0.00  0.00    +0.000 A 
ATOM     21  C   UNL     1       1.403   8.240  20.480  0.00  0.00    +0.000 A 
ATOM     22  C   UNL     1       1.215   9.183  19.462  0.00  0.00    +0.000 A 
ATOM     23  C   UNL     1       1.782   8.880  18.218  0.00  0.00    +0.000 A 
ATOM     24  C   UNL     1       2.510   7.697  18.006  0.00  0.00    +0.000 A 
BRANCH  22  25
ATOM     25  N   UNL     1       0.464  10.315  19.697  0.00  0.00    +0.000 N 
ATOM     26  C   UNL     1      -0.590  10.738  18.759  0.00  0.00    +0.000 C 
ATOM     27  C   UNL     1      -0.583  12.278  18.641  0.00  0.00    +0.000 C 
ATOM     28  N   UNL     1      -0.749  12.942  19.954  0.00  0.00    +0.000 NA
ATOM     29  C   UNL     1      -0.694  14.394  19.804  0.00  0.00    +0.000 C 
ATOM     30  C   UNL     1       0.314  12.471  20.873  0.00  0.00    +0.000 C 
ATOM     31  C   UNL     1       0.350  10.929  21.026  0.00  0.00    +0.000 C 
ENDBRANCH  22  25
ENDBRANCH  17  19
ENDBRANCH   1  17
TORSDOF 7
ENDMDL
