MODEL 1
REMARK VINA RESULT:      -7.9      0.000      0.000
REMARK  Name = 
REMARK  3 active torsions:
REMARK  status: ('A' for Active; 'I' for Inactive)
REMARK    1  A    between atoms: C_2  and  C_3
REMARK    2  A    between atoms: C_5  and  C_6
REMARK    3  A    between atoms: C_13  and  C_14
REMARK                            x       y       z     vdW  Elec       q    Type
REMARK                         _______ _______ _______ _____ _____    ______ ____
ROOT
ATOM      1  C   UNL     1       5.795   4.839  18.110  0.00  0.00    +0.000 A 
ATOM      2  C   UNL     1       6.602   5.086  16.963  0.00  0.00    +0.000 A 
ATOM      3  C   UNL     1       6.008   4.493  15.866  0.00  0.00    +0.000 A 
ATOM      4  N   UNL     1       4.833   3.946  16.323  0.00  0.00    +0.000 N 
ATOM      5  C   UNL     1       4.664   4.146  17.680  0.00  0.00    +0.000 A 
ATOM      6  H   UNL     1       4.149   3.502  15.727  0.00  0.00    +0.000 HD
ENDROOT
BRANCH   3   7
ATOM      7  C   UNL     1       6.433   4.432  14.464  0.00  0.00    +0.000 A 
ATOM      8  C   UNL     1       5.835   3.545  13.558  0.00  0.00    +0.000 A 
ATOM      9  C   UNL     1       6.249   3.495  12.225  0.00  0.00    +0.000 A 
ATOM     10  C   UNL     1       7.272   4.332  11.781  0.00  0.00    +0.000 A 
ATOM     11  C   UNL     1       7.880   5.214  12.668  0.00  0.00    +0.000 A 
ATOM     12  C   UNL     1       7.464   5.263  14.001  0.00  0.00    +0.000 A 
ENDBRANCH   3   7
BRANCH   5  13
ATOM     13  C   UNL     1       3.435   3.724  18.371  0.00  0.00    +0.000 A 
ATOM     14  C   UNL     1       3.139   2.365  18.561  0.00  0.00    +0.000 A 
ATOM     15  C   UNL     1       1.946   1.969  19.174  0.00  0.00    +0.000 A 
ATOM     16  C   UNL     1       1.040   2.924  19.625  0.00  0.00    +0.000 A 
ATOM     17  C   UNL     1       1.320   4.276  19.452  0.00  0.00    +0.000 A 
ATOM     18  C   UNL     1       2.500   4.670  18.818  0.00  0.00    +0.000 A 
ENDBRANCH   5  13
BRANCH   1  20
ATOM     19  O   UNL     1       7.258   5.339  19.897  0.00  0.00    +0.000 OA
ATOM     20  C   UNL     1       6.110   5.244  19.470  0.00  0.00    +0.000 C 
ENDBRANCH   1  20
TORSDOF 3
ENDMDL
MODEL 2
REMARK VINA RESULT:      -7.9      0.211      1.563
REMARK  Name = 
REMARK  3 active torsions:
REMARK  status: ('A' for Active; 'I' for Inactive)
REMARK    1  A    between atoms: C_2  and  C_3
REMARK    2  A    between atoms: C_5  and  C_6
REMARK    3  A    between atoms: C_13  and  C_14
REMARK                            x       y       z     vdW  Elec       q    Type
REMARK                         _______ _______ _______ _____ _____    ______ ____
ROOT
ATOM      1  C   UNL     1       5.685   4.758  18.118  0.00  0.00    +0.000 A 
ATOM      2  C   UNL     1       6.520   4.981  16.986  0.00  0.00    +0.000 A 
ATOM      3  C   UNL     1       5.907   4.445  15.870  0.00  0.00    +0.000 A 
ATOM      4  N   UNL     1       4.695   3.959  16.302  0.00  0.00    +0.000 N 
ATOM      5  C   UNL     1       4.521   4.141  17.661  0.00  0.00    +0.000 A 
ATOM      6  H   UNL     1       3.995   3.568  15.688  0.00  0.00    +0.000 HD
ENDROOT
BRANCH   3   7
ATOM      7  C   UNL     1       6.346   4.388  14.473  0.00  0.00    +0.000 A 
ATOM      8  C   UNL     1       7.389   5.198  14.002  0.00  0.00    +0.000 A 
ATOM      9  C   UNL     1       7.797   5.135  12.668  0.00  0.00    +0.000 A 
ATOM     10  C   UNL     1       7.165   4.262  11.784  0.00  0.00    +0.000 A 
ATOM     11  C   UNL     1       6.124   3.456  12.234  0.00  0.00    +0.000 A 
ATOM     12  C   UNL     1       5.717   3.519  13.569  0.00  0.00    +0.000 A 
ENDBRANCH   3   7
BRANCH   5  13
ATOM     13  C   UNL     1       3.261   3.778  18.328  0.00  0.00    +0.000 A 
ATOM     14  C   UNL     1       2.525   4.727  19.055  0.00  0.00    +0.000 A 
ATOM     15  C   UNL     1       1.354   4.366  19.728  0.00  0.00    +0.000 A 
ATOM     16  C   UNL     1       0.887   3.055  19.668  0.00  0.00    +0.000 A 
ATOM     17  C   UNL     1       1.599   2.103  18.945  0.00  0.00    +0.000 A 
ATOM     18  C   UNL     1       2.783   2.459  18.293  0.00  0.00    +0.000 A 
ENDBRANCH   5  13
BRANCH   1  20
ATOM     19  O   UNL     1       7.137   5.417  19.862  0.00  0.00    +0.000 OA
ATOM     20  C   UNL     1       6.005   5.116  19.490  0.00  0.00    +0.000 C 
ENDBRANCH   1  20
TORSDOF 3
ENDMDL
MODEL 3
REMARK VINA RESULT:      -7.8      0.112      1.111
REMARK  Name = 
REMARK  3 active torsions:
REMARK  status: ('A' for Active; 'I' for Inactive)
REMARK    1  A    between atoms: C_2  and  C_3
REMARK    2  A    between atoms: C_5  and  C_6
REMARK    3  A    between atoms: C_13  and  C_14
REMARK                            x       y       z     vdW  Elec       q    Type
REMARK                         _______ _______ _______ _____ _____    ______ ____
ROOT
ATOM      1  C   UNL     1       5.771   4.784  18.143  0.00  0.00    +0.000 A 
ATOM      2  C   UNL     1       6.589   5.020  17.001  0.00  0.00    +0.000 A 
ATOM      3  C   UNL     1       5.982   4.454  15.896  0.00  0.00    +0.000 A 
ATOM      4  N   UNL     1       4.790   3.936  16.345  0.00  0.00    +0.000 N 
ATOM      5  C   UNL     1       4.623   4.127  17.704  0.00  0.00    +0.000 A 
ATOM      6  H   UNL     1       4.096   3.518  15.742  0.00  0.00    +0.000 HD
ENDROOT
BRANCH   3   7
ATOM      7  C   UNL     1       6.410   4.395  14.496  0.00  0.00    +0.000 A 
ATOM      8  C   UNL     1       7.431   5.224  14.009  0.00  0.00    +0.000 A 
ATOM      9  C   UNL     1       7.829   5.159  12.672  0.00  0.00    +0.000 A 
ATOM     10  C   UNL     1       7.208   4.264  11.801  0.00  0.00    +0.000 A 
ATOM     11  C   UNL     1       6.189   3.439  12.267  0.00  0.00    +0.000 A 
ATOM     12  C   UNL     1       5.793   3.505  13.605  0.00  0.00    +0.000 A 
ENDBRANCH   3   7
BRANCH   5  13
ATOM     13  C   UNL     1       3.380   3.734  18.386  0.00  0.00    +0.000 A 
ATOM     14  C   UNL     1       2.973   2.391  18.434  0.00  0.00    +0.000 A 
ATOM     15  C   UNL     1       1.766   2.028  19.041  0.00  0.00    +0.000 A 
ATOM     16  C   UNL     1       0.958   2.998  19.628  0.00  0.00    +0.000 A 
ATOM     17  C   UNL     1       1.350   4.333  19.597  0.00  0.00    +0.000 A 
ATOM     18  C   UNL     1       2.543   4.697  18.969  0.00  0.00    +0.000 A 
ENDBRANCH   5  13
BRANCH   1  20
ATOM     19  O   UNL     1       7.230   5.452  19.879  0.00  0.00    +0.000 OA
ATOM     20  C   UNL     1       6.093   5.167  19.508  0.00  0.00    +0.000 C 
ENDBRANCH   1  20
TORSDOF 3
ENDMDL
MODEL 4
REMARK VINA RESULT:      -7.7      1.037      6.372
REMARK  Name = 
REMARK  3 active torsions:
REMARK  status: ('A' for Active; 'I' for Inactive)
REMARK    1  A    between atoms: C_2  and  C_3
REMARK    2  A    between atoms: C_5  and  C_6
REMARK    3  A    between atoms: C_13  and  C_14
REMARK                            x       y       z     vdW  Elec       q    Type
REMARK                         _______ _______ _______ _____ _____    ______ ____
ROOT
ATOM      1  C   UNL     1       6.271   4.488  17.456  0.00  0.00    +0.000 A 
ATOM      2  C   UNL     1       5.348   4.242  18.514  0.00  0.00    +0.000 A 
ATOM      3  C   UNL     1       4.109   3.971  17.967  0.00  0.00    +0.000 A 
ATOM      4  N   UNL     1       4.285   3.992  16.604  0.00  0.00    +0.000 N 
ATOM      5  C   UNL     1       5.589   4.292  16.256  0.00  0.00    +0.000 A 
ATOM      6  H   UNL     1       3.561   3.759  15.939  0.00  0.00    +0.000 HD
ENDROOT
BRANCH   3   7
ATOM      7  C   UNL     1       2.825   3.673  18.609  0.00  0.00    +0.000 A 
ATOM      8  C   UNL     1       2.009   2.626  18.158  0.00  0.00    +0.000 A 
ATOM      9  C   UNL     1       0.788   2.352  18.777  0.00  0.00    +0.000 A 
ATOM     10  C   UNL     1       0.364   3.126  19.856  0.00  0.00    +0.000 A 
ATOM     11  C   UNL     1       1.159   4.173  20.313  0.00  0.00    +0.000 A 
ATOM     12  C   UNL     1       2.381   4.445  19.692  0.00  0.00    +0.000 A 
ENDBRANCH   3   7
BRANCH   5  13
ATOM     13  C   UNL     1       6.030   4.282  14.853  0.00  0.00    +0.000 A 
ATOM     14  C   UNL     1       5.359   3.516  13.887  0.00  0.00    +0.000 A 
ATOM     15  C   UNL     1       5.812   3.471  12.564  0.00  0.00    +0.000 A 
ATOM     16  C   UNL     1       6.929   4.206  12.181  0.00  0.00    +0.000 A 
ATOM     17  C   UNL     1       7.603   4.977  13.124  0.00  0.00    +0.000 A 
ATOM     18  C   UNL     1       7.165   5.002  14.450  0.00  0.00    +0.000 A 
ENDBRANCH   5  13
BRANCH   1  20
ATOM     19  O   UNL     1       8.570   4.058  17.792  0.00  0.00    +0.000 OA
ATOM     20  C   UNL     1       7.664   4.870  17.620  0.00  0.00    +0.000 C 
ENDBRANCH   1  20
TORSDOF 3
ENDMDL
MODEL 5
REMARK VINA RESULT:      -7.7      1.039      6.441
REMARK  Name = 
REMARK  3 active torsions:
REMARK  status: ('A' for Active; 'I' for Inactive)
REMARK    1  A    between atoms: C_2  and  C_3
REMARK    2  A    between atoms: C_5  and  C_6
REMARK    3  A    between atoms: C_13  and  C_14
REMARK                            x       y       z     vdW  Elec       q    Type
REMARK                         _______ _______ _______ _____ _____    ______ ____
ROOT
ATOM      1  C   UNL     1       6.279   4.503  17.477  0.00  0.00    +0.000 A 
ATOM      2  C   UNL     1       5.357   4.264  18.535  0.00  0.00    +0.000 A 
ATOM      3  C   UNL     1       4.115   3.998  17.989  0.00  0.00    +0.000 A 
ATOM      4  N   UNL     1       4.291   4.017  16.626  0.00  0.00    +0.000 N 
ATOM      5  C   UNL     1       5.596   4.309  16.277  0.00  0.00    +0.000 A 
ATOM      6  H   UNL     1       3.565   3.786  15.962  0.00  0.00    +0.000 HD
ENDROOT
BRANCH   3   7
ATOM      7  C   UNL     1       2.831   3.707  18.632  0.00  0.00    +0.000 A 
ATOM      8  C   UNL     1       2.377   4.455  19.728  0.00  0.00    +0.000 A 
ATOM      9  C   UNL     1       1.151   4.168  20.333  0.00  0.00    +0.000 A 
ATOM     10  C   UNL     1       0.363   3.125  19.850  0.00  0.00    +0.000 A 
ATOM     11  C   UNL     1       0.800   2.369  18.767  0.00  0.00    +0.000 A 
ATOM     12  C   UNL     1       2.027   2.658  18.163  0.00  0.00    +0.000 A 
ENDBRANCH   3   7
BRANCH   5  13
ATOM     13  C   UNL     1       6.037   4.295  14.874  0.00  0.00    +0.000 A 
ATOM     14  C   UNL     1       5.363   3.528  13.910  0.00  0.00    +0.000 A 
ATOM     15  C   UNL     1       5.816   3.480  12.587  0.00  0.00    +0.000 A 
ATOM     16  C   UNL     1       6.934   4.213  12.202  0.00  0.00    +0.000 A 
ATOM     17  C   UNL     1       7.610   4.985  13.142  0.00  0.00    +0.000 A 
ATOM     18  C   UNL     1       7.172   5.014  14.469  0.00  0.00    +0.000 A 
ENDBRANCH   5  13
BRANCH   1  20
ATOM     19  O   UNL     1       8.580   4.061  17.790  0.00  0.00    +0.000 OA
ATOM     20  C   UNL     1       7.675   4.878  17.639  0.00  0.00    +0.000 C 
ENDBRANCH   1  20
TORSDOF 3
ENDMDL
MODEL 6
REMARK VINA RESULT:      -7.7      1.156      6.501
REMARK  Name = 
REMARK  3 active torsions:
REMARK  status: ('A' for Active; 'I' for Inactive)
REMARK    1  A    between atoms: C_2  and  C_3
REMARK    2  A    between atoms: C_5  and  C_6
REMARK    3  A    between atoms: C_13  and  C_14
REMARK                            x       y       z     vdW  Elec       q    Type
REMARK                         _______ _______ _______ _____ _____    ______ ____
ROOT
ATOM      1  C   UNL     1       6.068   5.589  17.113  0.00  0.00    +0.000 A 
ATOM      2  C   UNL     1       5.186   5.373  18.210  0.00  0.00    +0.000 A 
ATOM      3  C   UNL     1       4.137   4.581  17.787  0.00  0.00    +0.000 A 
ATOM      4  N   UNL     1       4.404   4.271  16.474  0.00  0.00    +0.000 N 
ATOM      5  C   UNL     1       5.576   4.858  16.033  0.00  0.00    +0.000 A 
ATOM      6  H   UNL     1       3.841   3.643  15.918  0.00  0.00    +0.000 HD
ENDROOT
BRANCH   3   7
ATOM      7  C   UNL     1       2.961   4.085  18.508  0.00  0.00    +0.000 A 
ATOM      8  C   UNL     1       2.568   4.642  19.733  0.00  0.00    +0.000 A 
ATOM      9  C   UNL     1       1.446   4.161  20.412  0.00  0.00    +0.000 A 
ATOM     10  C   UNL     1       0.702   3.112  19.873  0.00  0.00    +0.000 A 
ATOM     11  C   UNL     1       1.081   2.545  18.661  0.00  0.00    +0.000 A 
ATOM     12  C   UNL     1       2.203   3.028  17.984  0.00  0.00    +0.000 A 
ENDBRANCH   3   7
BRANCH   5  13
ATOM     13  C   UNL     1       6.107   4.593  14.687  0.00  0.00    +0.000 A 
ATOM     14  C   UNL     1       7.270   5.230  14.228  0.00  0.00    +0.000 A 
ATOM     15  C   UNL     1       7.743   5.012  12.930  0.00  0.00    +0.000 A 
ATOM     16  C   UNL     1       7.074   4.138  12.078  0.00  0.00    +0.000 A 
ATOM     17  C   UNL     1       5.923   3.491  12.519  0.00  0.00    +0.000 A 
ATOM     18  C   UNL     1       5.438   3.729  13.807  0.00  0.00    +0.000 A 
ENDBRANCH   5  13
BRANCH   1  20
ATOM     19  O   UNL     1       7.247   7.623  16.872  0.00  0.00    +0.000 OA
ATOM     20  C   UNL     1       7.259   6.423  17.135  0.00  0.00    +0.000 C 
ENDBRANCH   1  20
TORSDOF 3
ENDMDL
MODEL 7
REMARK VINA RESULT:      -7.7      1.028      6.404
REMARK  Name = 
REMARK  3 active torsions:
REMARK  status: ('A' for Active; 'I' for Inactive)
REMARK    1  A    between atoms: C_2  and  C_3
REMARK    2  A    between atoms: C_5  and  C_6
REMARK    3  A    between atoms: C_13  and  C_14
REMARK                            x       y       z     vdW  Elec       q    Type
REMARK                         _______ _______ _______ _____ _____    ______ ____
ROOT
ATOM      1  C   UNL     1       6.297   4.494  17.489  0.00  0.00    +0.000 A 
ATOM      2  C   UNL     1       5.361   4.259  18.537  0.00  0.00    +0.000 A 
ATOM      3  C   UNL     1       4.131   3.973  17.976  0.00  0.00    +0.000 A 
ATOM      4  N   UNL     1       4.327   3.976  16.615  0.00  0.00    +0.000 N 
ATOM      5  C   UNL     1       5.634   4.278  16.283  0.00  0.00    +0.000 A 
ATOM      6  H   UNL     1       3.614   3.730  15.944  0.00  0.00    +0.000 HD
ENDROOT
BRANCH   3   7
ATOM      7  C   UNL     1       2.840   3.677  18.604  0.00  0.00    +0.000 A 
ATOM      8  C   UNL     1       2.013   2.653  18.122  0.00  0.00    +0.000 A 
ATOM      9  C   UNL     1       0.784   2.381  18.728  0.00  0.00    +0.000 A 
ATOM     10  C   UNL     1       0.364   3.134  19.824  0.00  0.00    +0.000 A 
ATOM     11  C   UNL     1       1.171   4.157  20.311  0.00  0.00    +0.000 A 
ATOM     12  C   UNL     1       2.400   4.427  19.704  0.00  0.00    +0.000 A 
ENDBRANCH   3   7
BRANCH   5  13
ATOM     13  C   UNL     1       6.096   4.251  14.886  0.00  0.00    +0.000 A 
ATOM     14  C   UNL     1       7.197   5.016  14.471  0.00  0.00    +0.000 A 
ATOM     15  C   UNL     1       7.602   5.025  13.132  0.00  0.00    +0.000 A 
ATOM     16  C   UNL     1       6.925   4.253  12.191  0.00  0.00    +0.000 A 
ATOM     17  C   UNL     1       5.836   3.483  12.586  0.00  0.00    +0.000 A 
ATOM     18  C   UNL     1       5.418   3.494  13.919  0.00  0.00    +0.000 A 
ENDBRANCH   5  13
BRANCH   1  20
ATOM     19  O   UNL     1       8.596   4.081  17.852  0.00  0.00    +0.000 OA
ATOM     20  C   UNL     1       7.686   4.886  17.668  0.00  0.00    +0.000 C 
ENDBRANCH   1  20
TORSDOF 3
ENDMDL
MODEL 8
REMARK VINA RESULT:      -7.7      1.039      6.473
REMARK  Name = 
REMARK  3 active torsions:
REMARK  status: ('A' for Active; 'I' for Inactive)
REMARK    1  A    between atoms: C_2  and  C_3
REMARK    2  A    between atoms: C_5  and  C_6
REMARK    3  A    between atoms: C_13  and  C_14
REMARK                            x       y       z     vdW  Elec       q    Type
REMARK                         _______ _______ _______ _____ _____    ______ ____
ROOT
ATOM      1  C   UNL     1       6.275   4.496  17.506  0.00  0.00    +0.000 A 
ATOM      2  C   UNL     1       5.336   4.264  18.552  0.00  0.00    +0.000 A 
ATOM      3  C   UNL     1       4.107   3.979  17.989  0.00  0.00    +0.000 A 
ATOM      4  N   UNL     1       4.306   3.979  16.628  0.00  0.00    +0.000 N 
ATOM      5  C   UNL     1       5.614   4.279  16.298  0.00  0.00    +0.000 A 
ATOM      6  H   UNL     1       3.594   3.733  15.956  0.00  0.00    +0.000 HD
ENDROOT
BRANCH   3   7
ATOM      7  C   UNL     1       2.814   3.687  18.614  0.00  0.00    +0.000 A 
ATOM      8  C   UNL     1       2.339   4.440  19.697  0.00  0.00    +0.000 A 
ATOM      9  C   UNL     1       1.106   4.152  20.284  0.00  0.00    +0.000 A 
ATOM     10  C   UNL     1       0.330   3.100  19.797  0.00  0.00    +0.000 A 
ATOM     11  C   UNL     1       0.789   2.339  18.727  0.00  0.00    +0.000 A 
ATOM     12  C   UNL     1       2.023   2.630  18.140  0.00  0.00    +0.000 A 
ENDBRANCH   3   7
BRANCH   5  13
ATOM     13  C   UNL     1       6.079   4.248  14.903  0.00  0.00    +0.000 A 
ATOM     14  C   UNL     1       7.188   5.004  14.490  0.00  0.00    +0.000 A 
ATOM     15  C   UNL     1       7.596   5.009  13.152  0.00  0.00    +0.000 A 
ATOM     16  C   UNL     1       6.915   4.244  12.210  0.00  0.00    +0.000 A 
ATOM     17  C   UNL     1       5.819   3.482  12.602  0.00  0.00    +0.000 A 
ATOM     18  C   UNL     1       5.397   3.497  13.934  0.00  0.00    +0.000 A 
ENDBRANCH   5  13
BRANCH   1  20
ATOM     19  O   UNL     1       8.583   4.078  17.798  0.00  0.00    +0.000 OA
ATOM     20  C   UNL     1       7.664   4.887  17.687  0.00  0.00    +0.000 C 
ENDBRANCH   1  20
TORSDOF 3
ENDMDL
MODEL 9
REMARK VINA RESULT:      -7.7      1.169      6.465
REMARK  Name = 
REMARK  3 active torsions:
REMARK  status: ('A' for Active; 'I' for Inactive)
REMARK    1  A    between atoms: C_2  and  C_3
REMARK    2  A    between atoms: C_5  and  C_6
REMARK    3  A    between atoms: C_13  and  C_14
REMARK                            x       y       z     vdW  Elec       q    Type
REMARK                         _______ _______ _______ _____ _____    ______ ____
ROOT
ATOM      1  C   UNL     1       6.074   5.594  17.129  0.00  0.00    +0.000 A 
ATOM      2  C   UNL     1       5.208   5.365  18.237  0.00  0.00    +0.000 A 
ATOM      3  C   UNL     1       4.145   4.590  17.817  0.00  0.00    +0.000 A 
ATOM      4  N   UNL     1       4.387   4.302  16.495  0.00  0.00    +0.000 N 
ATOM      5  C   UNL     1       5.557   4.886  16.045  0.00  0.00    +0.000 A 
ATOM      6  H   UNL     1       3.809   3.689  15.937  0.00  0.00    +0.000 HD
ENDROOT
BRANCH   3   7
ATOM      7  C   UNL     1       2.977   4.092  18.549  0.00  0.00    +0.000 A 
ATOM      8  C   UNL     1       2.643   4.589  19.817  0.00  0.00    +0.000 A 
ATOM      9  C   UNL     1       1.528   4.106  20.505  0.00  0.00    +0.000 A 
ATOM     10  C   UNL     1       0.732   3.114  19.934  0.00  0.00    +0.000 A 
ATOM     11  C   UNL     1       1.052   2.606  18.679  0.00  0.00    +0.000 A 
ATOM     12  C   UNL     1       2.167   3.091  17.992  0.00  0.00    +0.000 A 
ENDBRANCH   3   7
BRANCH   5  13
ATOM     13  C   UNL     1       6.063   4.641  14.686  0.00  0.00    +0.000 A 
ATOM     14  C   UNL     1       5.399   3.766  13.811  0.00  0.00    +0.000 A 
ATOM     15  C   UNL     1       5.911   3.499  12.538  0.00  0.00    +0.000 A 
ATOM     16  C   UNL     1       7.083   4.116  12.110  0.00  0.00    +0.000 A 
ATOM     17  C   UNL     1       7.750   4.993  12.960  0.00  0.00    +0.000 A 
ATOM     18  C   UNL     1       7.251   5.240  14.241  0.00  0.00    +0.000 A 
ENDBRANCH   5  13
BRANCH   1  20
ATOM     19  O   UNL     1       7.271   7.616  16.876  0.00  0.00    +0.000 OA
ATOM     20  C   UNL     1       7.272   6.416  17.147  0.00  0.00    +0.000 C 
ENDBRANCH   1  20
TORSDOF 3
ENDMDL
