MODEL 1
REMARK VINA RESULT:      -7.4      0.000      0.000
REMARK  Name = 
REMARK  5 active torsions:
REMARK  status: ('A' for Active; 'I' for Inactive)
REMARK    1  A    between atoms: S_2  and  N_4
REMARK    2  A    between atoms: S_2  and  N_14
REMARK    3  A    between atoms: N_4  and  C_5
REMARK    4  A    between atoms: C_5  and  C_6
REMARK    5  A    between atoms: C_6  and  C_7
REMARK                            x       y       z     vdW  Elec       q    Type
REMARK                         _______ _______ _______ _____ _____    ______ ____
ROOT
ATOM      1  N   UNL     1       5.472   3.348  16.682  0.00  0.00    +0.000 NA
ATOM      2  H   UNL     1       5.917   2.853  17.459  0.00  0.00    +0.000 HD
ENDROOT
BRANCH   1   4
ATOM      3  O   UNL     1       7.811   4.313  16.507  0.00  0.00    +0.000 OA
ATOM      4  S   UNL     1       6.427   4.694  16.354  0.00  0.00    +0.000 S 
ATOM      5  O   UNL     1       5.935   5.265  15.128  0.00  0.00    +0.000 OA
BRANCH   4   6
ATOM      6  N   UNL     1       5.998   5.725  17.617  0.00  0.00    +0.000 NA
ATOM      7  C   UNL     1       6.218   7.178  17.289  0.00  0.00    +0.000 C 
ATOM      8  C   UNL     1       7.696   7.574  17.459  0.00  0.00    +0.000 C 
ATOM      9  O   UNL     1       8.178   7.267  18.778  0.00  0.00    +0.000 OA
ATOM     10  C   UNL     1       8.023   5.872  19.076  0.00  0.00    +0.000 C 
ATOM     11  C   UNL     1       6.556   5.456  18.976  0.00  0.00    +0.000 C 
ENDBRANCH   4   6
ENDBRANCH   1   4
BRANCH   1  12
ATOM     12  C   UNL     1       4.058   3.711  16.964  0.00  0.00    +0.000 C 
BRANCH  12  13
ATOM     13  C   UNL     1       3.272   2.529  17.528  0.00  0.00    +0.000 C 
BRANCH  13  14
ATOM     14  C   UNL     1       2.695   2.897  18.872  0.00  0.00    +0.000 A 
ATOM     15  C   UNL     1       3.283   2.444  20.062  0.00  0.00    +0.000 A 
ATOM     16  C   UNL     1       2.690   2.728  21.296  0.00  0.00    +0.000 A 
ATOM     17  C   UNL     1       1.505   3.463  21.356  0.00  0.00    +0.000 A 
ATOM     18  C   UNL     1       0.909   3.913  20.180  0.00  0.00    +0.000 A 
ATOM     19  C   UNL     1       1.504   3.627  18.954  0.00  0.00    +0.000 A 
ATOM     20  F   UNL     1       0.902   4.039  17.830  0.00  0.00    +0.000 F 
ENDBRANCH  13  14
ENDBRANCH  12  13
ENDBRANCH   1  12
TORSDOF 5
ENDMDL
MODEL 2
REMARK VINA RESULT:      -7.2      1.022      1.071
REMARK  Name = 
REMARK  5 active torsions:
REMARK  status: ('A' for Active; 'I' for Inactive)
REMARK    1  A    between atoms: S_2  and  N_4
REMARK    2  A    between atoms: S_2  and  N_14
REMARK    3  A    between atoms: N_4  and  C_5
REMARK    4  A    between atoms: C_5  and  C_6
REMARK    5  A    between atoms: C_6  and  C_7
REMARK                            x       y       z     vdW  Elec       q    Type
REMARK                         _______ _______ _______ _____ _____    ______ ____
ROOT
ATOM      1  N   UNL     1       5.677   3.426  16.150  0.00  0.00    +0.000 NA
ATOM      2  H   UNL     1       6.124   2.609  16.575  0.00  0.00    +0.000 HD
ENDROOT
BRANCH   1   4
ATOM      3  O   UNL     1       8.065   4.131  16.635  0.00  0.00    +0.000 OA
ATOM      4  S   UNL     1       6.798   4.679  16.212  0.00  0.00    +0.000 S 
ATOM      5  O   UNL     1       6.670   5.414  14.981  0.00  0.00    +0.000 OA
BRANCH   4   6
ATOM      6  N   UNL     1       6.169   5.630  17.454  0.00  0.00    +0.000 NA
ATOM      7  C   UNL     1       6.266   7.106  17.169  0.00  0.00    +0.000 C 
ATOM      8  C   UNL     1       7.678   7.644  17.466  0.00  0.00    +0.000 C 
ATOM      9  O   UNL     1       8.083   7.353  18.813  0.00  0.00    +0.000 OA
ATOM     10  C   UNL     1       8.047   5.942  19.074  0.00  0.00    +0.000 C 
ATOM     11  C   UNL     1       6.643   5.384  18.848  0.00  0.00    +0.000 C 
ENDBRANCH   4   6
ENDBRANCH   1   4
BRANCH   1  12
ATOM     12  C   UNL     1       4.390   3.784  16.802  0.00  0.00    +0.000 C 
BRANCH  12  13
ATOM     13  C   UNL     1       4.041   2.817  17.932  0.00  0.00    +0.000 C 
BRANCH  13  14
ATOM     14  C   UNL     1       2.988   3.433  18.820  0.00  0.00    +0.000 A 
ATOM     15  C   UNL     1       3.282   4.537  19.633  0.00  0.00    +0.000 A 
ATOM     16  C   UNL     1       2.319   5.046  20.510  0.00  0.00    +0.000 A 
ATOM     17  C   UNL     1       1.055   4.458  20.585  0.00  0.00    +0.000 A 
ATOM     18  C   UNL     1       0.754   3.357  19.786  0.00  0.00    +0.000 A 
ATOM     19  C   UNL     1       1.718   2.854  18.916  0.00  0.00    +0.000 A 
ATOM     20  F   UNL     1       1.424   1.776  18.178  0.00  0.00    +0.000 F 
ENDBRANCH  13  14
ENDBRANCH  12  13
ENDBRANCH   1  12
TORSDOF 5
ENDMDL
MODEL 3
REMARK VINA RESULT:      -7.0      1.213      1.633
REMARK  Name = 
REMARK  5 active torsions:
REMARK  status: ('A' for Active; 'I' for Inactive)
REMARK    1  A    between atoms: S_2  and  N_4
REMARK    2  A    between atoms: S_2  and  N_14
REMARK    3  A    between atoms: N_4  and  C_5
REMARK    4  A    between atoms: C_5  and  C_6
REMARK    5  A    between atoms: C_6  and  C_7
REMARK                            x       y       z     vdW  Elec       q    Type
REMARK                         _______ _______ _______ _____ _____    ______ ____
ROOT
ATOM      1  N   UNL     1       5.077   3.911  15.895  0.00  0.00    +0.000 NA
ATOM      2  H   UNL     1       5.511   2.986  15.841  0.00  0.00    +0.000 HD
ENDROOT
BRANCH   1   4
ATOM      3  O   UNL     1       7.564   4.303  16.202  0.00  0.00    +0.000 OA
ATOM      4  S   UNL     1       6.331   5.028  16.006  0.00  0.00    +0.000 S 
ATOM      5  O   UNL     1       6.166   5.950  14.913  0.00  0.00    +0.000 OA
BRANCH   4   6
ATOM      6  N   UNL     1       5.935   5.835  17.432  0.00  0.00    +0.000 NA
ATOM      7  C   UNL     1       6.206   7.315  17.364  0.00  0.00    +0.000 C 
ATOM      8  C   UNL     1       7.696   7.625  17.595  0.00  0.00    +0.000 C 
ATOM      9  O   UNL     1       8.165   7.075  18.837  0.00  0.00    +0.000 OA
ATOM     10  C   UNL     1       7.962   5.655  18.885  0.00  0.00    +0.000 C 
ATOM     11  C   UNL     1       6.482   5.312  18.720  0.00  0.00    +0.000 C 
ENDBRANCH   4   6
ENDBRANCH   1   4
BRANCH   1  12
ATOM     12  C   UNL     1       4.110   4.031  17.018  0.00  0.00    +0.000 C 
BRANCH  12  13
ATOM     13  C   UNL     1       3.915   2.700  17.741  0.00  0.00    +0.000 C 
BRANCH  13  14
ATOM     14  C   UNL     1       2.989   2.890  18.916  0.00  0.00    +0.000 A 
ATOM     15  C   UNL     1       1.709   3.436  18.748  0.00  0.00    +0.000 A 
ATOM     16  C   UNL     1       0.893   3.681  19.857  0.00  0.00    +0.000 A 
ATOM     17  C   UNL     1       1.347   3.386  21.144  0.00  0.00    +0.000 A 
ATOM     18  C   UNL     1       2.620   2.850  21.323  0.00  0.00    +0.000 A 
ATOM     19  C   UNL     1       3.428   2.609  20.215  0.00  0.00    +0.000 A 
ATOM     20  F   UNL     1       4.662   2.123  20.406  0.00  0.00    +0.000 F 
ENDBRANCH  13  14
ENDBRANCH  12  13
ENDBRANCH   1  12
TORSDOF 5
ENDMDL
MODEL 4
REMARK VINA RESULT:      -6.9      3.239      5.776
REMARK  Name = 
REMARK  5 active torsions:
REMARK  status: ('A' for Active; 'I' for Inactive)
REMARK    1  A    between atoms: S_2  and  N_4
REMARK    2  A    between atoms: S_2  and  N_14
REMARK    3  A    between atoms: N_4  and  C_5
REMARK    4  A    between atoms: C_5  and  C_6
REMARK    5  A    between atoms: C_6  and  C_7
REMARK                            x       y       z     vdW  Elec       q    Type
REMARK                         _______ _______ _______ _____ _____    ______ ____
ROOT
ATOM      1  N   UNL     1       3.213   4.287  17.168  0.00  0.00    +0.000 NA
ATOM      2  H   UNL     1       3.223   5.009  16.442  0.00  0.00    +0.000 HD
ENDROOT
BRANCH   1   4
ATOM      3  O   UNL     1       4.088   4.582  19.529  0.00  0.00    +0.000 OA
ATOM      4  S   UNL     1       3.066   5.084  18.642  0.00  0.00    +0.000 S 
ATOM      5  O   UNL     1       2.949   6.488  18.347  0.00  0.00    +0.000 OA
BRANCH   4   6
ATOM      6  N   UNL     1       1.561   4.537  19.170  0.00  0.00    +0.000 NA
ATOM      7  C   UNL     1       1.357   4.719  20.651  0.00  0.00    +0.000 C 
ATOM      8  C   UNL     1       2.052   3.604  21.455  0.00  0.00    +0.000 C 
ATOM      9  O   UNL     1       1.620   2.300  21.034  0.00  0.00    +0.000 OA
ATOM     10  C   UNL     1       1.864   2.099  19.634  0.00  0.00    +0.000 C 
ATOM     11  C   UNL     1       1.138   3.153  18.800  0.00  0.00    +0.000 C 
ENDBRANCH   4   6
ENDBRANCH   1   4
BRANCH   1  12
ATOM     12  C   UNL     1       4.407   3.402  17.117  0.00  0.00    +0.000 C 
BRANCH  12  13
ATOM     13  C   UNL     1       5.469   3.939  16.160  0.00  0.00    +0.000 C 
BRANCH  13  14
ATOM     14  C   UNL     1       6.309   4.976  16.862  0.00  0.00    +0.000 A 
ATOM     15  C   UNL     1       7.224   4.611  17.860  0.00  0.00    +0.000 A 
ATOM     16  C   UNL     1       7.937   5.590  18.558  0.00  0.00    +0.000 A 
ATOM     17  C   UNL     1       7.744   6.942  18.269  0.00  0.00    +0.000 A 
ATOM     18  C   UNL     1       6.833   7.316  17.283  0.00  0.00    +0.000 A 
ATOM     19  C   UNL     1       6.125   6.336  16.593  0.00  0.00    +0.000 A 
ATOM     20  F   UNL     1       5.230   6.713  15.670  0.00  0.00    +0.000 F 
ENDBRANCH  13  14
ENDBRANCH  12  13
ENDBRANCH   1  12
TORSDOF 5
ENDMDL
MODEL 5
REMARK VINA RESULT:      -6.9      4.259      8.219
REMARK  Name = 
REMARK  5 active torsions:
REMARK  status: ('A' for Active; 'I' for Inactive)
REMARK    1  A    between atoms: S_2  and  N_4
REMARK    2  A    between atoms: S_2  and  N_14
REMARK    3  A    between atoms: N_4  and  C_5
REMARK    4  A    between atoms: C_5  and  C_6
REMARK    5  A    between atoms: C_6  and  C_7
REMARK                            x       y       z     vdW  Elec       q    Type
REMARK                         _______ _______ _______ _____ _____    ______ ____
ROOT
ATOM      1  N   UNL     1       7.431   8.188  17.214  0.00  0.00    +0.000 NA
ATOM      2  H   UNL     1       6.491   8.588  17.274  0.00  0.00    +0.000 HD
ENDROOT
BRANCH   1   4
ATOM      3  O   UNL     1       7.580   5.846  16.252  0.00  0.00    +0.000 OA
ATOM      4  S   UNL     1       7.271   6.534  17.482  0.00  0.00    +0.000 S 
ATOM      5  O   UNL     1       7.972   6.241  18.705  0.00  0.00    +0.000 OA
BRANCH   4   6
ATOM      6  N   UNL     1       5.618   6.402  17.786  0.00  0.00    +0.000 NA
ATOM      7  C   UNL     1       5.307   5.523  18.969  0.00  0.00    +0.000 C 
ATOM      8  C   UNL     1       5.363   4.031  18.589  0.00  0.00    +0.000 C 
ATOM      9  O   UNL     1       4.493   3.734  17.485  0.00  0.00    +0.000 OA
ATOM     10  C   UNL     1       4.820   4.529  16.336  0.00  0.00    +0.000 C 
ATOM     11  C   UNL     1       4.716   6.019  16.660  0.00  0.00    +0.000 C 
ENDBRANCH   4   6
ENDBRANCH   1   4
BRANCH   1  12
ATOM     12  C   UNL     1       8.391   8.825  18.154  0.00  0.00    +0.000 C 
BRANCH  12  13
ATOM     13  C   UNL     1       8.231  10.344  18.182  0.00  0.00    +0.000 C 
BRANCH  13  14
ATOM     14  C   UNL     1       9.517  10.981  18.646  0.00  0.00    +0.000 A 
ATOM     15  C   UNL     1      10.547  11.274  17.741  0.00  0.00    +0.000 A 
ATOM     16  C   UNL     1      11.764  11.791  18.198  0.00  0.00    +0.000 A 
ATOM     17  C   UNL     1      11.965  12.019  19.560  0.00  0.00    +0.000 A 
ATOM     18  C   UNL     1      10.950  11.726  20.468  0.00  0.00    +0.000 A 
ATOM     19  C   UNL     1       9.741  11.211  20.008  0.00  0.00    +0.000 A 
ATOM     20  F   UNL     1       8.787  10.905  20.897  0.00  0.00    +0.000 F 
ENDBRANCH  13  14
ENDBRANCH  12  13
ENDBRANCH   1  12
TORSDOF 5
ENDMDL
MODEL 6
REMARK VINA RESULT:      -6.9      3.499      5.843
REMARK  Name = 
REMARK  5 active torsions:
REMARK  status: ('A' for Active; 'I' for Inactive)
REMARK    1  A    between atoms: S_2  and  N_4
REMARK    2  A    between atoms: S_2  and  N_14
REMARK    3  A    between atoms: N_4  and  C_5
REMARK    4  A    between atoms: C_5  and  C_6
REMARK    5  A    between atoms: C_6  and  C_7
REMARK                            x       y       z     vdW  Elec       q    Type
REMARK                         _______ _______ _______ _____ _____    ______ ____
ROOT
ATOM      1  N   UNL     1       3.307   3.008  17.452  0.00  0.00    +0.000 NA
ATOM      2  H   UNL     1       3.183   2.199  16.837  0.00  0.00    +0.000 HD
ENDROOT
BRANCH   1   4
ATOM      3  O   UNL     1       1.064   4.183  17.314  0.00  0.00    +0.000 OA
ATOM      4  S   UNL     1       1.817   3.302  18.175  0.00  0.00    +0.000 S 
ATOM      5  O   UNL     1       1.296   2.025  18.587  0.00  0.00    +0.000 OA
BRANCH   4   6
ATOM      6  N   UNL     1       2.278   4.147  19.559  0.00  0.00    +0.000 NA
ATOM      7  C   UNL     1       3.660   3.785  20.036  0.00  0.00    +0.000 C 
ATOM      8  C   UNL     1       3.651   2.469  20.835  0.00  0.00    +0.000 C 
ATOM      9  O   UNL     1       2.727   2.523  21.934  0.00  0.00    +0.000 OA
ATOM     10  C   UNL     1       1.397   2.812  21.481  0.00  0.00    +0.000 C 
ATOM     11  C   UNL     1       1.355   4.144  20.734  0.00  0.00    +0.000 C 
ENDBRANCH   4   6
ENDBRANCH   1   4
BRANCH   1  12
ATOM     12  C   UNL     1       3.836   4.200  16.736  0.00  0.00    +0.000 C 
BRANCH  12  13
ATOM     13  C   UNL     1       5.273   3.986  16.267  0.00  0.00    +0.000 C 
BRANCH  13  14
ATOM     14  C   UNL     1       6.181   4.986  16.939  0.00  0.00    +0.000 A 
ATOM     15  C   UNL     1       7.046   4.598  17.972  0.00  0.00    +0.000 A 
ATOM     16  C   UNL     1       7.822   5.550  18.640  0.00  0.00    +0.000 A 
ATOM     17  C   UNL     1       7.743   6.898  18.284  0.00  0.00    +0.000 A 
ATOM     18  C   UNL     1       6.882   7.295  17.263  0.00  0.00    +0.000 A 
ATOM     19  C   UNL     1       6.111   6.342  16.603  0.00  0.00    +0.000 A 
ATOM     20  F   UNL     1       5.265   6.744  15.645  0.00  0.00    +0.000 F 
ENDBRANCH  13  14
ENDBRANCH  12  13
ENDBRANCH   1  12
TORSDOF 5
ENDMDL
MODEL 7
REMARK VINA RESULT:      -6.8      2.134      2.724
REMARK  Name = 
REMARK  5 active torsions:
REMARK  status: ('A' for Active; 'I' for Inactive)
REMARK    1  A    between atoms: S_2  and  N_4
REMARK    2  A    between atoms: S_2  and  N_14
REMARK    3  A    between atoms: N_4  and  C_5
REMARK    4  A    between atoms: C_5  and  C_6
REMARK    5  A    between atoms: C_6  and  C_7
REMARK                            x       y       z     vdW  Elec       q    Type
REMARK                         _______ _______ _______ _____ _____    ______ ____
ROOT
ATOM      1  N   UNL     1       5.029   3.756  18.103  0.00  0.00    +0.000 NA
ATOM      2  H   UNL     1       5.192   3.368  19.036  0.00  0.00    +0.000 HD
ENDROOT
BRANCH   1   4
ATOM      3  O   UNL     1       3.357   5.536  17.422  0.00  0.00    +0.000 OA
ATOM      4  S   UNL     1       4.464   5.325  18.323  0.00  0.00    +0.000 S 
ATOM      5  O   UNL     1       4.328   5.524  19.742  0.00  0.00    +0.000 OA
BRANCH   4   6
ATOM      6  N   UNL     1       5.783   6.233  17.794  0.00  0.00    +0.000 NA
ATOM      7  C   UNL     1       5.789   6.447  16.303  0.00  0.00    +0.000 C 
ATOM      8  C   UNL     1       6.333   5.213  15.561  0.00  0.00    +0.000 C 
ATOM      9  O   UNL     1       7.640   4.845  16.031  0.00  0.00    +0.000 OA
ATOM     10  C   UNL     1       7.630   4.585  17.443  0.00  0.00    +0.000 C 
ATOM     11  C   UNL     1       7.152   5.811  18.218  0.00  0.00    +0.000 C 
ENDBRANCH   4   6
ENDBRANCH   1   4
BRANCH   1  12
ATOM     12  C   UNL     1       4.101   2.928  17.288  0.00  0.00    +0.000 C 
BRANCH  12  13
ATOM     13  C   UNL     1       3.572   1.730  18.075  0.00  0.00    +0.000 C 
BRANCH  13  14
ATOM     14  C   UNL     1       2.731   2.213  19.230  0.00  0.00    +0.000 A 
ATOM     15  C   UNL     1       1.418   2.662  19.032  0.00  0.00    +0.000 A 
ATOM     16  C   UNL     1       0.679   3.181  20.100  0.00  0.00    +0.000 A 
ATOM     17  C   UNL     1       1.243   3.260  21.374  0.00  0.00    +0.000 A 
ATOM     18  C   UNL     1       2.550   2.823  21.581  0.00  0.00    +0.000 A 
ATOM     19  C   UNL     1       3.280   2.308  20.513  0.00  0.00    +0.000 A 
ATOM     20  F   UNL     1       4.546   1.921  20.722  0.00  0.00    +0.000 F 
ENDBRANCH  13  14
ENDBRANCH  12  13
ENDBRANCH   1  12
TORSDOF 5
ENDMDL
MODEL 8
REMARK VINA RESULT:      -6.8      1.323      1.685
REMARK  Name = 
REMARK  5 active torsions:
REMARK  status: ('A' for Active; 'I' for Inactive)
REMARK    1  A    between atoms: S_2  and  N_4
REMARK    2  A    between atoms: S_2  and  N_14
REMARK    3  A    between atoms: N_4  and  C_5
REMARK    4  A    between atoms: C_5  and  C_6
REMARK    5  A    between atoms: C_6  and  C_7
REMARK                            x       y       z     vdW  Elec       q    Type
REMARK                         _______ _______ _______ _____ _____    ______ ____
ROOT
ATOM      1  N   UNL     1       5.433   3.539  16.290  0.00  0.00    +0.000 NA
ATOM      2  H   UNL     1       5.907   2.643  16.149  0.00  0.00    +0.000 HD
ENDROOT
BRANCH   1   4
ATOM      3  O   UNL     1       7.876   4.102  16.671  0.00  0.00    +0.000 OA
ATOM      4  S   UNL     1       6.628   4.724  16.300  0.00  0.00    +0.000 S 
ATOM      5  O   UNL     1       6.490   5.464  15.074  0.00  0.00    +0.000 OA
BRANCH   4   6
ATOM      6  N   UNL     1       6.109   5.711  17.565  0.00  0.00    +0.000 NA
ATOM      7  C   UNL     1       6.230   7.179  17.251  0.00  0.00    +0.000 C 
ATOM      8  C   UNL     1       7.674   7.678  17.445  0.00  0.00    +0.000 C 
ATOM      9  O   UNL     1       8.159   7.395  18.768  0.00  0.00    +0.000 OA
ATOM     10  C   UNL     1       8.099   5.990  19.053  0.00  0.00    +0.000 C 
ATOM     11  C   UNL     1       6.668   5.471  18.929  0.00  0.00    +0.000 C 
ENDBRANCH   4   6
ENDBRANCH   1   4
BRANCH   1  12
ATOM     12  C   UNL     1       4.600   3.563  17.522  0.00  0.00    +0.000 C 
BRANCH  12  13
ATOM     13  C   UNL     1       3.152   3.940  17.218  0.00  0.00    +0.000 C 
BRANCH  13  14
ATOM     14  C   UNL     1       2.557   4.668  18.398  0.00  0.00    +0.000 A 
ATOM     15  C   UNL     1       2.724   6.051  18.554  0.00  0.00    +0.000 A 
ATOM     16  C   UNL     1       2.237   6.698  19.693  0.00  0.00    +0.000 A 
ATOM     17  C   UNL     1       1.580   5.972  20.688  0.00  0.00    +0.000 A 
ATOM     18  C   UNL     1       1.414   4.596  20.546  0.00  0.00    +0.000 A 
ATOM     19  C   UNL     1       1.903   3.957  19.410  0.00  0.00    +0.000 A 
ATOM     20  F   UNL     1       1.763   2.629  19.303  0.00  0.00    +0.000 F 
ENDBRANCH  13  14
ENDBRANCH  12  13
ENDBRANCH   1  12
TORSDOF 5
ENDMDL
MODEL 9
REMARK VINA RESULT:      -6.7      3.742      6.335
REMARK  Name = 
REMARK  5 active torsions:
REMARK  status: ('A' for Active; 'I' for Inactive)
REMARK    1  A    between atoms: S_2  and  N_4
REMARK    2  A    between atoms: S_2  and  N_14
REMARK    3  A    between atoms: N_4  and  C_5
REMARK    4  A    between atoms: C_5  and  C_6
REMARK    5  A    between atoms: C_6  and  C_7
REMARK                            x       y       z     vdW  Elec       q    Type
REMARK                         _______ _______ _______ _____ _____    ______ ____
ROOT
ATOM      1  N   UNL     1       5.599   3.613  19.364  0.00  0.00    +0.000 NA
ATOM      2  H   UNL     1       5.936   3.331  18.440  0.00  0.00    +0.000 HD
ENDROOT
BRANCH   1   4
ATOM      3  O   UNL     1       3.885   1.970  18.476  0.00  0.00    +0.000 OA
ATOM      4  S   UNL     1       4.204   2.723  19.665  0.00  0.00    +0.000 S 
ATOM      5  O   UNL     1       4.387   2.078  20.938  0.00  0.00    +0.000 OA
BRANCH   4   6
ATOM      6  N   UNL     1       3.062   3.948  19.863  0.00  0.00    +0.000 NA
ATOM      7  C   UNL     1       2.369   3.895  21.199  0.00  0.00    +0.000 C 
ATOM      8  C   UNL     1       1.249   2.839  21.209  0.00  0.00    +0.000 C 
ATOM      9  O   UNL     1       0.303   3.061  20.150  0.00  0.00    +0.000 OA
ATOM     10  C   UNL     1       0.948   3.056  18.868  0.00  0.00    +0.000 C 
ATOM     11  C   UNL     1       2.029   4.135  18.801  0.00  0.00    +0.000 C 
ENDBRANCH   4   6
ENDBRANCH   1   4
BRANCH   1  12
ATOM     12  C   UNL     1       5.372   5.079  19.473  0.00  0.00    +0.000 C 
BRANCH  12  13
ATOM     13  C   UNL     1       6.456   5.874  18.748  0.00  0.00    +0.000 C 
BRANCH  13  14
ATOM     14  C   UNL     1       6.350   5.638  17.261  0.00  0.00    +0.000 A 
ATOM     15  C   UNL     1       5.347   6.254  16.500  0.00  0.00    +0.000 A 
ATOM     16  C   UNL     1       5.213   5.963  15.139  0.00  0.00    +0.000 A 
ATOM     17  C   UNL     1       6.077   5.055  14.525  0.00  0.00    +0.000 A 
ATOM     18  C   UNL     1       7.074   4.433  15.273  0.00  0.00    +0.000 A 
ATOM     19  C   UNL     1       7.201   4.726  16.629  0.00  0.00    +0.000 A 
ATOM     20  F   UNL     1       8.145   4.096  17.341  0.00  0.00    +0.000 F 
ENDBRANCH  13  14
ENDBRANCH  12  13
ENDBRANCH   1  12
TORSDOF 5
ENDMDL
