MODEL 1
REMARK VINA RESULT:      -9.0      0.000      0.000
REMARK  Name = 
REMARK  5 active torsions:
REMARK  status: ('A' for Active; 'I' for Inactive)
REMARK    1  A    between atoms: C_1  and  C_2
REMARK    2  A    between atoms: C_7  and  C_8
REMARK    3  A    between atoms: C_13  and  C_14
REMARK    4  A    between atoms: C_21  and  C_22
REMARK    5  A    between atoms: C_26  and  O_27
REMARK                            x       y       z     vdW  Elec       q    Type
REMARK                         _______ _______ _______ _____ _____    ______ ____
ROOT
ATOM      1  C   UNL     1       4.719   1.510  19.486  0.00  0.00    +0.000 C 
ATOM      2  C   UNL     1       4.063   2.838  19.567  0.00  0.00    +0.000 A 
ATOM      3  N   UNL     1       3.090   3.028  20.535  0.00  0.00    +0.000 NA
ATOM      4  C   UNL     1       2.707   4.265  20.376  0.00  0.00    +0.000 A 
ATOM      5  C   UNL     1       1.716   4.987  21.127  0.00  0.00    +0.000 A 
ATOM      6  N   UNL     1       1.413   6.226  20.861  0.00  0.00    +0.000 NA
ATOM      7  C   UNL     1       2.065   6.841  19.798  0.00  0.00    +0.000 A 
ATOM      8  C   UNL     1       3.001   6.206  19.056  0.00  0.00    +0.000 A 
ATOM      9  N   UNL     1       3.357   4.903  19.357  0.00  0.00    +0.000 N 
ATOM     10  C   UNL     1       4.282   4.007  18.826  0.00  0.00    +0.000 A 
ENDROOT
BRANCH  10  11
ATOM     11  C   UNL     1       5.217   4.303  17.719  0.00  0.00    +0.000 A 
ATOM     12  C   UNL     1       6.493   4.848  17.942  0.00  0.00    +0.000 A 
ATOM     13  F   UNL     1       6.947   5.038  19.190  0.00  0.00    +0.000 F 
ATOM     14  C   UNL     1       7.349   5.212  16.899  0.00  0.00    +0.000 A 
ATOM     15  C   UNL     1       6.965   4.960  15.593  0.00  0.00    +0.000 A 
ATOM     16  C   UNL     1       5.742   4.365  15.328  0.00  0.00    +0.000 A 
ATOM     17  C   UNL     1       4.877   4.064  16.380  0.00  0.00    +0.000 A 
ATOM     18  F   UNL     1       3.680   3.558  16.055  0.00  0.00    +0.000 F 
BRANCH  15  19
ATOM     19  O   UNL     1       7.762   5.281  14.537  0.00  0.00    +0.000 OA
ATOM     20  H   UNL     1       7.305   5.069  13.706  0.00  0.00    +0.000 HD
ENDBRANCH  15  19
ENDBRANCH  10  11
BRANCH   7  21
ATOM     21  C   UNL     1       1.730   8.256  19.494  0.00  0.00    +0.000 A 
ATOM     22  C   UNL     1       2.095   8.820  18.263  0.00  0.00    +0.000 A 
ATOM     23  C   UNL     1       1.794  10.155  17.969  0.00  0.00    +0.000 A 
ATOM     24  C   UNL     1       1.135  10.942  18.908  0.00  0.00    +0.000 A 
ATOM     25  F   UNL     1       0.870  12.218  18.599  0.00  0.00    +0.000 F 
ATOM     26  C   UNL     1       0.767  10.424  20.143  0.00  0.00    +0.000 A 
ATOM     27  C   UNL     1       1.067   9.078  20.424  0.00  0.00    +0.000 A 
BRANCH  26  28
ATOM     28  C   UNL     1       0.076  11.260  21.178  0.00  0.00    +0.000 C 
ATOM     29  F   UNL     1      -0.059  10.683  22.400  0.00  0.00    +0.000 F 
ATOM     30  F   UNL     1       0.723  12.442  21.392  0.00  0.00    +0.000 F 
ATOM     31  F   UNL     1      -1.185  11.605  20.791  0.00  0.00    +0.000 F 
ENDBRANCH  26  28
ENDBRANCH   7  21
TORSDOF 4
ENDMDL
MODEL 2
REMARK VINA RESULT:      -8.8      0.134      1.662
REMARK  Name = 
REMARK  5 active torsions:
REMARK  status: ('A' for Active; 'I' for Inactive)
REMARK    1  A    between atoms: C_1  and  C_2
REMARK    2  A    between atoms: C_7  and  C_8
REMARK    3  A    between atoms: C_13  and  C_14
REMARK    4  A    between atoms: C_21  and  C_22
REMARK    5  A    between atoms: C_26  and  O_27
REMARK                            x       y       z     vdW  Elec       q    Type
REMARK                         _______ _______ _______ _____ _____    ______ ____
ROOT
ATOM      1  C   UNL     1       4.737   1.583  19.426  0.00  0.00    +0.000 C 
ATOM      2  C   UNL     1       4.063   2.900  19.531  0.00  0.00    +0.000 A 
ATOM      3  N   UNL     1       3.092   3.060  20.506  0.00  0.00    +0.000 NA
ATOM      4  C   UNL     1       2.690   4.294  20.368  0.00  0.00    +0.000 A 
ATOM      5  C   UNL     1       1.693   4.990  21.134  0.00  0.00    +0.000 A 
ATOM      6  N   UNL     1       1.371   6.228  20.889  0.00  0.00    +0.000 NA
ATOM      7  C   UNL     1       2.009   6.869  19.832  0.00  0.00    +0.000 A 
ATOM      8  C   UNL     1       2.950   6.260  19.076  0.00  0.00    +0.000 A 
ATOM      9  N   UNL     1       3.326   4.957  19.356  0.00  0.00    +0.000 N 
ATOM     10  C   UNL     1       4.261   4.083  18.807  0.00  0.00    +0.000 A 
ENDROOT
BRANCH  10  11
ATOM     11  C   UNL     1       5.186   4.409  17.700  0.00  0.00    +0.000 A 
ATOM     12  C   UNL     1       4.863   4.157  16.355  0.00  0.00    +0.000 A 
ATOM     13  F   UNL     1       3.652   3.688  16.018  0.00  0.00    +0.000 F 
ATOM     14  C   UNL     1       5.763   4.381  15.310  0.00  0.00    +0.000 A 
ATOM     15  C   UNL     1       6.998   4.943  15.592  0.00  0.00    +0.000 A 
ATOM     16  C   UNL     1       7.334   5.267  16.896  0.00  0.00    +0.000 A 
ATOM     17  C   UNL     1       6.445   4.980  17.932  0.00  0.00    +0.000 A 
ATOM     18  F   UNL     1       6.858   5.250  19.178  0.00  0.00    +0.000 F 
BRANCH  15  19
ATOM     19  O   UNL     1       7.910   5.194  14.614  0.00  0.00    +0.000 OA
ATOM     20  H   UNL     1       8.696   5.617  15.001  0.00  0.00    +0.000 HD
ENDBRANCH  15  19
ENDBRANCH  10  11
BRANCH   7  21
ATOM     21  C   UNL     1       1.651   8.283  19.552  0.00  0.00    +0.000 A 
ATOM     22  C   UNL     1       2.012   8.876  18.333  0.00  0.00    +0.000 A 
ATOM     23  C   UNL     1       1.692  10.210  18.062  0.00  0.00    +0.000 A 
ATOM     24  C   UNL     1       1.015  10.970  19.012  0.00  0.00    +0.000 A 
ATOM     25  F   UNL     1       0.730  12.246  18.724  0.00  0.00    +0.000 F 
ATOM     26  C   UNL     1       0.650  10.424  20.235  0.00  0.00    +0.000 A 
ATOM     27  C   UNL     1       0.971   9.078  20.493  0.00  0.00    +0.000 A 
BRANCH  26  28
ATOM     28  C   UNL     1      -0.059  11.230  21.281  0.00  0.00    +0.000 C 
ATOM     29  F   UNL     1       0.521  12.416  21.598  0.00  0.00    +0.000 F 
ATOM     30  F   UNL     1      -1.339  11.527  20.914  0.00  0.00    +0.000 F 
ATOM     31  F   UNL     1      -0.172  10.547  22.456  0.00  0.00    +0.000 F 
ENDBRANCH  26  28
ENDBRANCH   7  21
TORSDOF 4
ENDMDL
MODEL 3
REMARK VINA RESULT:      -7.9      3.617      8.415
REMARK  Name = 
REMARK  5 active torsions:
REMARK  status: ('A' for Active; 'I' for Inactive)
REMARK    1  A    between atoms: C_1  and  C_2
REMARK    2  A    between atoms: C_7  and  C_8
REMARK    3  A    between atoms: C_13  and  C_14
REMARK    4  A    between atoms: C_21  and  C_22
REMARK    5  A    between atoms: C_26  and  O_27
REMARK                            x       y       z     vdW  Elec       q    Type
REMARK                         _______ _______ _______ _____ _____    ______ ____
ROOT
ATOM      1  C   UNL     1      -0.618  14.117  22.541  0.00  0.00    +0.000 C 
ATOM      2  C   UNL     1      -0.221  12.745  22.141  0.00  0.00    +0.000 A 
ATOM      3  N   UNL     1      -0.767  11.678  22.836  0.00  0.00    +0.000 NA
ATOM      4  C   UNL     1      -0.251  10.621  22.270  0.00  0.00    +0.000 A 
ATOM      5  C   UNL     1      -0.485   9.241  22.598  0.00  0.00    +0.000 A 
ATOM      6  N   UNL     1       0.103   8.269  21.960  0.00  0.00    +0.000 NA
ATOM      7  C   UNL     1       0.998   8.603  20.950  0.00  0.00    +0.000 A 
ATOM      8  C   UNL     1       1.259   9.884  20.605  0.00  0.00    +0.000 A 
ATOM      9  N   UNL     1       0.608  10.921  21.252  0.00  0.00    +0.000 N 
ATOM     10  C   UNL     1       0.626  12.307  21.114  0.00  0.00    +0.000 A 
ENDROOT
BRANCH  10  11
ATOM     11  C   UNL     1       1.409  13.054  20.106  0.00  0.00    +0.000 A 
ATOM     12  C   UNL     1       1.150  12.948  18.728  0.00  0.00    +0.000 A 
ATOM     13  F   UNL     1       0.111  12.225  18.280  0.00  0.00    +0.000 F 
ATOM     14  C   UNL     1       1.938  13.581  17.763  0.00  0.00    +0.000 A 
ATOM     15  C   UNL     1       2.971  14.407  18.172  0.00  0.00    +0.000 A 
ATOM     16  C   UNL     1       3.223  14.592  19.522  0.00  0.00    +0.000 A 
ATOM     17  C   UNL     1       2.462  13.904  20.469  0.00  0.00    +0.000 A 
ATOM     18  F   UNL     1       2.802  14.067  21.754  0.00  0.00    +0.000 F 
BRANCH  15  19
ATOM     19  O   UNL     1       3.764  15.058  17.279  0.00  0.00    +0.000 OA
ATOM     20  H   UNL     1       3.246  15.292  16.490  0.00  0.00    +0.000 HD
ENDBRANCH  15  19
ENDBRANCH  10  11
BRANCH   7  21
ATOM     21  C   UNL     1       1.667   7.499  20.213  0.00  0.00    +0.000 A 
ATOM     22  C   UNL     1       2.312   7.752  18.993  0.00  0.00    +0.000 A 
ATOM     23  C   UNL     1       2.935   6.719  18.285  0.00  0.00    +0.000 A 
ATOM     24  C   UNL     1       2.911   5.419  18.784  0.00  0.00    +0.000 A 
ATOM     25  F   UNL     1       3.509   4.453  18.077  0.00  0.00    +0.000 F 
ATOM     26  C   UNL     1       2.273   5.126  19.982  0.00  0.00    +0.000 A 
ATOM     27  C   UNL     1       1.657   6.175  20.690  0.00  0.00    +0.000 A 
BRANCH  26  28
ATOM     28  C   UNL     1       2.216   3.731  20.527  0.00  0.00    +0.000 C 
ATOM     29  F   UNL     1       3.406   3.082  20.598  0.00  0.00    +0.000 F 
ATOM     30  F   UNL     1       1.696   3.699  21.788  0.00  0.00    +0.000 F 
ATOM     31  F   UNL     1       1.402   2.930  19.782  0.00  0.00    +0.000 F 
ENDBRANCH  26  28
ENDBRANCH   7  21
TORSDOF 4
ENDMDL
MODEL 4
REMARK VINA RESULT:      -7.8      0.995      2.541
REMARK  Name = 
REMARK  5 active torsions:
REMARK  status: ('A' for Active; 'I' for Inactive)
REMARK    1  A    between atoms: C_1  and  C_2
REMARK    2  A    between atoms: C_7  and  C_8
REMARK    3  A    between atoms: C_13  and  C_14
REMARK    4  A    between atoms: C_21  and  C_22
REMARK    5  A    between atoms: C_26  and  O_27
REMARK                            x       y       z     vdW  Elec       q    Type
REMARK                         _______ _______ _______ _____ _____    ______ ____
ROOT
ATOM      1  C   UNL     1       4.427   1.055  18.531  0.00  0.00    +0.000 C 
ATOM      2  C   UNL     1       3.803   2.319  18.993  0.00  0.00    +0.000 A 
ATOM      3  N   UNL     1       2.830   2.247  19.975  0.00  0.00    +0.000 NA
ATOM      4  C   UNL     1       2.478   3.487  20.180  0.00  0.00    +0.000 A 
ATOM      5  C   UNL     1       1.500   3.987  21.108  0.00  0.00    +0.000 A 
ATOM      6  N   UNL     1       1.230   5.257  21.210  0.00  0.00    +0.000 NA
ATOM      7  C   UNL     1       1.904   6.135  20.369  0.00  0.00    +0.000 A 
ATOM      8  C   UNL     1       2.829   5.718  19.475  0.00  0.00    +0.000 A 
ATOM      9  N   UNL     1       3.150   4.374  19.388  0.00  0.00    +0.000 N 
ATOM     10  C   UNL     1       4.056   3.647  18.620  0.00  0.00    +0.000 A 
ENDROOT
BRANCH  10  11
ATOM     11  C   UNL     1       5.005   4.225  17.644  0.00  0.00    +0.000 A 
ATOM     12  C   UNL     1       4.789   4.155  16.257  0.00  0.00    +0.000 A 
ATOM     13  F   UNL     1       3.653   3.633  15.767  0.00  0.00    +0.000 F 
ATOM     14  C   UNL     1       5.720   4.621  15.326  0.00  0.00    +0.000 A 
ATOM     15  C   UNL     1       6.871   5.244  15.776  0.00  0.00    +0.000 A 
ATOM     16  C   UNL     1       7.097   5.393  17.135  0.00  0.00    +0.000 A 
ATOM     17  C   UNL     1       6.182   4.868  18.050  0.00  0.00    +0.000 A 
ATOM     18  F   UNL     1       6.493   4.979  19.349  0.00  0.00    +0.000 F 
BRANCH  15  19
ATOM     19  O   UNL     1       7.808   5.728  14.916  0.00  0.00    +0.000 OA
ATOM     20  H   UNL     1       7.371   6.104  14.133  0.00  0.00    +0.000 HD
ENDBRANCH  15  19
ENDBRANCH  10  11
BRANCH   7  21
ATOM     21  C   UNL     1       1.606   7.586  20.487  0.00  0.00    +0.000 A 
ATOM     22  C   UNL     1       1.171   8.122  21.708  0.00  0.00    +0.000 A 
ATOM     23  C   UNL     1       0.876   9.484  21.829  0.00  0.00    +0.000 A 
ATOM     24  C   UNL     1       1.002  10.324  20.727  0.00  0.00    +0.000 A 
ATOM     25  F   UNL     1       0.704  11.620  20.873  0.00  0.00    +0.000 F 
ATOM     26  C   UNL     1       1.419   9.830  19.497  0.00  0.00    +0.000 A 
ATOM     27  C   UNL     1       1.721   8.460  19.390  0.00  0.00    +0.000 A 
BRANCH  26  28
ATOM     28  C   UNL     1       1.541  10.712  18.291  0.00  0.00    +0.000 C 
ATOM     29  F   UNL     1       2.013  10.106  17.170  0.00  0.00    +0.000 F 
ATOM     30  F   UNL     1       0.344  11.265  17.942  0.00  0.00    +0.000 F 
ATOM     31  F   UNL     1       2.373  11.768  18.518  0.00  0.00    +0.000 F 
ENDBRANCH  26  28
ENDBRANCH   7  21
TORSDOF 4
ENDMDL
MODEL 5
REMARK VINA RESULT:      -7.7      3.755      8.907
REMARK  Name = 
REMARK  5 active torsions:
REMARK  status: ('A' for Active; 'I' for Inactive)
REMARK    1  A    between atoms: C_1  and  C_2
REMARK    2  A    between atoms: C_7  and  C_8
REMARK    3  A    between atoms: C_13  and  C_14
REMARK    4  A    between atoms: C_21  and  C_22
REMARK    5  A    between atoms: C_26  and  O_27
REMARK                            x       y       z     vdW  Elec       q    Type
REMARK                         _______ _______ _______ _____ _____    ______ ____
ROOT
ATOM      1  C   UNL     1      -1.608  13.748  23.428  0.00  0.00    +0.000 C 
ATOM      2  C   UNL     1      -0.984  12.586  22.748  0.00  0.00    +0.000 A 
ATOM      3  N   UNL     1      -1.240  11.321  23.250  0.00  0.00    +0.000 NA
ATOM      4  C   UNL     1      -0.579  10.516  22.462  0.00  0.00    +0.000 A 
ATOM      5  C   UNL     1      -0.503   9.082  22.526  0.00  0.00    +0.000 A 
ATOM      6  N   UNL     1       0.205   8.389  21.681  0.00  0.00    +0.000 NA
ATOM      7  C   UNL     1       0.919   9.081  20.709  0.00  0.00    +0.000 A 
ATOM      8  C   UNL     1       0.887  10.429  20.607  0.00  0.00    +0.000 A 
ATOM      9  N   UNL     1       0.105  11.170  21.477  0.00  0.00    +0.000 N 
ATOM     10  C   UNL     1      -0.166  12.530  21.611  0.00  0.00    +0.000 A 
ENDROOT
BRANCH  10  11
ATOM     11  C   UNL     1       0.356  13.595  20.728  0.00  0.00    +0.000 A 
ATOM     12  C   UNL     1      -0.484  14.360  19.901  0.00  0.00    +0.000 A 
ATOM     13  F   UNL     1      -1.817  14.210  19.952  0.00  0.00    +0.000 F 
ATOM     14  C   UNL     1       0.007  15.308  19.000  0.00  0.00    +0.000 A 
ATOM     15  C   UNL     1       1.367  15.564  18.965  0.00  0.00    +0.000 A 
ATOM     16  C   UNL     1       2.227  14.879  19.808  0.00  0.00    +0.000 A 
ATOM     17  C   UNL     1       1.723  13.894  20.658  0.00  0.00    +0.000 A 
ATOM     18  F   UNL     1       2.614  13.216  21.395  0.00  0.00    +0.000 F 
BRANCH  15  19
ATOM     19  O   UNL     1       1.902  16.484  18.117  0.00  0.00    +0.000 OA
ATOM     20  H   UNL     1       1.770  16.197  17.197  0.00  0.00    +0.000 HD
ENDBRANCH  15  19
ENDBRANCH  10  11
BRANCH   7  21
ATOM     21  C   UNL     1       1.723   8.295  19.738  0.00  0.00    +0.000 A 
ATOM     22  C   UNL     1       1.965   8.798  18.450  0.00  0.00    +0.000 A 
ATOM     23  C   UNL     1       2.710   8.063  17.523  0.00  0.00    +0.000 A 
ATOM     24  C   UNL     1       3.213   6.811  17.869  0.00  0.00    +0.000 A 
ATOM     25  F   UNL     1       3.915   6.130  16.955  0.00  0.00    +0.000 F 
ATOM     26  C   UNL     1       2.986   6.274  19.129  0.00  0.00    +0.000 A 
ATOM     27  C   UNL     1       2.241   7.026  20.056  0.00  0.00    +0.000 A 
BRANCH  26  28
ATOM     28  C   UNL     1       3.498   4.920  19.516  0.00  0.00    +0.000 C 
ATOM     29  F   UNL     1       3.145   3.903  18.688  0.00  0.00    +0.000 F 
ATOM     30  F   UNL     1       4.861   4.891  19.582  0.00  0.00    +0.000 F 
ATOM     31  F   UNL     1       3.070   4.552  20.757  0.00  0.00    +0.000 F 
ENDBRANCH  26  28
ENDBRANCH   7  21
TORSDOF 4
ENDMDL
MODEL 6
REMARK VINA RESULT:      -7.7      3.600      8.247
REMARK  Name = 
REMARK  5 active torsions:
REMARK  status: ('A' for Active; 'I' for Inactive)
REMARK    1  A    between atoms: C_1  and  C_2
REMARK    2  A    between atoms: C_7  and  C_8
REMARK    3  A    between atoms: C_13  and  C_14
REMARK    4  A    between atoms: C_21  and  C_22
REMARK    5  A    between atoms: C_26  and  O_27
REMARK                            x       y       z     vdW  Elec       q    Type
REMARK                         _______ _______ _______ _____ _____    ______ ____
ROOT
ATOM      1  C   UNL     1      -0.661  14.025  22.398  0.00  0.00    +0.000 C 
ATOM      2  C   UNL     1      -0.260  12.647  22.024  0.00  0.00    +0.000 A 
ATOM      3  N   UNL     1      -0.859  11.589  22.688  0.00  0.00    +0.000 NA
ATOM      4  C   UNL     1      -0.326  10.524  22.154  0.00  0.00    +0.000 A 
ATOM      5  C   UNL     1      -0.597   9.148  22.470  0.00  0.00    +0.000 A 
ATOM      6  N   UNL     1       0.014   8.167  21.868  0.00  0.00    +0.000 NA
ATOM      7  C   UNL     1       0.970   8.487  20.910  0.00  0.00    +0.000 A 
ATOM      8  C   UNL     1       1.267   9.764  20.579  0.00  0.00    +0.000 A 
ATOM      9  N   UNL     1       0.594  10.811  21.186  0.00  0.00    +0.000 N 
ATOM     10  C   UNL     1       0.638  12.196  21.047  0.00  0.00    +0.000 A 
ENDROOT
BRANCH  10  11
ATOM     11  C   UNL     1       1.487  12.930  20.084  0.00  0.00    +0.000 A 
ATOM     12  C   UNL     1       2.500  13.812  20.500  0.00  0.00    +0.000 A 
ATOM     13  F   UNL     1       2.795  13.951  21.801  0.00  0.00    +0.000 F 
ATOM     14  C   UNL     1       3.248  14.575  19.600  0.00  0.00    +0.000 A 
ATOM     15  C   UNL     1       3.043  14.410  18.241  0.00  0.00    +0.000 A 
ATOM     16  C   UNL     1       2.098  13.505  17.784  0.00  0.00    +0.000 A 
ATOM     17  C   UNL     1       1.320  12.795  18.699  0.00  0.00    +0.000 A 
ATOM     18  F   UNL     1       0.374  11.991  18.196  0.00  0.00    +0.000 F 
BRANCH  15  19
ATOM     19  O   UNL     1       3.750  15.117  17.318  0.00  0.00    +0.000 OA
ATOM     20  H   UNL     1       3.608  16.069  17.456  0.00  0.00    +0.000 HD
ENDBRANCH  15  19
ENDBRANCH  10  11
BRANCH   7  21
ATOM     21  C   UNL     1       1.665   7.373  20.214  0.00  0.00    +0.000 A 
ATOM     22  C   UNL     1       2.265   7.584  18.964  0.00  0.00    +0.000 A 
ATOM     23  C   UNL     1       2.912   6.541  18.294  0.00  0.00    +0.000 A 
ATOM     24  C   UNL     1       2.957   5.271  18.862  0.00  0.00    +0.000 A 
ATOM     25  F   UNL     1       3.577   4.292  18.191  0.00  0.00    +0.000 F 
ATOM     26  C   UNL     1       2.365   5.018  20.093  0.00  0.00    +0.000 A 
ATOM     27  C   UNL     1       1.724   6.077  20.761  0.00  0.00    +0.000 A 
BRANCH  26  28
ATOM     28  C   UNL     1       2.382   3.653  20.713  0.00  0.00    +0.000 C 
ATOM     29  F   UNL     1       3.553   2.974  20.601  0.00  0.00    +0.000 F 
ATOM     30  F   UNL     1       2.102   3.698  22.047  0.00  0.00    +0.000 F 
ATOM     31  F   UNL     1       1.430   2.840  20.173  0.00  0.00    +0.000 F 
ENDBRANCH  26  28
ENDBRANCH   7  21
TORSDOF 4
ENDMDL
MODEL 7
REMARK VINA RESULT:      -7.7      1.051      2.066
REMARK  Name = 
REMARK  5 active torsions:
REMARK  status: ('A' for Active; 'I' for Inactive)
REMARK    1  A    between atoms: C_1  and  C_2
REMARK    2  A    between atoms: C_7  and  C_8
REMARK    3  A    between atoms: C_13  and  C_14
REMARK    4  A    between atoms: C_21  and  C_22
REMARK    5  A    between atoms: C_26  and  O_27
REMARK                            x       y       z     vdW  Elec       q    Type
REMARK                         _______ _______ _______ _____ _____    ______ ____
ROOT
ATOM      1  C   UNL     1       4.093   1.018  18.298  0.00  0.00    +0.000 C 
ATOM      2  C   UNL     1       3.519   2.292  18.796  0.00  0.00    +0.000 A 
ATOM      3  N   UNL     1       2.477   2.227  19.706  0.00  0.00    +0.000 NA
ATOM      4  C   UNL     1       2.190   3.474  19.965  0.00  0.00    +0.000 A 
ATOM      5  C   UNL     1       1.183   3.982  20.857  0.00  0.00    +0.000 A 
ATOM      6  N   UNL     1       0.987   5.259  21.021  0.00  0.00    +0.000 NA
ATOM      7  C   UNL     1       1.771   6.138  20.282  0.00  0.00    +0.000 A 
ATOM      8  C   UNL     1       2.727   5.714  19.426  0.00  0.00    +0.000 A 
ATOM      9  N   UNL     1       2.970   4.359  19.276  0.00  0.00    +0.000 N 
ATOM     10  C   UNL     1       3.879   3.619  18.524  0.00  0.00    +0.000 A 
ENDROOT
BRANCH  10  11
ATOM     11  C   UNL     1       4.928   4.189  17.651  0.00  0.00    +0.000 A 
ATOM     12  C   UNL     1       6.070   4.822  18.169  0.00  0.00    +0.000 A 
ATOM     13  F   UNL     1       6.297   4.852  19.492  0.00  0.00    +0.000 F 
ATOM     14  C   UNL     1       7.023   5.439  17.354  0.00  0.00    +0.000 A 
ATOM     15  C   UNL     1       6.884   5.366  15.978  0.00  0.00    +0.000 A 
ATOM     16  C   UNL     1       5.806   4.696  15.422  0.00  0.00    +0.000 A 
ATOM     17  C   UNL     1       4.834   4.138  16.254  0.00  0.00    +0.000 A 
ATOM     18  F   UNL     1       3.779   3.568  15.655  0.00  0.00    +0.000 F 
BRANCH  15  19
ATOM     19  O   UNL     1       7.785   5.938  15.135  0.00  0.00    +0.000 OA
ATOM     20  H   UNL     1       7.326   6.283  14.350  0.00  0.00    +0.000 HD
ENDBRANCH  15  19
ENDBRANCH  10  11
BRANCH   7  21
ATOM     21  C   UNL     1       1.556   7.596  20.471  0.00  0.00    +0.000 A 
ATOM     22  C   UNL     1       1.237   8.106  21.738  0.00  0.00    +0.000 A 
ATOM     23  C   UNL     1       1.021   9.475  21.927  0.00  0.00    +0.000 A 
ATOM     24  C   UNL     1       1.111  10.349  20.847  0.00  0.00    +0.000 A 
ATOM     25  F   UNL     1       0.891  11.652  21.059  0.00  0.00    +0.000 F 
ATOM     26  C   UNL     1       1.414   9.883  19.574  0.00  0.00    +0.000 A 
ATOM     27  C   UNL     1       1.636   8.504  19.399  0.00  0.00    +0.000 A 
BRANCH  26  28
ATOM     28  C   UNL     1       1.494  10.802  18.393  0.00  0.00    +0.000 C 
ATOM     29  F   UNL     1       1.843  10.215  17.219  0.00  0.00    +0.000 F 
ATOM     30  F   UNL     1       0.307  11.432  18.157  0.00  0.00    +0.000 F 
ATOM     31  F   UNL     1       2.399  11.802  18.590  0.00  0.00    +0.000 F 
ENDBRANCH  26  28
ENDBRANCH   7  21
TORSDOF 4
ENDMDL
MODEL 8
REMARK VINA RESULT:      -7.7      1.079      1.329
REMARK  Name = 
REMARK  5 active torsions:
REMARK  status: ('A' for Active; 'I' for Inactive)
REMARK    1  A    between atoms: C_1  and  C_2
REMARK    2  A    between atoms: C_7  and  C_8
REMARK    3  A    between atoms: C_13  and  C_14
REMARK    4  A    between atoms: C_21  and  C_22
REMARK    5  A    between atoms: C_26  and  O_27
REMARK                            x       y       z     vdW  Elec       q    Type
REMARK                         _______ _______ _______ _____ _____    ______ ____
ROOT
ATOM      1  C   UNL     1       4.206   0.901  18.240  0.00  0.00    +0.000 C 
ATOM      2  C   UNL     1       3.592   2.172  18.696  0.00  0.00    +0.000 A 
ATOM      3  N   UNL     1       2.543   2.104  19.598  0.00  0.00    +0.000 NA
ATOM      4  C   UNL     1       2.219   3.349  19.817  0.00  0.00    +0.000 A 
ATOM      5  C   UNL     1       1.190   3.855  20.684  0.00  0.00    +0.000 A 
ATOM      6  N   UNL     1       0.956   5.130  20.809  0.00  0.00    +0.000 NA
ATOM      7  C   UNL     1       1.723   6.009  20.053  0.00  0.00    +0.000 A 
ATOM      8  C   UNL     1       2.700   5.587  19.218  0.00  0.00    +0.000 A 
ATOM      9  N   UNL     1       2.981   4.235  19.110  0.00  0.00    +0.000 N 
ATOM     10  C   UNL     1       3.918   3.500  18.388  0.00  0.00    +0.000 A 
ENDROOT
BRANCH  10  11
ATOM     11  C   UNL     1       4.959   4.073  17.509  0.00  0.00    +0.000 A 
ATOM     12  C   UNL     1       6.132   4.656  18.019  0.00  0.00    +0.000 A 
ATOM     13  F   UNL     1       6.393   4.631  19.335  0.00  0.00    +0.000 F 
ATOM     14  C   UNL     1       7.080   5.278  17.202  0.00  0.00    +0.000 A 
ATOM     15  C   UNL     1       6.903   5.259  15.828  0.00  0.00    +0.000 A 
ATOM     16  C   UNL     1       5.793   4.640  15.277  0.00  0.00    +0.000 A 
ATOM     17  C   UNL     1       4.828   4.077  16.114  0.00  0.00    +0.000 A 
ATOM     18  F   UNL     1       3.743   3.558  15.523  0.00  0.00    +0.000 F 
BRANCH  15  19
ATOM     19  O   UNL     1       7.799   5.838  14.983  0.00  0.00    +0.000 OA
ATOM     20  H   UNL     1       8.682   5.460  15.132  0.00  0.00    +0.000 HD
ENDBRANCH  15  19
ENDBRANCH  10  11
BRANCH   7  21
ATOM     21  C   UNL     1       1.466   7.465  20.197  0.00  0.00    +0.000 A 
ATOM     22  C   UNL     1       1.853   8.355  19.184  0.00  0.00    +0.000 A 
ATOM     23  C   UNL     1       1.627   9.730  19.313  0.00  0.00    +0.000 A 
ATOM     24  C   UNL     1       1.020  10.231  20.461  0.00  0.00    +0.000 A 
ATOM     25  F   UNL     1       0.826  11.552  20.556  0.00  0.00    +0.000 F 
ATOM     26  C   UNL     1       0.632   9.384  21.491  0.00  0.00    +0.000 A 
ATOM     27  C   UNL     1       0.858   8.003  21.347  0.00  0.00    +0.000 A 
BRANCH  26  28
ATOM     28  C   UNL     1      -0.002   9.904  22.746  0.00  0.00    +0.000 C 
ATOM     29  F   UNL     1       0.678   9.647  23.894  0.00  0.00    +0.000 F 
ATOM     30  F   UNL     1      -0.172  11.256  22.708  0.00  0.00    +0.000 F 
ATOM     31  F   UNL     1      -1.251   9.389  22.933  0.00  0.00    +0.000 F 
ENDBRANCH  26  28
ENDBRANCH   7  21
TORSDOF 4
ENDMDL
MODEL 9
REMARK VINA RESULT:      -7.6      4.302      9.099
REMARK  Name = 
REMARK  5 active torsions:
REMARK  status: ('A' for Active; 'I' for Inactive)
REMARK    1  A    between atoms: C_1  and  C_2
REMARK    2  A    between atoms: C_7  and  C_8
REMARK    3  A    between atoms: C_13  and  C_14
REMARK    4  A    between atoms: C_21  and  C_22
REMARK    5  A    between atoms: C_26  and  O_27
REMARK                            x       y       z     vdW  Elec       q    Type
REMARK                         _______ _______ _______ _____ _____    ______ ____
ROOT
ATOM      1  C   UNL     1      -0.958  15.270  23.236  0.00  0.00    +0.000 C 
ATOM      2  C   UNL     1      -0.565  13.967  22.645  0.00  0.00    +0.000 A 
ATOM      3  N   UNL     1      -1.082  12.812  23.209  0.00  0.00    +0.000 NA
ATOM      4  C   UNL     1      -0.578  11.845  22.492  0.00  0.00    +0.000 A 
ATOM      5  C   UNL     1      -0.794  10.431  22.640  0.00  0.00    +0.000 A 
ATOM      6  N   UNL     1      -0.220   9.559  21.860  0.00  0.00    +0.000 NA
ATOM      7  C   UNL     1       0.641  10.033  20.877  0.00  0.00    +0.000 A 
ATOM      8  C   UNL     1       0.883  11.351  20.697  0.00  0.00    +0.000 A 
ATOM      9  N   UNL     1       0.246  12.286  21.496  0.00  0.00    +0.000 N 
ATOM     10  C   UNL     1       0.251  13.678  21.543  0.00  0.00    +0.000 A 
ENDROOT
BRANCH  10  11
ATOM     11  C   UNL     1       0.997  14.561  20.620  0.00  0.00    +0.000 A 
ATOM     12  C   UNL     1       2.370  14.819  20.776  0.00  0.00    +0.000 A 
ATOM     13  F   UNL     1       3.080  14.196  21.729  0.00  0.00    +0.000 F 
ATOM     14  C   UNL     1       3.063  15.718  19.962  0.00  0.00    +0.000 A 
ATOM     15  C   UNL     1       2.400  16.327  18.911  0.00  0.00    +0.000 A 
ATOM     16  C   UNL     1       1.061  16.052  18.679  0.00  0.00    +0.000 A 
ATOM     17  C   UNL     1       0.371  15.198  19.540  0.00  0.00    +0.000 A 
ATOM     18  F   UNL     1      -0.937  15.030  19.306  0.00  0.00    +0.000 F 
BRANCH  15  19
ATOM     19  O   UNL     1       3.026  17.202  18.078  0.00  0.00    +0.000 OA
ATOM     20  H   UNL     1       2.552  18.051  18.079  0.00  0.00    +0.000 HD
ENDBRANCH  15  19
ENDBRANCH  10  11
BRANCH   7  21
ATOM     21  C   UNL     1       1.292   9.043  19.980  0.00  0.00    +0.000 A 
ATOM     22  C   UNL     1       1.578   9.377  18.647  0.00  0.00    +0.000 A 
ATOM     23  C   UNL     1       2.180   8.451  17.790  0.00  0.00    +0.000 A 
ATOM     24  C   UNL     1       2.494   7.176  18.253  0.00  0.00    +0.000 A 
ATOM     25  F   UNL     1       3.063   6.311  17.404  0.00  0.00    +0.000 F 
ATOM     26  C   UNL     1       2.218   6.803  19.561  0.00  0.00    +0.000 A 
ATOM     27  C   UNL     1       1.619   7.746  20.417  0.00  0.00    +0.000 A 
BRANCH  26  28
ATOM     28  C   UNL     1       2.527   5.429  20.075  0.00  0.00    +0.000 C 
ATOM     29  F   UNL     1       1.957   4.406  19.387  0.00  0.00    +0.000 F 
ATOM     30  F   UNL     1       3.868   5.177  20.077  0.00  0.00    +0.000 F 
ATOM     31  F   UNL     1       2.129   5.271  21.369  0.00  0.00    +0.000 F 
ENDBRANCH  26  28
ENDBRANCH   7  21
TORSDOF 4
ENDMDL
