MODEL 1
REMARK VINA RESULT:      -8.4      0.000      0.000
REMARK  Name = 
REMARK  1 active torsions:
REMARK  status: ('A' for Active; 'I' for Inactive)
REMARK    1  A    between atoms: N_10  and  C_11
REMARK                            x       y       z     vdW  Elec       q    Type
REMARK                         _______ _______ _______ _____ _____    ______ ____
ROOT
ATOM      1  F   UNL     1       5.639   2.648  11.709  0.00  0.00    +0.000 F 
ATOM      2  C   UNL     1       6.114   3.431  12.684  0.00  0.00    +0.000 A 
ATOM      3  C   UNL     1       7.130   4.331  12.408  0.00  0.00    +0.000 A 
ATOM      4  C   UNL     1       7.609   5.153  13.431  0.00  0.00    +0.000 A 
ATOM      5  C   UNL     1       7.092   5.094  14.720  0.00  0.00    +0.000 A 
ATOM      6  N   UNL     1       7.587   5.924  15.641  0.00  0.00    +0.000 NA
ATOM      7  C   UNL     1       7.045   5.860  16.860  0.00  0.00    +0.000 A 
ATOM      8  N   UNL     1       6.060   5.044  17.242  0.00  0.00    +0.000 NA
ATOM      9  C   UNL     1       5.572   4.202  16.310  0.00  0.00    +0.000 A 
ATOM     10  N   UNL     1       4.545   3.303  16.693  0.00  0.00    +0.000 N 
ATOM     11  C   UNL     1       6.066   4.176  14.995  0.00  0.00    +0.000 A 
ATOM     12  C   UNL     1       5.576   3.343  13.960  0.00  0.00    +0.000 A 
ATOM     13  H   UNL     1       4.914   2.355  16.692  0.00  0.00    +0.000 HD
ENDROOT
BRANCH  10  14
ATOM     14  C   UNL     1       3.595   3.534  17.712  0.00  0.00    +0.000 A 
ATOM     15  C   UNL     1       2.576   4.480  17.531  0.00  0.00    +0.000 A 
ATOM     16  C   UNL     1       1.671   4.761  18.560  0.00  0.00    +0.000 A 
ATOM     17  C   UNL     1       1.795   4.116  19.786  0.00  0.00    +0.000 A 
ATOM     18  F   UNL     1       0.925   4.408  20.762  0.00  0.00    +0.000 F 
ATOM     19  C   UNL     1       2.817   3.196  19.996  0.00  0.00    +0.000 A 
ATOM     20 CL   UNL     1       3.002   2.414  21.519  0.00  0.00    +0.000 Cl
ATOM     21  C   UNL     1       3.715   2.911  18.967  0.00  0.00    +0.000 A 
ENDBRANCH  10  14
TORSDOF 1
ENDMDL
MODEL 2
REMARK VINA RESULT:      -8.0      1.190      1.379
REMARK  Name = 
REMARK  1 active torsions:
REMARK  status: ('A' for Active; 'I' for Inactive)
REMARK    1  A    between atoms: N_10  and  C_11
REMARK                            x       y       z     vdW  Elec       q    Type
REMARK                         _______ _______ _______ _____ _____    ______ ____
ROOT
ATOM      1  F   UNL     1       5.586   2.729  11.587  0.00  0.00    +0.000 F 
ATOM      2  C   UNL     1       6.072   3.464  12.593  0.00  0.00    +0.000 A 
ATOM      3  C   UNL     1       7.121   4.338  12.361  0.00  0.00    +0.000 A 
ATOM      4  C   UNL     1       7.611   5.110  13.417  0.00  0.00    +0.000 A 
ATOM      5  C   UNL     1       7.073   5.027  14.696  0.00  0.00    +0.000 A 
ATOM      6  N   UNL     1       7.581   5.810  15.651  0.00  0.00    +0.000 NA
ATOM      7  C   UNL     1       7.018   5.725  16.860  0.00  0.00    +0.000 A 
ATOM      8  N   UNL     1       6.001   4.930  17.200  0.00  0.00    +0.000 NA
ATOM      9  C   UNL     1       5.501   4.136  16.235  0.00  0.00    +0.000 A 
ATOM     10  N   UNL     1       4.439   3.259  16.574  0.00  0.00    +0.000 N 
ATOM     11  C   UNL     1       6.013   4.136  14.927  0.00  0.00    +0.000 A 
ATOM     12  C   UNL     1       5.512   3.353  13.859  0.00  0.00    +0.000 A 
ATOM     13  H   UNL     1       4.776   2.301  16.547  0.00  0.00    +0.000 HD
ENDROOT
BRANCH  10  14
ATOM     14  C   UNL     1       3.481   3.489  17.586  0.00  0.00    +0.000 A 
ATOM     15  C   UNL     1       2.558   2.491  17.929  0.00  0.00    +0.000 A 
ATOM     16  C   UNL     1       1.566   2.734  18.885  0.00  0.00    +0.000 A 
ATOM     17  C   UNL     1       1.475   3.987  19.485  0.00  0.00    +0.000 A 
ATOM     18  F   UNL     1       0.510   4.202  20.389  0.00  0.00    +0.000 F 
ATOM     19  C   UNL     1       2.363   4.999  19.137  0.00  0.00    +0.000 A 
ATOM     20 CL   UNL     1       2.242   6.563  19.848  0.00  0.00    +0.000 Cl
ATOM     21  C   UNL     1       3.356   4.753  18.189  0.00  0.00    +0.000 A 
ENDBRANCH  10  14
TORSDOF 1
ENDMDL
MODEL 3
REMARK VINA RESULT:      -7.5      1.496      1.899
REMARK  Name = 
REMARK  1 active torsions:
REMARK  status: ('A' for Active; 'I' for Inactive)
REMARK    1  A    between atoms: N_10  and  C_11
REMARK                            x       y       z     vdW  Elec       q    Type
REMARK                         _______ _______ _______ _____ _____    ______ ____
ROOT
ATOM      1  F   UNL     1       5.701   2.937  12.839  0.00  0.00    +0.000 F 
ATOM      2  C   UNL     1       6.167   3.763  13.782  0.00  0.00    +0.000 A 
ATOM      3  C   UNL     1       7.011   4.803  13.428  0.00  0.00    +0.000 A 
ATOM      4  C   UNL     1       7.481   5.666  14.420  0.00  0.00    +0.000 A 
ATOM      5  C   UNL     1       7.125   5.512  15.755  0.00  0.00    +0.000 A 
ATOM      6  N   UNL     1       7.600   6.387  16.644  0.00  0.00    +0.000 NA
ATOM      7  C   UNL     1       7.211   6.226  17.912  0.00  0.00    +0.000 A 
ATOM      8  N   UNL     1       6.399   5.271  18.371  0.00  0.00    +0.000 NA
ATOM      9  C   UNL     1       5.933   4.385  17.470  0.00  0.00    +0.000 A 
ATOM     10  N   UNL     1       5.090   3.342  17.932  0.00  0.00    +0.000 N 
ATOM     11  C   UNL     1       6.275   4.453  16.109  0.00  0.00    +0.000 A 
ATOM     12  C   UNL     1       5.793   3.576  15.106  0.00  0.00    +0.000 A 
ATOM     13  H   UNL     1       5.585   2.457  17.859  0.00  0.00    +0.000 HD
ENDROOT
BRANCH  10  14
ATOM     14  C   UNL     1       4.237   3.417  19.055  0.00  0.00    +0.000 A 
ATOM     15  C   UNL     1       4.069   2.306  19.894  0.00  0.00    +0.000 A 
ATOM     16  C   UNL     1       3.176   2.354  20.970  0.00  0.00    +0.000 A 
ATOM     17  C   UNL     1       2.427   3.503  21.197  0.00  0.00    +0.000 A 
ATOM     18  F   UNL     1       1.569   3.523  22.227  0.00  0.00    +0.000 F 
ATOM     19  C   UNL     1       2.557   4.606  20.359  0.00  0.00    +0.000 A 
ATOM     20 CL   UNL     1       1.612   6.023  20.610  0.00  0.00    +0.000 Cl
ATOM     21  C   UNL     1       3.453   4.560  19.290  0.00  0.00    +0.000 A 
ENDBRANCH  10  14
TORSDOF 1
ENDMDL
MODEL 4
REMARK VINA RESULT:      -7.5      2.586      7.132
REMARK  Name = 
REMARK  1 active torsions:
REMARK  status: ('A' for Active; 'I' for Inactive)
REMARK    1  A    between atoms: N_10  and  C_11
REMARK                            x       y       z     vdW  Elec       q    Type
REMARK                         _______ _______ _______ _____ _____    ______ ____
ROOT
ATOM      1  F   UNL     1       1.648   6.911  20.819  0.00  0.00    +0.000 F 
ATOM      2  C   UNL     1       1.855   5.666  20.376  0.00  0.00    +0.000 A 
ATOM      3  C   UNL     1       1.013   4.644  20.783  0.00  0.00    +0.000 A 
ATOM      4  C   UNL     1       1.231   3.351  20.303  0.00  0.00    +0.000 A 
ATOM      5  C   UNL     1       2.270   3.060  19.426  0.00  0.00    +0.000 A 
ATOM      6  N   UNL     1       2.404   1.803  18.995  0.00  0.00    +0.000 NA
ATOM      7  C   UNL     1       3.394   1.568  18.129  0.00  0.00    +0.000 A 
ATOM      8  N   UNL     1       4.260   2.470  17.660  0.00  0.00    +0.000 NA
ATOM      9  C   UNL     1       4.125   3.733  18.106  0.00  0.00    +0.000 A 
ATOM     10  N   UNL     1       5.047   4.707  17.648  0.00  0.00    +0.000 N 
ATOM     11  C   UNL     1       3.123   4.099  19.020  0.00  0.00    +0.000 A 
ATOM     12  C   UNL     1       2.904   5.412  19.503  0.00  0.00    +0.000 A 
ATOM     13  H   UNL     1       5.647   4.988  18.419  0.00  0.00    +0.000 HD
ENDROOT
BRANCH  10  14
ATOM     14  C   UNL     1       5.712   4.680  16.402  0.00  0.00    +0.000 A 
ATOM     15  C   UNL     1       6.985   5.252  16.265  0.00  0.00    +0.000 A 
ATOM     16  C   UNL     1       7.622   5.287  15.019  0.00  0.00    +0.000 A 
ATOM     17  C   UNL     1       6.977   4.773  13.899  0.00  0.00    +0.000 A 
ATOM     18  F   UNL     1       7.600   4.826  12.713  0.00  0.00    +0.000 F 
ATOM     19  C   UNL     1       5.702   4.227  14.008  0.00  0.00    +0.000 A 
ATOM     20 CL   UNL     1       4.881   3.617  12.624  0.00  0.00    +0.000 Cl
ATOM     21  C   UNL     1       5.072   4.187  15.252  0.00  0.00    +0.000 A 
ENDBRANCH  10  14
TORSDOF 1
ENDMDL
MODEL 5
REMARK VINA RESULT:      -7.4      1.081      1.194
REMARK  Name = 
REMARK  1 active torsions:
REMARK  status: ('A' for Active; 'I' for Inactive)
REMARK    1  A    between atoms: N_10  and  C_11
REMARK                            x       y       z     vdW  Elec       q    Type
REMARK                         _______ _______ _______ _____ _____    ______ ____
ROOT
ATOM      1  F   UNL     1       5.413   2.568  11.560  0.00  0.00    +0.000 F 
ATOM      2  C   UNL     1       5.968   3.350  12.492  0.00  0.00    +0.000 A 
ATOM      3  C   UNL     1       6.990   4.216  12.141  0.00  0.00    +0.000 A 
ATOM      4  C   UNL     1       7.554   5.037  13.120  0.00  0.00    +0.000 A 
ATOM      5  C   UNL     1       7.117   5.009  14.440  0.00  0.00    +0.000 A 
ATOM      6  N   UNL     1       7.691   5.837  15.316  0.00  0.00    +0.000 NA
ATOM      7  C   UNL     1       7.224   5.804  16.568  0.00  0.00    +0.000 A 
ATOM      8  N   UNL     1       6.242   5.021  17.021  0.00  0.00    +0.000 NA
ATOM      9  C   UNL     1       5.674   4.182  16.133  0.00  0.00    +0.000 A 
ATOM     10  N   UNL     1       4.648   3.318  16.592  0.00  0.00    +0.000 N 
ATOM     11  C   UNL     1       6.084   4.126  14.791  0.00  0.00    +0.000 A 
ATOM     12  C   UNL     1       5.508   3.293  13.800  0.00  0.00    +0.000 A 
ATOM     13  H   UNL     1       4.989   2.360  16.582  0.00  0.00    +0.000 HD
ENDROOT
BRANCH  10  14
ATOM     14  C   UNL     1       3.770   3.590  17.664  0.00  0.00    +0.000 A 
ATOM     15  C   UNL     1       4.151   4.468  18.688  0.00  0.00    +0.000 A 
ATOM     16  C   UNL     1       3.312   4.692  19.786  0.00  0.00    +0.000 A 
ATOM     17  C   UNL     1       2.099   4.017  19.878  0.00  0.00    +0.000 A 
ATOM     18  F   UNL     1       1.317   4.237  20.944  0.00  0.00    +0.000 F 
ATOM     19  C   UNL     1       1.716   3.119  18.887  0.00  0.00    +0.000 A 
ATOM     20 CL   UNL     1       0.232   2.254  19.005  0.00  0.00    +0.000 Cl
ATOM     21  C   UNL     1       2.550   2.903  17.790  0.00  0.00    +0.000 A 
ENDBRANCH  10  14
TORSDOF 1
ENDMDL
MODEL 6
REMARK VINA RESULT:      -7.4      4.133      5.357
REMARK  Name = 
REMARK  1 active torsions:
REMARK  status: ('A' for Active; 'I' for Inactive)
REMARK    1  A    between atoms: N_10  and  C_11
REMARK                            x       y       z     vdW  Elec       q    Type
REMARK                         _______ _______ _______ _____ _____    ______ ____
ROOT
ATOM      1  F   UNL     1       7.985   7.277  17.004  0.00  0.00    +0.000 F 
ATOM      2  C   UNL     1       6.937   6.466  17.189  0.00  0.00    +0.000 A 
ATOM      3  C   UNL     1       7.125   5.094  17.204  0.00  0.00    +0.000 A 
ATOM      4  C   UNL     1       6.025   4.258  17.410  0.00  0.00    +0.000 A 
ATOM      5  C   UNL     1       4.745   4.766  17.602  0.00  0.00    +0.000 A 
ATOM      6  N   UNL     1       3.746   3.905  17.812  0.00  0.00    +0.000 NA
ATOM      7  C   UNL     1       2.535   4.431  18.023  0.00  0.00    +0.000 A 
ATOM      8  N   UNL     1       2.234   5.731  18.040  0.00  0.00    +0.000 NA
ATOM      9  C   UNL     1       3.245   6.593  17.817  0.00  0.00    +0.000 A 
ATOM     10  N   UNL     1       2.950   7.980  17.800  0.00  0.00    +0.000 N 
ATOM     11  C   UNL     1       4.559   6.157  17.580  0.00  0.00    +0.000 A 
ATOM     12  C   UNL     1       5.672   7.008  17.373  0.00  0.00    +0.000 A 
ATOM     13  H   UNL     1       3.054   8.331  16.851  0.00  0.00    +0.000 HD
ENDROOT
BRANCH  10  14
ATOM     14  C   UNL     1       1.905   8.601  18.518  0.00  0.00    +0.000 A 
ATOM     15  C   UNL     1       1.009   9.461  17.865  0.00  0.00    +0.000 A 
ATOM     16  C   UNL     1       0.012  10.130  18.581  0.00  0.00    +0.000 A 
ATOM     17  C   UNL     1      -0.079   9.965  19.960  0.00  0.00    +0.000 A 
ATOM     18  F   UNL     1      -1.034  10.626  20.628  0.00  0.00    +0.000 F 
ATOM     19  C   UNL     1       0.819   9.141  20.630  0.00  0.00    +0.000 A 
ATOM     20 CL   UNL     1       0.737   8.953  22.340  0.00  0.00    +0.000 Cl
ATOM     21  C   UNL     1       1.808   8.468  19.913  0.00  0.00    +0.000 A 
ENDBRANCH  10  14
TORSDOF 1
ENDMDL
MODEL 7
REMARK VINA RESULT:      -7.2      4.220      5.456
REMARK  Name = 
REMARK  1 active torsions:
REMARK  status: ('A' for Active; 'I' for Inactive)
REMARK    1  A    between atoms: N_10  and  C_11
REMARK                            x       y       z     vdW  Elec       q    Type
REMARK                         _______ _______ _______ _____ _____    ______ ____
ROOT
ATOM      1  F   UNL     1       7.752   6.852  16.708  0.00  0.00    +0.000 F 
ATOM      2  C   UNL     1       6.643   6.115  16.841  0.00  0.00    +0.000 A 
ATOM      3  C   UNL     1       6.685   4.757  16.573  0.00  0.00    +0.000 A 
ATOM      4  C   UNL     1       5.524   3.996  16.728  0.00  0.00    +0.000 A 
ATOM      5  C   UNL     1       4.326   4.564  17.146  0.00  0.00    +0.000 A 
ATOM      6  N   UNL     1       3.263   3.769  17.290  0.00  0.00    +0.000 NA
ATOM      7  C   UNL     1       2.138   4.345  17.723  0.00  0.00    +0.000 A 
ATOM      8  N   UNL     1       1.978   5.636  18.021  0.00  0.00    +0.000 NA
ATOM      9  C   UNL     1       3.052   6.434  17.864  0.00  0.00    +0.000 A 
ATOM     10  N   UNL     1       2.907   7.816  18.145  0.00  0.00    +0.000 N 
ATOM     11  C   UNL     1       4.288   5.941  17.412  0.00  0.00    +0.000 A 
ATOM     12  C   UNL     1       5.464   6.717  17.258  0.00  0.00    +0.000 A 
ATOM     13  H   UNL     1       2.966   8.341  17.276  0.00  0.00    +0.000 HD
ENDROOT
BRANCH  10  14
ATOM     14  C   UNL     1       1.998   8.369  19.074  0.00  0.00    +0.000 A 
ATOM     15  C   UNL     1       1.869   7.815  20.356  0.00  0.00    +0.000 A 
ATOM     16  C   UNL     1       0.925   8.317  21.258  0.00  0.00    +0.000 A 
ATOM     17  C   UNL     1       0.087   9.359  20.875  0.00  0.00    +0.000 A 
ATOM     18  F   UNL     1      -0.818   9.816  21.751  0.00  0.00    +0.000 F 
ATOM     19  C   UNL     1       0.180   9.903  19.598  0.00  0.00    +0.000 A 
ATOM     20 CL   UNL     1      -0.873  11.171  19.100  0.00  0.00    +0.000 Cl
ATOM     21  C   UNL     1       1.126   9.406  18.702  0.00  0.00    +0.000 A 
ENDBRANCH  10  14
TORSDOF 1
ENDMDL
MODEL 8
REMARK VINA RESULT:      -7.2      3.365      3.982
REMARK  Name = 
REMARK  1 active torsions:
REMARK  status: ('A' for Active; 'I' for Inactive)
REMARK    1  A    between atoms: N_10  and  C_11
REMARK                            x       y       z     vdW  Elec       q    Type
REMARK                         _______ _______ _______ _____ _____    ______ ____
ROOT
ATOM      1  F   UNL     1       4.990   4.405  13.457  0.00  0.00    +0.000 F 
ATOM      2  C   UNL     1       5.522   4.511  14.680  0.00  0.00    +0.000 A 
ATOM      3  C   UNL     1       6.852   4.178  14.881  0.00  0.00    +0.000 A 
ATOM      4  C   UNL     1       7.400   4.305  16.159  0.00  0.00    +0.000 A 
ATOM      5  C   UNL     1       6.647   4.757  17.238  0.00  0.00    +0.000 A 
ATOM      6  N   UNL     1       7.245   4.869  18.426  0.00  0.00    +0.000 NA
ATOM      7  C   UNL     1       6.499   5.336  19.431  0.00  0.00    +0.000 A 
ATOM      8  N   UNL     1       5.215   5.695  19.358  0.00  0.00    +0.000 NA
ATOM      9  C   UNL     1       4.616   5.569  18.158  0.00  0.00    +0.000 A 
ATOM     10  N   UNL     1       3.245   5.916  18.056  0.00  0.00    +0.000 N 
ATOM     11  C   UNL     1       5.299   5.087  17.029  0.00  0.00    +0.000 A 
ATOM     12  C   UNL     1       4.740   4.962  15.734  0.00  0.00    +0.000 A 
ATOM     13  H   UNL     1       2.698   5.072  17.902  0.00  0.00    +0.000 HD
ENDROOT
BRANCH  10  14
ATOM     14  C   UNL     1       2.583   6.875  18.853  0.00  0.00    +0.000 A 
ATOM     15  C   UNL     1       2.126   6.539  20.135  0.00  0.00    +0.000 A 
ATOM     16  C   UNL     1       1.412   7.464  20.904  0.00  0.00    +0.000 A 
ATOM     17  C   UNL     1       1.129   8.723  20.385  0.00  0.00    +0.000 A 
ATOM     18  F   UNL     1       0.435   9.590  21.134  0.00  0.00    +0.000 F 
ATOM     19  C   UNL     1       1.549   9.067  19.103  0.00  0.00    +0.000 A 
ATOM     20 CL   UNL     1       1.177  10.610  18.437  0.00  0.00    +0.000 Cl
ATOM     21  C   UNL     1       2.266   8.145  18.341  0.00  0.00    +0.000 A 
ENDBRANCH  10  14
TORSDOF 1
ENDMDL
MODEL 9
REMARK VINA RESULT:      -7.1      2.990      6.990
REMARK  Name = 
REMARK  1 active torsions:
REMARK  status: ('A' for Active; 'I' for Inactive)
REMARK    1  A    between atoms: N_10  and  C_11
REMARK                            x       y       z     vdW  Elec       q    Type
REMARK                         _______ _______ _______ _____ _____    ______ ____
ROOT
ATOM      1  F   UNL     1       3.175   1.613  21.575  0.00  0.00    +0.000 F 
ATOM      2  C   UNL     1       2.958   2.806  21.008  0.00  0.00    +0.000 A 
ATOM      3  C   UNL     1       2.249   3.775  21.698  0.00  0.00    +0.000 A 
ATOM      4  C   UNL     1       2.040   5.020  21.101  0.00  0.00    +0.000 A 
ATOM      5  C   UNL     1       2.526   5.315  19.833  0.00  0.00    +0.000 A 
ATOM      6  N   UNL     1       2.303   6.534  19.335  0.00  0.00    +0.000 NA
ATOM      7  C   UNL     1       2.812   6.791  18.126  0.00  0.00    +0.000 A 
ATOM      8  N   UNL     1       3.516   5.944  17.372  0.00  0.00    +0.000 NA
ATOM      9  C   UNL     1       3.728   4.713  17.877  0.00  0.00    +0.000 A 
ATOM     10  N   UNL     1       4.449   3.782  17.087  0.00  0.00    +0.000 N 
ATOM     11  C   UNL     1       3.240   4.327  19.136  0.00  0.00    +0.000 A 
ATOM     12  C   UNL     1       3.455   3.064  19.738  0.00  0.00    +0.000 A 
ATOM     13  H   UNL     1       3.818   3.045  16.781  0.00  0.00    +0.000 HD
ENDROOT
BRANCH  10  14
ATOM     14  C   UNL     1       5.433   4.112  16.129  0.00  0.00    +0.000 A 
ATOM     15  C   UNL     1       6.499   4.957  16.469  0.00  0.00    +0.000 A 
ATOM     16  C   UNL     1       7.441   5.339  15.508  0.00  0.00    +0.000 A 
ATOM     17  C   UNL     1       7.306   4.901  14.194  0.00  0.00    +0.000 A 
ATOM     18  F   UNL     1       8.213   5.289  13.287  0.00  0.00    +0.000 F 
ATOM     19  C   UNL     1       6.239   4.086  13.830  0.00  0.00    +0.000 A 
ATOM     20 CL   UNL     1       6.044   3.562  12.201  0.00  0.00    +0.000 Cl
ATOM     21  C   UNL     1       5.305   3.699  14.791  0.00  0.00    +0.000 A 
ENDBRANCH  10  14
TORSDOF 1
ENDMDL
