MODEL 1
REMARK VINA RESULT:      -6.5      0.000      0.000
REMARK  Name = 
REMARK  14 active torsions:
REMARK  status: ('A' for Active; 'I' for Inactive)
REMARK    1  A    between atoms: C_12  and  N_13
REMARK    2  A    between atoms: N_13  and  C_14
REMARK    3  A    between atoms: C_14  and  C_15
REMARK    4  A    between atoms: C_15  and  N_16
REMARK    5  A    between atoms: N_16  and  C_17
REMARK    6  A    between atoms: C_17  and  C_18
REMARK    7  A    between atoms: C_18  and  O_19
REMARK    8  A    between atoms: C_22  and  N_23
REMARK    9  A    between atoms: N_23  and  C_24
REMARK   10  A    between atoms: C_24  and  C_25
REMARK   11  A    between atoms: C_25  and  N_26
REMARK   12  A    between atoms: N_26  and  C_27
REMARK   13  A    between atoms: C_27  and  C_28
REMARK   14  A    between atoms: C_28  and  O_29
REMARK                            x       y       z     vdW  Elec       q    Type
REMARK                         _______ _______ _______ _____ _____    ______ ____
ROOT
ATOM      1  O   UNL     1       3.044   8.611  16.802  0.00  0.00    +0.000 OA
ATOM      2  C   UNL     1       2.634   8.220  17.879  0.00  0.00    +0.000 C 
ATOM      3  C   UNL     1       1.563   9.006  18.545  0.00  0.00    +0.000 A 
ATOM      4  C   UNL     1       0.993  10.140  17.925  0.00  0.00    +0.000 A 
ATOM      5  C   UNL     1      -0.033  10.859  18.554  0.00  0.00    +0.000 A 
ATOM      6  C   UNL     1      -0.492  10.467  19.809  0.00  0.00    +0.000 A 
ATOM      7  C   UNL     1       0.068   9.359  20.435  0.00  0.00    +0.000 A 
ATOM      8  C   UNL     1       1.092   8.618  19.807  0.00  0.00    +0.000 A 
ATOM      9  C   UNL     1       1.658   7.437  20.471  0.00  0.00    +0.000 C 
ATOM     10  O   UNL     1       1.300   7.231  21.616  0.00  0.00    +0.000 OA
ATOM     11  C   UNL     1       2.647   6.532  19.775  0.00  0.00    +0.000 A 
ATOM     12  C   UNL     1       3.054   5.268  20.343  0.00  0.00    +0.000 A 
ATOM     13  C   UNL     1       3.980   4.495  19.653  0.00  0.00    +0.000 A 
ATOM     14  C   UNL     1       4.480   4.877  18.440  0.00  0.00    +0.000 A 
ATOM     15  C   UNL     1       4.104   6.072  17.805  0.00  0.00    +0.000 A 
ATOM     16  C   UNL     1       3.165   6.937  18.489  0.00  0.00    +0.000 A 
ENDROOT
BRANCH  12  17
ATOM     17  N   UNL     1       2.517   4.728  21.564  0.00  0.00    +0.000 N 
ATOM     18  H   UNL     1       2.445   5.289  22.409  0.00  0.00    +0.000 HD
BRANCH  17  19
ATOM     19  C   UNL     1       1.954   3.391  21.679  0.00  0.00    +0.000 C 
BRANCH  19  20
ATOM     20  C   UNL     1       0.891   3.171  20.599  0.00  0.00    +0.000 C 
BRANCH  20  21
ATOM     21  N   UNL     1       1.255   2.056  19.723  0.00  0.00    +0.000 NA
ATOM     22  H   UNL     1       0.531   1.306  19.822  0.00  0.00    +0.000 HD
BRANCH  21  23
ATOM     23  C   UNL     1       1.267   2.513  18.329  0.00  0.00    +0.000 C 
BRANCH  23  24
ATOM     24  C   UNL     1       2.494   1.971  17.600  0.00  0.00    +0.000 C 
BRANCH  24  25
ATOM     25  O   UNL     1       3.264   1.184  18.466  0.00  0.00    +0.000 OA
ATOM     26  H   UNL     1       4.215   1.384  18.258  0.00  0.00    +0.000 HD
ENDBRANCH  24  25
ENDBRANCH  23  24
ENDBRANCH  21  23
ENDBRANCH  20  21
ENDBRANCH  19  20
ENDBRANCH  17  19
ENDBRANCH  12  17
BRANCH  15  27
ATOM     27  N   UNL     1       4.661   6.325  16.490  0.00  0.00    +0.000 N 
ATOM     28  H   UNL     1       4.581   7.235  16.022  0.00  0.00    +0.000 HD
BRANCH  27  29
ATOM     29  C   UNL     1       5.262   5.226  15.739  0.00  0.00    +0.000 C 
BRANCH  29  30
ATOM     30  C   UNL     1       6.760   5.328  15.456  0.00  0.00    +0.000 C 
BRANCH  30  31
ATOM     31  N   UNL     1       7.347   6.089  16.578  0.00  0.00    +0.000 NA
ATOM     32  H   UNL     1       6.660   6.826  16.872  0.00  0.00    +0.000 HD
BRANCH  31  33
ATOM     33  C   UNL     1       7.677   5.303  17.771  0.00  0.00    +0.000 C 
BRANCH  33  34
ATOM     34  C   UNL     1       7.901   6.180  19.006  0.00  0.00    +0.000 C 
BRANCH  34  35
ATOM     35  O   UNL     1       7.750   5.436  20.185  0.00  0.00    +0.000 OA
ATOM     36  H   UNL     1       6.797   5.513  20.453  0.00  0.00    +0.000 HD
ENDBRANCH  34  35
ENDBRANCH  33  34
ENDBRANCH  31  33
ENDBRANCH  30  31
ENDBRANCH  29  30
ENDBRANCH  27  29
ENDBRANCH  15  27
TORSDOF 14
ENDMDL
MODEL 2
REMARK VINA RESULT:      -6.4      2.211      5.567
REMARK  Name = 
REMARK  14 active torsions:
REMARK  status: ('A' for Active; 'I' for Inactive)
REMARK    1  A    between atoms: C_12  and  N_13
REMARK    2  A    between atoms: N_13  and  C_14
REMARK    3  A    between atoms: C_14  and  C_15
REMARK    4  A    between atoms: C_15  and  N_16
REMARK    5  A    between atoms: N_16  and  C_17
REMARK    6  A    between atoms: C_17  and  C_18
REMARK    7  A    between atoms: C_18  and  O_19
REMARK    8  A    between atoms: C_22  and  N_23
REMARK    9  A    between atoms: N_23  and  C_24
REMARK   10  A    between atoms: C_24  and  C_25
REMARK   11  A    between atoms: C_25  and  N_26
REMARK   12  A    between atoms: N_26  and  C_27
REMARK   13  A    between atoms: C_27  and  C_28
REMARK   14  A    between atoms: C_28  and  O_29
REMARK                            x       y       z     vdW  Elec       q    Type
REMARK                         _______ _______ _______ _____ _____    ______ ____
ROOT
ATOM      1  O   UNL     1       1.753   6.107  21.058  0.00  0.00    +0.000 OA
ATOM      2  C   UNL     1       2.289   6.483  20.033  0.00  0.00    +0.000 C 
ATOM      3  C   UNL     1       1.901   7.812  19.491  0.00  0.00    +0.000 A 
ATOM      4  C   UNL     1       0.983   8.642  20.173  0.00  0.00    +0.000 A 
ATOM      5  C   UNL     1       0.644   9.903  19.662  0.00  0.00    +0.000 A 
ATOM      6  C   UNL     1       1.204  10.345  18.466  0.00  0.00    +0.000 A 
ATOM      7  C   UNL     1       2.100   9.533  17.780  0.00  0.00    +0.000 A 
ATOM      8  C   UNL     1       2.460   8.267  18.289  0.00  0.00    +0.000 A 
ATOM      9  C   UNL     1       3.426   7.431  17.565  0.00  0.00    +0.000 C 
ATOM     10  O   UNL     1       3.772   7.825  16.467  0.00  0.00    +0.000 OA
ATOM     11  C   UNL     1       3.951   6.139  18.146  0.00  0.00    +0.000 A 
ATOM     12  C   UNL     1       5.041   5.417  17.534  0.00  0.00    +0.000 A 
ATOM     13  C   UNL     1       5.461   4.226  18.116  0.00  0.00    +0.000 A 
ATOM     14  C   UNL     1       4.900   3.747  19.266  0.00  0.00    +0.000 A 
ATOM     15  C   UNL     1       3.863   4.412  19.941  0.00  0.00    +0.000 A 
ATOM     16  C   UNL     1       3.360   5.642  19.366  0.00  0.00    +0.000 A 
ENDROOT
BRANCH  12  17
ATOM     17  N   UNL     1       5.764   5.881  16.379  0.00  0.00    +0.000 N 
ATOM     18  H   UNL     1       5.800   6.868  16.134  0.00  0.00    +0.000 HD
BRANCH  17  19
ATOM     19  C   UNL     1       6.571   5.019  15.529  0.00  0.00    +0.000 C 
BRANCH  19  20
ATOM     20  C   UNL     1       5.796   4.653  14.260  0.00  0.00    +0.000 C 
BRANCH  20  21
ATOM     21  N   UNL     1       6.340   3.442  13.643  0.00  0.00    +0.000 NA
ATOM     22  H   UNL     1       6.031   2.615  14.206  0.00  0.00    +0.000 HD
BRANCH  21  23
ATOM     23  C   UNL     1       5.811   3.306  12.282  0.00  0.00    +0.000 C 
BRANCH  23  24
ATOM     24  C   UNL     1       6.911   2.858  11.323  0.00  0.00    +0.000 C 
BRANCH  24  25
ATOM     25  O   UNL     1       7.181   1.495  11.499  0.00  0.00    +0.000 OA
ATOM     26  H   UNL     1       6.305   1.050  11.644  0.00  0.00    +0.000 HD
ENDBRANCH  24  25
ENDBRANCH  23  24
ENDBRANCH  21  23
ENDBRANCH  20  21
ENDBRANCH  19  20
ENDBRANCH  17  19
ENDBRANCH  12  17
BRANCH  15  27
ATOM     27  N   UNL     1       3.403   3.827  21.185  0.00  0.00    +0.000 N 
ATOM     28  H   UNL     1       3.628   4.231  22.102  0.00  0.00    +0.000 HD
BRANCH  27  29
ATOM     29  C   UNL     1       2.688   2.554  21.162  0.00  0.00    +0.000 C 
BRANCH  29  30
ATOM     30  C   UNL     1       1.171   2.616  21.340  0.00  0.00    +0.000 C 
BRANCH  30  31
ATOM     31  N   UNL     1       0.634   3.261  20.124  0.00  0.00    +0.000 NA
ATOM     32  H   UNL     1       1.251   4.074  19.882  0.00  0.00    +0.000 HD
BRANCH  31  33
ATOM     33  C   UNL     1       0.556   2.405  18.937  0.00  0.00    +0.000 C 
BRANCH  33  34
ATOM     34  C   UNL     1       1.610   2.766  17.886  0.00  0.00    +0.000 C 
BRANCH  34  35
ATOM     35  O   UNL     1       2.498   1.701  17.678  0.00  0.00    +0.000 OA
ATOM     36  H   UNL     1       2.101   1.130  16.968  0.00  0.00    +0.000 HD
ENDBRANCH  34  35
ENDBRANCH  33  34
ENDBRANCH  31  33
ENDBRANCH  30  31
ENDBRANCH  29  30
ENDBRANCH  27  29
ENDBRANCH  15  27
TORSDOF 14
ENDMDL
MODEL 3
REMARK VINA RESULT:      -6.3      2.333      3.049
REMARK  Name = 
REMARK  14 active torsions:
REMARK  status: ('A' for Active; 'I' for Inactive)
REMARK    1  A    between atoms: C_12  and  N_13
REMARK    2  A    between atoms: N_13  and  C_14
REMARK    3  A    between atoms: C_14  and  C_15
REMARK    4  A    between atoms: C_15  and  N_16
REMARK    5  A    between atoms: N_16  and  C_17
REMARK    6  A    between atoms: C_17  and  C_18
REMARK    7  A    between atoms: C_18  and  O_19
REMARK    8  A    between atoms: C_22  and  N_23
REMARK    9  A    between atoms: N_23  and  C_24
REMARK   10  A    between atoms: C_24  and  C_25
REMARK   11  A    between atoms: C_25  and  N_26
REMARK   12  A    between atoms: N_26  and  C_27
REMARK   13  A    between atoms: C_27  and  C_28
REMARK   14  A    between atoms: C_28  and  O_29
REMARK                            x       y       z     vdW  Elec       q    Type
REMARK                         _______ _______ _______ _____ _____    ______ ____
ROOT
ATOM      1  O   UNL     1       3.914   8.246  16.652  0.00  0.00    +0.000 OA
ATOM      2  C   UNL     1       3.503   7.691  17.654  0.00  0.00    +0.000 C 
ATOM      3  C   UNL     1       2.372   8.320  18.386  0.00  0.00    +0.000 A 
ATOM      4  C   UNL     1       1.751   9.495  17.905  0.00  0.00    +0.000 A 
ATOM      5  C   UNL     1       0.671  10.065  18.592  0.00  0.00    +0.000 A 
ATOM      6  C   UNL     1       0.206   9.482  19.768  0.00  0.00    +0.000 A 
ATOM      7  C   UNL     1       0.816   8.331  20.258  0.00  0.00    +0.000 A 
ATOM      8  C   UNL     1       1.895   7.740  19.569  0.00  0.00    +0.000 A 
ATOM      9  C   UNL     1       2.514   6.512  20.086  0.00  0.00    +0.000 C 
ATOM     10  O   UNL     1       2.141   6.134  21.181  0.00  0.00    +0.000 OA
ATOM     11  C   UNL     1       3.569   5.765  19.306  0.00  0.00    +0.000 A 
ATOM     12  C   UNL     1       4.036   4.460  19.713  0.00  0.00    +0.000 A 
ATOM     13  C   UNL     1       5.022   3.840  18.955  0.00  0.00    +0.000 A 
ATOM     14  C   UNL     1       5.528   4.409  17.820  0.00  0.00    +0.000 A 
ATOM     15  C   UNL     1       5.097   5.657  17.339  0.00  0.00    +0.000 A 
ATOM     16  C   UNL     1       4.093   6.368  18.103  0.00  0.00    +0.000 A 
ENDROOT
BRANCH  12  17
ATOM     17  N   UNL     1       3.504   3.731  20.834  0.00  0.00    +0.000 N 
ATOM     18  H   UNL     1       3.594   4.077  21.786  0.00  0.00    +0.000 HD
BRANCH  17  19
ATOM     19  C   UNL     1       2.723   2.510  20.707  0.00  0.00    +0.000 C 
BRANCH  19  20
ATOM     20  C   UNL     1       1.279   2.757  21.149  0.00  0.00    +0.000 C 
BRANCH  20  21
ATOM     21  N   UNL     1       0.507   3.403  20.086  0.00  0.00    +0.000 NA
ATOM     22  H   UNL     1       0.801   4.407  20.025  0.00  0.00    +0.000 HD
BRANCH  21  23
ATOM     23  C   UNL     1       0.800   2.753  18.804  0.00  0.00    +0.000 C 
BRANCH  23  24
ATOM     24  C   UNL     1       1.241   3.785  17.770  0.00  0.00    +0.000 C 
BRANCH  24  25
ATOM     25  O   UNL     1       2.179   3.224  16.894  0.00  0.00    +0.000 OA
ATOM     26  H   UNL     1       1.691   2.549  16.352  0.00  0.00    +0.000 HD
ENDBRANCH  24  25
ENDBRANCH  23  24
ENDBRANCH  21  23
ENDBRANCH  20  21
ENDBRANCH  19  20
ENDBRANCH  17  19
ENDBRANCH  12  17
BRANCH  15  27
ATOM     27  N   UNL     1       5.669   6.115  16.088  0.00  0.00    +0.000 N 
ATOM     28  H   UNL     1       6.176   7.004  16.004  0.00  0.00    +0.000 HD
BRANCH  27  29
ATOM     29  C   UNL     1       5.428   5.354  14.864  0.00  0.00    +0.000 C 
BRANCH  29  30
ATOM     30  C   UNL     1       6.622   4.600  14.280  0.00  0.00    +0.000 C 
BRANCH  30  31
ATOM     31  N   UNL     1       6.074   3.396  13.621  0.00  0.00    +0.000 NA
ATOM     32  H   UNL     1       5.054   3.325  13.859  0.00  0.00    +0.000 HD
BRANCH  31  33
ATOM     33  C   UNL     1       6.182   3.372  12.159  0.00  0.00    +0.000 C 
BRANCH  33  34
ATOM     34  C   UNL     1       5.886   1.988  11.575  0.00  0.00    +0.000 C 
BRANCH  34  35
ATOM     35  O   UNL     1       7.069   1.340  11.190  0.00  0.00    +0.000 OA
ATOM     36  H   UNL     1       6.827   0.402  10.974  0.00  0.00    +0.000 HD
ENDBRANCH  34  35
ENDBRANCH  33  34
ENDBRANCH  31  33
ENDBRANCH  30  31
ENDBRANCH  29  30
ENDBRANCH  27  29
ENDBRANCH  15  27
TORSDOF 14
ENDMDL
MODEL 4
REMARK VINA RESULT:      -6.3      1.735      2.198
REMARK  Name = 
REMARK  14 active torsions:
REMARK  status: ('A' for Active; 'I' for Inactive)
REMARK    1  A    between atoms: C_12  and  N_13
REMARK    2  A    between atoms: N_13  and  C_14
REMARK    3  A    between atoms: C_14  and  C_15
REMARK    4  A    between atoms: C_15  and  N_16
REMARK    5  A    between atoms: N_16  and  C_17
REMARK    6  A    between atoms: C_17  and  C_18
REMARK    7  A    between atoms: C_18  and  O_19
REMARK    8  A    between atoms: C_22  and  N_23
REMARK    9  A    between atoms: N_23  and  C_24
REMARK   10  A    between atoms: C_24  and  C_25
REMARK   11  A    between atoms: C_25  and  N_26
REMARK   12  A    between atoms: N_26  and  C_27
REMARK   13  A    between atoms: C_27  and  C_28
REMARK   14  A    between atoms: C_28  and  O_29
REMARK                            x       y       z     vdW  Elec       q    Type
REMARK                         _______ _______ _______ _____ _____    ______ ____
ROOT
ATOM      1  O   UNL     1       2.709   9.178  17.026  0.00  0.00    +0.000 OA
ATOM      2  C   UNL     1       2.328   8.702  18.080  0.00  0.00    +0.000 C 
ATOM      3  C   UNL     1       1.244   9.407  18.812  0.00  0.00    +0.000 A 
ATOM      4  C   UNL     1       0.628  10.561  18.278  0.00  0.00    +0.000 A 
ATOM      5  C   UNL     1      -0.410  11.202  18.968  0.00  0.00    +0.000 A 
ATOM      6  C   UNL     1      -0.837  10.711  20.199  0.00  0.00    +0.000 A 
ATOM      7  C   UNL     1      -0.232   9.582  20.741  0.00  0.00    +0.000 A 
ATOM      8  C   UNL     1       0.805   8.919  20.051  0.00  0.00    +0.000 A 
ATOM      9  C   UNL     1       1.418   7.714  20.625  0.00  0.00    +0.000 C 
ATOM     10  O   UNL     1       1.085   7.421  21.758  0.00  0.00    +0.000 OA
ATOM     11  C   UNL     1       2.424   6.891  19.856  0.00  0.00    +0.000 A 
ATOM     12  C   UNL     1       2.879   5.606  20.332  0.00  0.00    +0.000 A 
ATOM     13  C   UNL     1       3.819   4.912  19.578  0.00  0.00    +0.000 A 
ATOM     14  C   UNL     1       4.288   5.391  18.388  0.00  0.00    +0.000 A 
ATOM     15  C   UNL     1       3.864   6.613  17.840  0.00  0.00    +0.000 A 
ATOM     16  C   UNL     1       2.909   7.399  18.594  0.00  0.00    +0.000 A 
ENDROOT
BRANCH  12  17
ATOM     17  N   UNL     1       2.379   4.967  21.520  0.00  0.00    +0.000 N 
ATOM     18  H   UNL     1       1.961   5.502  22.277  0.00  0.00    +0.000 HD
BRANCH  17  19
ATOM     19  C   UNL     1       2.339   3.525  21.708  0.00  0.00    +0.000 C 
BRANCH  19  20
ATOM     20  C   UNL     1       1.148   2.927  20.954  0.00  0.00    +0.000 C 
BRANCH  20  21
ATOM     21  N   UNL     1       1.596   2.003  19.911  0.00  0.00    +0.000 NA
ATOM     22  H   UNL     1       1.376   1.025  20.217  0.00  0.00    +0.000 HD
BRANCH  21  23
ATOM     23  C   UNL     1       0.868   2.278  18.668  0.00  0.00    +0.000 C 
BRANCH  23  24
ATOM     24  C   UNL     1       1.747   3.062  17.697  0.00  0.00    +0.000 C 
BRANCH  24  25
ATOM     25  O   UNL     1       1.102   4.243  17.305  0.00  0.00    +0.000 OA
ATOM     26  H   UNL     1       0.146   4.010  17.169  0.00  0.00    +0.000 HD
ENDBRANCH  24  25
ENDBRANCH  23  24
ENDBRANCH  21  23
ENDBRANCH  20  21
ENDBRANCH  19  20
ENDBRANCH  17  19
ENDBRANCH  12  17
BRANCH  15  27
ATOM     27  N   UNL     1       4.392   6.972  16.538  0.00  0.00    +0.000 N 
ATOM     28  H   UNL     1       4.142   7.847  16.062  0.00  0.00    +0.000 HD
BRANCH  27  29
ATOM     29  C   UNL     1       5.222   6.016  15.809  0.00  0.00    +0.000 C 
BRANCH  29  30
ATOM     30  C   UNL     1       6.701   5.964  16.189  0.00  0.00    +0.000 C 
BRANCH  30  31
ATOM     31  N   UNL     1       7.234   4.709  15.620  0.00  0.00    +0.000 NA
ATOM     32  H   UNL     1       7.535   4.089  16.411  0.00  0.00    +0.000 HD
BRANCH  31  33
ATOM     33  C   UNL     1       6.295   3.939  14.798  0.00  0.00    +0.000 C 
BRANCH  33  34
ATOM     34  C   UNL     1       6.630   4.010  13.306  0.00  0.00    +0.000 C 
BRANCH  34  35
ATOM     35  O   UNL     1       6.228   2.841  12.644  0.00  0.00    +0.000 OA
ATOM     36  H   UNL     1       5.935   2.200  13.343  0.00  0.00    +0.000 HD
ENDBRANCH  34  35
ENDBRANCH  33  34
ENDBRANCH  31  33
ENDBRANCH  30  31
ENDBRANCH  29  30
ENDBRANCH  27  29
ENDBRANCH  15  27
TORSDOF 14
ENDMDL
MODEL 5
REMARK VINA RESULT:      -6.3      5.130      8.577
REMARK  Name = 
REMARK  14 active torsions:
REMARK  status: ('A' for Active; 'I' for Inactive)
REMARK    1  A    between atoms: C_12  and  N_13
REMARK    2  A    between atoms: N_13  and  C_14
REMARK    3  A    between atoms: C_14  and  C_15
REMARK    4  A    between atoms: C_15  and  N_16
REMARK    5  A    between atoms: N_16  and  C_17
REMARK    6  A    between atoms: C_17  and  C_18
REMARK    7  A    between atoms: C_18  and  O_19
REMARK    8  A    between atoms: C_22  and  N_23
REMARK    9  A    between atoms: N_23  and  C_24
REMARK   10  A    between atoms: C_24  and  C_25
REMARK   11  A    between atoms: C_25  and  N_26
REMARK   12  A    between atoms: N_26  and  C_27
REMARK   13  A    between atoms: C_27  and  C_28
REMARK   14  A    between atoms: C_28  and  O_29
REMARK                            x       y       z     vdW  Elec       q    Type
REMARK                         _______ _______ _______ _____ _____    ______ ____
ROOT
ATOM      1  O   UNL     1      -0.056   9.802  18.258  0.00  0.00    +0.000 OA
ATOM      2  C   UNL     1      -0.996  10.460  18.665  0.00  0.00    +0.000 C 
ATOM      3  C   UNL     1      -2.131  10.702  17.737  0.00  0.00    +0.000 A 
ATOM      4  C   UNL     1      -2.152  10.138  16.442  0.00  0.00    +0.000 A 
ATOM      5  C   UNL     1      -3.241  10.355  15.585  0.00  0.00    +0.000 A 
ATOM      6  C   UNL     1      -4.311  11.143  16.003  0.00  0.00    +0.000 A 
ATOM      7  C   UNL     1      -4.298  11.712  17.272  0.00  0.00    +0.000 A 
ATOM      8  C   UNL     1      -3.214  11.490  18.148  0.00  0.00    +0.000 A 
ATOM      9  C   UNL     1      -3.225  12.079  19.494  0.00  0.00    +0.000 C 
ATOM     10  O   UNL     1      -4.128  12.857  19.741  0.00  0.00    +0.000 OA
ATOM     11  C   UNL     1      -2.162  11.749  20.514  0.00  0.00    +0.000 A 
ATOM     12  C   UNL     1      -2.274  12.165  21.893  0.00  0.00    +0.000 A 
ATOM     13  C   UNL     1      -1.248  11.838  22.772  0.00  0.00    +0.000 A 
ATOM     14  C   UNL     1      -0.165  11.103  22.379  0.00  0.00    +0.000 A 
ATOM     15  C   UNL     1      -0.004  10.629  21.066  0.00  0.00    +0.000 A 
ATOM     16  C   UNL     1      -1.024  10.964  20.095  0.00  0.00    +0.000 A 
ENDROOT
BRANCH  12  17
ATOM     17  N   UNL     1      -3.415  12.857  22.432  0.00  0.00    +0.000 N 
ATOM     18  H   UNL     1      -4.247  13.029  21.873  0.00  0.00    +0.000 HD
BRANCH  17  19
ATOM     19  C   UNL     1      -3.522  13.281  23.820  0.00  0.00    +0.000 C 
BRANCH  19  20
ATOM     20  C   UNL     1      -4.643  12.513  24.523  0.00  0.00    +0.000 C 
BRANCH  20  21
ATOM     21  N   UNL     1      -5.905  13.252  24.462  0.00  0.00    +0.000 NA
ATOM     22  H   UNL     1      -5.754  14.121  23.897  0.00  0.00    +0.000 HD
BRANCH  21  23
ATOM     23  C   UNL     1      -6.921  12.431  23.795  0.00  0.00    +0.000 C 
BRANCH  23  24
ATOM     24  C   UNL     1      -6.988  12.768  22.308  0.00  0.00    +0.000 C 
BRANCH  24  25
ATOM     25  O   UNL     1      -6.239  11.844  21.567  0.00  0.00    +0.000 OA
ATOM     26  H   UNL     1      -5.564  11.464  22.189  0.00  0.00    +0.000 HD
ENDBRANCH  24  25
ENDBRANCH  23  24
ENDBRANCH  21  23
ENDBRANCH  20  21
ENDBRANCH  19  20
ENDBRANCH  17  19
ENDBRANCH  12  17
BRANCH  15  27
ATOM     27  N   UNL     1       1.159   9.807  20.799  0.00  0.00    +0.000 N 
ATOM     28  H   UNL     1       1.997  10.169  20.329  0.00  0.00    +0.000 HD
BRANCH  27  29
ATOM     29  C   UNL     1       1.116   8.378  21.102  0.00  0.00    +0.000 C 
BRANCH  29  30
ATOM     30  C   UNL     1       1.840   7.449  20.129  0.00  0.00    +0.000 C 
BRANCH  30  31
ATOM     31  N   UNL     1       2.192   6.234  20.894  0.00  0.00    +0.000 NA
ATOM     32  H   UNL     1       1.505   6.130  21.680  0.00  0.00    +0.000 HD
BRANCH  31  33
ATOM     33  C   UNL     1       2.175   4.982  20.132  0.00  0.00    +0.000 C 
BRANCH  33  34
ATOM     34  C   UNL     1       1.651   3.803  20.957  0.00  0.00    +0.000 C 
BRANCH  34  35
ATOM     35  O   UNL     1       0.452   3.308  20.423  0.00  0.00    +0.000 OA
ATOM     36  H   UNL     1       0.183   3.929  19.696  0.00  0.00    +0.000 HD
ENDBRANCH  34  35
ENDBRANCH  33  34
ENDBRANCH  31  33
ENDBRANCH  30  31
ENDBRANCH  29  30
ENDBRANCH  27  29
ENDBRANCH  15  27
TORSDOF 14
ENDMDL
MODEL 6
REMARK VINA RESULT:      -6.2      2.428      6.220
REMARK  Name = 
REMARK  14 active torsions:
REMARK  status: ('A' for Active; 'I' for Inactive)
REMARK    1  A    between atoms: C_12  and  N_13
REMARK    2  A    between atoms: N_13  and  C_14
REMARK    3  A    between atoms: C_14  and  C_15
REMARK    4  A    between atoms: C_15  and  N_16
REMARK    5  A    between atoms: N_16  and  C_17
REMARK    6  A    between atoms: C_17  and  C_18
REMARK    7  A    between atoms: C_18  and  O_19
REMARK    8  A    between atoms: C_22  and  N_23
REMARK    9  A    between atoms: N_23  and  C_24
REMARK   10  A    between atoms: C_24  and  C_25
REMARK   11  A    between atoms: C_25  and  N_26
REMARK   12  A    between atoms: N_26  and  C_27
REMARK   13  A    between atoms: C_27  and  C_28
REMARK   14  A    between atoms: C_28  and  O_29
REMARK                            x       y       z     vdW  Elec       q    Type
REMARK                         _______ _______ _______ _____ _____    ______ ____
ROOT
ATOM      1  O   UNL     1       3.736   8.202  16.857  0.00  0.00    +0.000 OA
ATOM      2  C   UNL     1       3.876   7.214  17.553  0.00  0.00    +0.000 C 
ATOM      3  C   UNL     1       4.984   6.279  17.222  0.00  0.00    +0.000 A 
ATOM      4  C   UNL     1       5.886   6.555  16.171  0.00  0.00    +0.000 A 
ATOM      5  C   UNL     1       6.940   5.677  15.885  0.00  0.00    +0.000 A 
ATOM      6  C   UNL     1       7.100   4.512  16.631  0.00  0.00    +0.000 A 
ATOM      7  C   UNL     1       6.213   4.224  17.662  0.00  0.00    +0.000 A 
ATOM      8  C   UNL     1       5.155   5.106  17.969  0.00  0.00    +0.000 A 
ATOM      9  C   UNL     1       4.239   4.799  19.076  0.00  0.00    +0.000 C 
ATOM     10  O   UNL     1       4.362   3.707  19.598  0.00  0.00    +0.000 OA
ATOM     11  C   UNL     1       3.189   5.783  19.534  0.00  0.00    +0.000 A 
ATOM     12  C   UNL     1       2.422   5.572  20.739  0.00  0.00    +0.000 A 
ATOM     13  C   UNL     1       1.460   6.513  21.089  0.00  0.00    +0.000 A 
ATOM     14  C   UNL     1       1.252   7.643  20.351  0.00  0.00    +0.000 A 
ATOM     15  C   UNL     1       1.984   7.938  19.188  0.00  0.00    +0.000 A 
ATOM     16  C   UNL     1       2.980   6.980  18.754  0.00  0.00    +0.000 A 
ENDROOT
BRANCH  12  17
ATOM     17  N   UNL     1       2.628   4.468  21.638  0.00  0.00    +0.000 N 
ATOM     18  H   UNL     1       3.408   4.449  22.290  0.00  0.00    +0.000 HD
BRANCH  17  19
ATOM     19  C   UNL     1       1.710   3.346  21.765  0.00  0.00    +0.000 C 
BRANCH  19  20
ATOM     20  C   UNL     1       1.006   3.085  20.431  0.00  0.00    +0.000 C 
BRANCH  20  21
ATOM     21  N   UNL     1       1.756   2.124  19.620  0.00  0.00    +0.000 NA
ATOM     22  H   UNL     1       1.381   1.165  19.811  0.00  0.00    +0.000 HD
BRANCH  21  23
ATOM     23  C   UNL     1       1.562   2.427  18.198  0.00  0.00    +0.000 C 
BRANCH  23  24
ATOM     24  C   UNL     1       2.776   1.982  17.387  0.00  0.00    +0.000 C 
BRANCH  24  25
ATOM     25  O   UNL     1       3.645   1.230  18.188  0.00  0.00    +0.000 OA
ATOM     26  H   UNL     1       3.920   0.444  17.645  0.00  0.00    +0.000 HD
ENDBRANCH  24  25
ENDBRANCH  23  24
ENDBRANCH  21  23
ENDBRANCH  20  21
ENDBRANCH  19  20
ENDBRANCH  17  19
ENDBRANCH  12  17
BRANCH  15  27
ATOM     27  N   UNL     1       1.707   9.203  18.536  0.00  0.00    +0.000 N 
ATOM     28  H   UNL     1       2.414   9.941  18.439  0.00  0.00    +0.000 HD
BRANCH  27  29
ATOM     29  C   UNL     1       0.348   9.503  18.095  0.00  0.00    +0.000 C 
BRANCH  29  30
ATOM     30  C   UNL     1      -0.374  10.639  18.818  0.00  0.00    +0.000 C 
BRANCH  30  31
ATOM     31  N   UNL     1      -0.867  11.556  17.770  0.00  0.00    +0.000 NA
ATOM     32  H   UNL     1      -0.439  11.272  16.855  0.00  0.00    +0.000 HD
BRANCH  31  33
ATOM     33  C   UNL     1      -2.321  11.576  17.582  0.00  0.00    +0.000 C 
BRANCH  33  34
ATOM     34  C   UNL     1      -2.769  10.715  16.397  0.00  0.00    +0.000 C 
BRANCH  34  35
ATOM     35  O   UNL     1      -3.150  11.514  15.310  0.00  0.00    +0.000 OA
ATOM     36  H   UNL     1      -4.098  11.770  15.459  0.00  0.00    +0.000 HD
ENDBRANCH  34  35
ENDBRANCH  33  34
ENDBRANCH  31  33
ENDBRANCH  30  31
ENDBRANCH  29  30
ENDBRANCH  27  29
ENDBRANCH  15  27
TORSDOF 14
ENDMDL
MODEL 7
REMARK VINA RESULT:      -6.2      2.067      5.732
REMARK  Name = 
REMARK  14 active torsions:
REMARK  status: ('A' for Active; 'I' for Inactive)
REMARK    1  A    between atoms: C_12  and  N_13
REMARK    2  A    between atoms: N_13  and  C_14
REMARK    3  A    between atoms: C_14  and  C_15
REMARK    4  A    between atoms: C_15  and  N_16
REMARK    5  A    between atoms: N_16  and  C_17
REMARK    6  A    between atoms: C_17  and  C_18
REMARK    7  A    between atoms: C_18  and  O_19
REMARK    8  A    between atoms: C_22  and  N_23
REMARK    9  A    between atoms: N_23  and  C_24
REMARK   10  A    between atoms: C_24  and  C_25
REMARK   11  A    between atoms: C_25  and  N_26
REMARK   12  A    between atoms: N_26  and  C_27
REMARK   13  A    between atoms: C_27  and  C_28
REMARK   14  A    between atoms: C_28  and  O_29
REMARK                            x       y       z     vdW  Elec       q    Type
REMARK                         _______ _______ _______ _____ _____    ______ ____
ROOT
ATOM      1  O   UNL     1       3.534   8.233  16.976  0.00  0.00    +0.000 OA
ATOM      2  C   UNL     1       3.707   7.238  17.655  0.00  0.00    +0.000 C 
ATOM      3  C   UNL     1       4.817   6.323  17.280  0.00  0.00    +0.000 A 
ATOM      4  C   UNL     1       5.683   6.624  16.205  0.00  0.00    +0.000 A 
ATOM      5  C   UNL     1       6.740   5.763  15.877  0.00  0.00    +0.000 A 
ATOM      6  C   UNL     1       6.938   4.592  16.603  0.00  0.00    +0.000 A 
ATOM      7  C   UNL     1       6.086   4.279  17.657  0.00  0.00    +0.000 A 
ATOM      8  C   UNL     1       5.026   5.143  18.006  0.00  0.00    +0.000 A 
ATOM      9  C   UNL     1       4.148   4.810  19.136  0.00  0.00    +0.000 C 
ATOM     10  O   UNL     1       4.301   3.713  19.640  0.00  0.00    +0.000 OA
ATOM     11  C   UNL     1       3.099   5.774  19.637  0.00  0.00    +0.000 A 
ATOM     12  C   UNL     1       2.372   5.538  20.862  0.00  0.00    +0.000 A 
ATOM     13  C   UNL     1       1.408   6.461  21.253  0.00  0.00    +0.000 A 
ATOM     14  C   UNL     1       1.163   7.597  20.535  0.00  0.00    +0.000 A 
ATOM     15  C   UNL     1       1.856   7.916  19.355  0.00  0.00    +0.000 A 
ATOM     16  C   UNL     1       2.850   6.978  18.879  0.00  0.00    +0.000 A 
ENDROOT
BRANCH  12  17
ATOM     17  N   UNL     1       2.619   4.425  21.741  0.00  0.00    +0.000 N 
ATOM     18  H   UNL     1       3.398   4.425  22.394  0.00  0.00    +0.000 HD
BRANCH  17  19
ATOM     19  C   UNL     1       1.746   3.266  21.844  0.00  0.00    +0.000 C 
BRANCH  19  20
ATOM     20  C   UNL     1       1.108   2.962  20.486  0.00  0.00    +0.000 C 
BRANCH  20  21
ATOM     21  N   UNL     1       1.910   1.997  19.732  0.00  0.00    +0.000 NA
ATOM     22  H   UNL     1       1.750   1.044  20.137  0.00  0.00    +0.000 HD
BRANCH  21  23
ATOM     23  C   UNL     1       1.478   1.989  18.331  0.00  0.00    +0.000 C 
BRANCH  23  24
ATOM     24  C   UNL     1       2.670   2.206  17.403  0.00  0.00    +0.000 C 
BRANCH  24  25
ATOM     25  O   UNL     1       3.776   1.477  17.856  0.00  0.00    +0.000 OA
ATOM     26  H   UNL     1       3.432   0.589  18.140  0.00  0.00    +0.000 HD
ENDBRANCH  24  25
ENDBRANCH  23  24
ENDBRANCH  21  23
ENDBRANCH  20  21
ENDBRANCH  19  20
ENDBRANCH  17  19
ENDBRANCH  12  17
BRANCH  15  27
ATOM     27  N   UNL     1       1.543   9.185  18.728  0.00  0.00    +0.000 N 
ATOM     28  H   UNL     1       2.008   9.508  17.872  0.00  0.00    +0.000 HD
BRANCH  27  29
ATOM     29  C   UNL     1       0.615  10.103  19.384  0.00  0.00    +0.000 C 
BRANCH  29  30
ATOM     30  C   UNL     1       1.213  11.384  19.965  0.00  0.00    +0.000 C 
BRANCH  30  31
ATOM     31  N   UNL     1       0.727  11.477  21.357  0.00  0.00    +0.000 NA
ATOM     32  H   UNL     1       0.550  12.488  21.578  0.00  0.00    +0.000 HD
BRANCH  31  33
ATOM     33  C   UNL     1      -0.510  10.746  21.645  0.00  0.00    +0.000 C 
BRANCH  33  34
ATOM     34  C   UNL     1      -0.509  10.123  23.044  0.00  0.00    +0.000 C 
BRANCH  34  35
ATOM     35  O   UNL     1       0.768   9.658  23.387  0.00  0.00    +0.000 OA
ATOM     36  H   UNL     1       1.177   9.299  22.556  0.00  0.00    +0.000 HD
ENDBRANCH  34  35
ENDBRANCH  33  34
ENDBRANCH  31  33
ENDBRANCH  30  31
ENDBRANCH  29  30
ENDBRANCH  27  29
ENDBRANCH  15  27
TORSDOF 14
ENDMDL
MODEL 8
REMARK VINA RESULT:      -6.2      3.049      6.933
REMARK  Name = 
REMARK  14 active torsions:
REMARK  status: ('A' for Active; 'I' for Inactive)
REMARK    1  A    between atoms: C_12  and  N_13
REMARK    2  A    between atoms: N_13  and  C_14
REMARK    3  A    between atoms: C_14  and  C_15
REMARK    4  A    between atoms: C_15  and  N_16
REMARK    5  A    between atoms: N_16  and  C_17
REMARK    6  A    between atoms: C_17  and  C_18
REMARK    7  A    between atoms: C_18  and  O_19
REMARK    8  A    between atoms: C_22  and  N_23
REMARK    9  A    between atoms: N_23  and  C_24
REMARK   10  A    between atoms: C_24  and  C_25
REMARK   11  A    between atoms: C_25  and  N_26
REMARK   12  A    between atoms: N_26  and  C_27
REMARK   13  A    between atoms: C_27  and  C_28
REMARK   14  A    between atoms: C_28  and  O_29
REMARK                            x       y       z     vdW  Elec       q    Type
REMARK                         _______ _______ _______ _____ _____    ______ ____
ROOT
ATOM      1  O   UNL     1       2.120   6.839  19.927  0.00  0.00    +0.000 OA
ATOM      2  C   UNL     1       2.628   5.899  19.344  0.00  0.00    +0.000 C 
ATOM      3  C   UNL     1       2.326   4.529  19.834  0.00  0.00    +0.000 A 
ATOM      4  C   UNL     1       1.429   4.314  20.905  0.00  0.00    +0.000 A 
ATOM      5  C   UNL     1       1.135   3.015  21.342  0.00  0.00    +0.000 A 
ATOM      6  C   UNL     1       1.736   1.920  20.727  0.00  0.00    +0.000 A 
ATOM      7  C   UNL     1       2.628   2.118  19.679  0.00  0.00    +0.000 A 
ATOM      8  C   UNL     1       2.923   3.419  19.221  0.00  0.00    +0.000 A 
ATOM      9  C   UNL     1       3.850   3.611  18.098  0.00  0.00    +0.000 C 
ATOM     10  O   UNL     1       4.434   2.621  17.698  0.00  0.00    +0.000 OA
ATOM     11  C   UNL     1       4.079   4.970  17.481  0.00  0.00    +0.000 A 
ATOM     12  C   UNL     1       4.831   5.135  16.258  0.00  0.00    +0.000 A 
ATOM     13  C   UNL     1       5.015   6.418  15.758  0.00  0.00    +0.000 A 
ATOM     14  C   UNL     1       4.473   7.516  16.364  0.00  0.00    +0.000 A 
ATOM     15  C   UNL     1       3.698   7.433  17.533  0.00  0.00    +0.000 A 
ATOM     16  C   UNL     1       3.496   6.126  18.121  0.00  0.00    +0.000 A 
ENDROOT
BRANCH  12  17
ATOM     17  N   UNL     1       5.362   4.040  15.489  0.00  0.00    +0.000 N 
ATOM     18  H   UNL     1       4.882   3.145  15.435  0.00  0.00    +0.000 HD
BRANCH  17  19
ATOM     19  C   UNL     1       6.554   4.137  14.661  0.00  0.00    +0.000 C 
BRANCH  19  20
ATOM     20  C   UNL     1       6.171   4.119  13.179  0.00  0.00    +0.000 C 
BRANCH  20  21
ATOM     21  N   UNL     1       6.564   2.857  12.550  0.00  0.00    +0.000 NA
ATOM     22  H   UNL     1       6.744   2.152  13.304  0.00  0.00    +0.000 HD
BRANCH  21  23
ATOM     23  C   UNL     1       5.469   2.369  11.705  0.00  0.00    +0.000 C 
BRANCH  23  24
ATOM     24  C   UNL     1       4.371   3.423  11.593  0.00  0.00    +0.000 C 
BRANCH  24  25
ATOM     25  O   UNL     1       3.431   3.043  10.626  0.00  0.00    +0.000 OA
ATOM     26  H   UNL     1       2.564   2.942  11.100  0.00  0.00    +0.000 HD
ENDBRANCH  24  25
ENDBRANCH  23  24
ENDBRANCH  21  23
ENDBRANCH  20  21
ENDBRANCH  19  20
ENDBRANCH  17  19
ENDBRANCH  12  17
BRANCH  15  27
ATOM     27  N   UNL     1       3.128   8.668  18.036  0.00  0.00    +0.000 N 
ATOM     28  H   UNL     1       3.590   9.238  18.754  0.00  0.00    +0.000 HD
BRANCH  27  29
ATOM     29  C   UNL     1       1.794   9.075  17.601  0.00  0.00    +0.000 C 
BRANCH  29  30
ATOM     30  C   UNL     1       0.996   9.951  18.565  0.00  0.00    +0.000 C 
BRANCH  30  31
ATOM     31  N   UNL     1       1.106  11.336  18.061  0.00  0.00    +0.000 NA
ATOM     32  H   UNL     1       0.499  11.426  17.209  0.00  0.00    +0.000 HD
BRANCH  31  33
ATOM     33  C   UNL     1       0.695  12.384  19.000  0.00  0.00    +0.000 C 
BRANCH  33  34
ATOM     34  C   UNL     1      -0.687  12.956  18.670  0.00  0.00    +0.000 C 
BRANCH  34  35
ATOM     35  O   UNL     1      -1.040  12.684  17.341  0.00  0.00    +0.000 OA
ATOM     36  H   UNL     1      -0.364  12.047  16.988  0.00  0.00    +0.000 HD
ENDBRANCH  34  35
ENDBRANCH  33  34
ENDBRANCH  31  33
ENDBRANCH  30  31
ENDBRANCH  29  30
ENDBRANCH  27  29
ENDBRANCH  15  27
TORSDOF 14
ENDMDL
MODEL 9
REMARK VINA RESULT:      -6.1      2.645      6.852
REMARK  Name = 
REMARK  14 active torsions:
REMARK  status: ('A' for Active; 'I' for Inactive)
REMARK    1  A    between atoms: C_12  and  N_13
REMARK    2  A    between atoms: N_13  and  C_14
REMARK    3  A    between atoms: C_14  and  C_15
REMARK    4  A    between atoms: C_15  and  N_16
REMARK    5  A    between atoms: N_16  and  C_17
REMARK    6  A    between atoms: C_17  and  C_18
REMARK    7  A    between atoms: C_18  and  O_19
REMARK    8  A    between atoms: C_22  and  N_23
REMARK    9  A    between atoms: N_23  and  C_24
REMARK   10  A    between atoms: C_24  and  C_25
REMARK   11  A    between atoms: C_25  and  N_26
REMARK   12  A    between atoms: N_26  and  C_27
REMARK   13  A    between atoms: C_27  and  C_28
REMARK   14  A    between atoms: C_28  and  O_29
REMARK                            x       y       z     vdW  Elec       q    Type
REMARK                         _______ _______ _______ _____ _____    ______ ____
ROOT
ATOM      1  O   UNL     1       4.526   3.829  19.563  0.00  0.00    +0.000 OA
ATOM      2  C   UNL     1       4.245   4.839  18.945  0.00  0.00    +0.000 C 
ATOM      3  C   UNL     1       4.880   5.042  17.617  0.00  0.00    +0.000 A 
ATOM      4  C   UNL     1       5.739   4.069  17.058  0.00  0.00    +0.000 A 
ATOM      5  C   UNL     1       6.313   4.263  15.794  0.00  0.00    +0.000 A 
ATOM      6  C   UNL     1       6.050   5.429  15.080  0.00  0.00    +0.000 A 
ATOM      7  C   UNL     1       5.215   6.400  15.623  0.00  0.00    +0.000 A 
ATOM      8  C   UNL     1       4.620   6.211  16.889  0.00  0.00    +0.000 A 
ATOM      9  C   UNL     1       3.722   7.235  17.440  0.00  0.00    +0.000 C 
ATOM     10  O   UNL     1       3.643   8.280  16.820  0.00  0.00    +0.000 OA
ATOM     11  C   UNL     1       2.950   7.010  18.717  0.00  0.00    +0.000 A 
ATOM     12  C   UNL     1       1.922   7.924  19.157  0.00  0.00    +0.000 A 
ATOM     13  C   UNL     1       1.264   7.661  20.353  0.00  0.00    +0.000 A 
ATOM     14  C   UNL     1       1.533   6.546  21.096  0.00  0.00    +0.000 A 
ATOM     15  C   UNL     1       2.490   5.591  20.715  0.00  0.00    +0.000 A 
ATOM     16  C   UNL     1       3.232   5.825  19.494  0.00  0.00    +0.000 A 
ENDROOT
BRANCH  12  17
ATOM     17  N   UNL     1       1.495   9.074  18.404  0.00  0.00    +0.000 N 
ATOM     18  H   UNL     1       1.855   9.264  17.472  0.00  0.00    +0.000 HD
BRANCH  17  19
ATOM     19  C   UNL     1       0.463   9.996  18.852  0.00  0.00    +0.000 C 
BRANCH  19  20
ATOM     20  C   UNL     1      -0.645  10.101  17.801  0.00  0.00    +0.000 C 
BRANCH  20  21
ATOM     21  N   UNL     1      -1.933  10.413  18.424  0.00  0.00    +0.000 NA
ATOM     22  H   UNL     1      -2.056  11.453  18.429  0.00  0.00    +0.000 HD
BRANCH  21  23
ATOM     23  C   UNL     1      -3.015   9.817  17.634  0.00  0.00    +0.000 C 
BRANCH  23  24
ATOM     24  C   UNL     1      -4.055  10.874  17.270  0.00  0.00    +0.000 C 
BRANCH  24  25
ATOM     25  O   UNL     1      -5.181  10.751  18.095  0.00  0.00    +0.000 OA
ATOM     26  H   UNL     1      -4.997  11.295  18.906  0.00  0.00    +0.000 HD
ENDBRANCH  24  25
ENDBRANCH  23  24
ENDBRANCH  21  23
ENDBRANCH  20  21
ENDBRANCH  19  20
ENDBRANCH  17  19
ENDBRANCH  12  17
BRANCH  15  27
ATOM     27  N   UNL     1       2.630   4.422  21.561  0.00  0.00    +0.000 N 
ATOM     28  H   UNL     1       3.460   4.256  22.142  0.00  0.00    +0.000 HD
BRANCH  27  29
ATOM     29  C   UNL     1       1.614   3.373  21.514  0.00  0.00    +0.000 C 
BRANCH  29  30
ATOM     30  C   UNL     1       1.035   3.040  20.140  0.00  0.00    +0.000 C 
BRANCH  30  31
ATOM     31  N   UNL     1       1.932   2.029  19.543  0.00  0.00    +0.000 NA
ATOM     32  H   UNL     1       1.578   1.077  19.808  0.00  0.00    +0.000 HD
BRANCH  31  33
ATOM     33  C   UNL     1       2.036   2.063  18.081  0.00  0.00    +0.000 C 
BRANCH  33  34
ATOM     34  C   UNL     1       3.400   1.578  17.581  0.00  0.00    +0.000 C 
BRANCH  34  35
ATOM     35  O   UNL     1       4.096   0.903  18.594  0.00  0.00    +0.000 OA
ATOM     36  H   UNL     1       3.415   0.533  19.214  0.00  0.00    +0.000 HD
ENDBRANCH  34  35
ENDBRANCH  33  34
ENDBRANCH  31  33
ENDBRANCH  30  31
ENDBRANCH  29  30
ENDBRANCH  27  29
ENDBRANCH  15  27
TORSDOF 14
ENDMDL
