MODEL 1
REMARK VINA RESULT:      -9.2      0.000      0.000
REMARK  Name = 
REMARK  5 active torsions:
REMARK  status: ('A' for Active; 'I' for Inactive)
REMARK    1  A    between atoms: C_2  and  C_3
REMARK    2  A    between atoms: C_6  and  N_7
REMARK    3  A    between atoms: N_10  and  N_11
REMARK    4  A    between atoms: C_12  and  C_14
REMARK    5  A    between atoms: N_20  and  C_21
REMARK                            x       y       z     vdW  Elec       q    Type
REMARK                         _______ _______ _______ _____ _____    ______ ____
ROOT
ATOM      1  N   UNL     1       7.739   6.879  18.427  0.00  0.00    +0.000 N 
ATOM      2  C   UNL     1       7.810   5.560  18.837  0.00  0.00    +0.000 C 
ATOM      3  O   UNL     1       8.560   5.183  19.736  0.00  0.00    +0.000 OA
ATOM      4  H   UNL     1       7.262   7.186  17.577  0.00  0.00    +0.000 HD
ENDROOT
BRANCH   2   5
ATOM      5  C   UNL     1       6.883   4.619  18.090  0.00  0.00    +0.000 C 
ATOM      6  C   UNL     1       6.621   5.090  16.697  0.00  0.00    +0.000 C 
ATOM      7  O   UNL     1       7.465   5.643  15.997  0.00  0.00    +0.000 OA
ATOM      8  N   UNL     1       5.405   4.767  16.172  0.00  0.00    +0.000 N 
ATOM      9  C   UNL     1       4.292   4.368  16.858  0.00  0.00    +0.000 C 
ATOM     10  O   UNL     1       3.251   4.216  16.221  0.00  0.00    +0.000 OA
ATOM     11  N   UNL     1       4.435   4.235  18.234  0.00  0.00    +0.000 N 
ATOM     12  C   UNL     1       5.654   4.331  18.907  0.00  0.00    +0.000 C 
ATOM     13  O   UNL     1       5.790   4.071  20.108  0.00  0.00    +0.000 OA
ATOM     14  H   UNL     1       5.245   5.025  15.206  0.00  0.00    +0.000 HD
BRANCH  11  15
ATOM     15  C   UNL     1       3.257   3.987  19.010  0.00  0.00    +0.000 A 
ATOM     16  C   UNL     1       2.571   5.028  19.649  0.00  0.00    +0.000 A 
ATOM     17  C   UNL     1       1.420   4.759  20.395  0.00  0.00    +0.000 A 
ATOM     18  C   UNL     1       0.971   3.447  20.541  0.00  0.00    +0.000 A 
ATOM     19  C   UNL     1       1.662   2.404  19.930  0.00  0.00    +0.000 A 
ATOM     20  C   UNL     1       2.790   2.673  19.153  0.00  0.00    +0.000 A 
ENDBRANCH  11  15
ENDBRANCH   2   5
BRANCH   1  24
ATOM     21  N   UNL     1       9.342  10.043  19.028  0.00  0.00    +0.000 N 
ATOM     22  C   UNL     1       8.632   9.072  18.350  0.00  0.00    +0.000 C 
ATOM     23  O   UNL     1       8.114   9.182  17.240  0.00  0.00    +0.000 OA
ATOM     24  N   UNL     1       8.560   7.861  19.028  0.00  0.00    +0.000 N 
ATOM     25  H   UNL     1       9.714   9.783  19.930  0.00  0.00    +0.000 HD
ATOM     26  H   UNL     1       8.644   7.801  20.038  0.00  0.00    +0.000 HD
BRANCH  21  30
ATOM     27  C   UNL     1      10.277  13.941  17.610  0.00  0.00    +0.000 A 
ATOM     28  C   UNL     1       9.174  13.752  18.441  0.00  0.00    +0.000 A 
ATOM     29  C   UNL     1       8.851  12.473  18.916  0.00  0.00    +0.000 A 
ATOM     30  C   UNL     1       9.622  11.358  18.574  0.00  0.00    +0.000 A 
ATOM     31  C   UNL     1      10.727  11.554  17.733  0.00  0.00    +0.000 A 
ATOM     32  C   UNL     1      11.054  12.834  17.255  0.00  0.00    +0.000 A 
BRANCH  27  34
ATOM     33  N   UNL     1      10.860  16.319  16.744  0.00  0.00    +0.000 NA
ATOM     34  C   UNL     1      10.607  15.255  17.134  0.00  0.00    +0.000 C 
ENDBRANCH  27  34
ENDBRANCH  21  30
ENDBRANCH   1  24
TORSDOF 5
ENDMDL
MODEL 2
REMARK VINA RESULT:      -8.4      0.808      1.070
REMARK  Name = 
REMARK  5 active torsions:
REMARK  status: ('A' for Active; 'I' for Inactive)
REMARK    1  A    between atoms: C_2  and  C_3
REMARK    2  A    between atoms: C_6  and  N_7
REMARK    3  A    between atoms: N_10  and  N_11
REMARK    4  A    between atoms: C_12  and  C_14
REMARK    5  A    between atoms: N_20  and  C_21
REMARK                            x       y       z     vdW  Elec       q    Type
REMARK                         _______ _______ _______ _____ _____    ______ ____
ROOT
ATOM      1  N   UNL     1       7.920   6.873  18.413  0.00  0.00    +0.000 N 
ATOM      2  C   UNL     1       7.803   5.608  18.961  0.00  0.00    +0.000 C 
ATOM      3  O   UNL     1       8.394   5.270  19.985  0.00  0.00    +0.000 OA
ATOM      4  H   UNL     1       7.586   7.124  17.481  0.00  0.00    +0.000 HD
ENDROOT
BRANCH   2   5
ATOM      5  C   UNL     1       6.883   4.676  18.195  0.00  0.00    +0.000 C 
ATOM      6  C   UNL     1       6.631   5.163  16.806  0.00  0.00    +0.000 C 
ATOM      7  O   UNL     1       7.480   5.725  16.119  0.00  0.00    +0.000 OA
ATOM      8  N   UNL     1       5.420   4.846  16.268  0.00  0.00    +0.000 N 
ATOM      9  C   UNL     1       4.302   4.437  16.940  0.00  0.00    +0.000 C 
ATOM     10  O   UNL     1       3.265   4.293  16.294  0.00  0.00    +0.000 OA
ATOM     11  N   UNL     1       4.434   4.288  18.316  0.00  0.00    +0.000 N 
ATOM     12  C   UNL     1       5.648   4.377  18.999  0.00  0.00    +0.000 C 
ATOM     13  O   UNL     1       5.775   4.103  20.198  0.00  0.00    +0.000 OA
ATOM     14  H   UNL     1       5.266   5.115  15.304  0.00  0.00    +0.000 HD
BRANCH  11  15
ATOM     15  C   UNL     1       3.251   4.030  19.080  0.00  0.00    +0.000 A 
ATOM     16  C   UNL     1       2.557   5.064  19.723  0.00  0.00    +0.000 A 
ATOM     17  C   UNL     1       1.400   4.785  20.456  0.00  0.00    +0.000 A 
ATOM     18  C   UNL     1       0.953   3.471  20.587  0.00  0.00    +0.000 A 
ATOM     19  C   UNL     1       1.652   2.434  19.973  0.00  0.00    +0.000 A 
ATOM     20  C   UNL     1       2.785   2.713  19.207  0.00  0.00    +0.000 A 
ENDBRANCH  11  15
ENDBRANCH   2   5
BRANCH   1  24
ATOM     21  N   UNL     1       9.293  10.076  19.308  0.00  0.00    +0.000 N 
ATOM     22  C   UNL     1       8.542   9.151  18.610  0.00  0.00    +0.000 C 
ATOM     23  O   UNL     1       7.764   9.383  17.687  0.00  0.00    +0.000 OA
ATOM     24  N   UNL     1       8.758   7.840  19.017  0.00  0.00    +0.000 N 
ATOM     25  H   UNL     1       9.895   9.714  20.033  0.00  0.00    +0.000 HD
ATOM     26  H   UNL     1       9.089   7.610  19.949  0.00  0.00    +0.000 HD
BRANCH  21  30
ATOM     27  C   UNL     1       9.387  14.294  18.781  0.00  0.00    +0.000 A 
ATOM     28  C   UNL     1       9.272  13.460  17.670  0.00  0.00    +0.000 A 
ATOM     29  C   UNL     1       9.240  12.067  17.826  0.00  0.00    +0.000 A 
ATOM     30  C   UNL     1       9.321  11.479  19.092  0.00  0.00    +0.000 A 
ATOM     31  C   UNL     1       9.444  12.323  20.205  0.00  0.00    +0.000 A 
ATOM     32  C   UNL     1       9.475  13.720  20.052  0.00  0.00    +0.000 A 
BRANCH  27  34
ATOM     33  N   UNL     1       9.426  16.871  18.465  0.00  0.00    +0.000 NA
ATOM     34  C   UNL     1       9.410  15.720  18.614  0.00  0.00    +0.000 C 
ENDBRANCH  27  34
ENDBRANCH  21  30
ENDBRANCH   1  24
TORSDOF 5
ENDMDL
MODEL 3
REMARK VINA RESULT:      -8.3      1.080      1.170
REMARK  Name = 
REMARK  5 active torsions:
REMARK  status: ('A' for Active; 'I' for Inactive)
REMARK    1  A    between atoms: C_2  and  C_3
REMARK    2  A    between atoms: C_6  and  N_7
REMARK    3  A    between atoms: N_10  and  N_11
REMARK    4  A    between atoms: C_12  and  C_14
REMARK    5  A    between atoms: N_20  and  C_21
REMARK                            x       y       z     vdW  Elec       q    Type
REMARK                         _______ _______ _______ _____ _____    ______ ____
ROOT
ATOM      1  N   UNL     1       7.181   6.062  18.202  0.00  0.00    +0.000 N 
ATOM      2  C   UNL     1       7.478   4.761  17.839  0.00  0.00    +0.000 C 
ATOM      3  O   UNL     1       8.616   4.297  17.899  0.00  0.00    +0.000 OA
ATOM      4  H   UNL     1       6.292   6.522  17.998  0.00  0.00    +0.000 HD
ENDROOT
BRANCH   2   5
ATOM      5  C   UNL     1       6.284   3.953  17.365  0.00  0.00    +0.000 C 
ATOM      6  C   UNL     1       5.720   4.494  16.092  0.00  0.00    +0.000 C 
ATOM      7  O   UNL     1       6.407   4.970  15.193  0.00  0.00    +0.000 OA
ATOM      8  N   UNL     1       4.380   4.326  15.909  0.00  0.00    +0.000 N 
ATOM      9  C   UNL     1       3.449   4.032  16.866  0.00  0.00    +0.000 C 
ATOM     10  O   UNL     1       2.266   4.017  16.529  0.00  0.00    +0.000 OA
ATOM     11  N   UNL     1       3.934   3.841  18.155  0.00  0.00    +0.000 N 
ATOM     12  C   UNL     1       5.290   3.779  18.479  0.00  0.00    +0.000 C 
ATOM     13  O   UNL     1       5.707   3.468  19.601  0.00  0.00    +0.000 OA
ATOM     14  H   UNL     1       4.001   4.629  15.021  0.00  0.00    +0.000 HD
BRANCH  11  15
ATOM     15  C   UNL     1       2.982   3.702  19.216  0.00  0.00    +0.000 A 
ATOM     16  C   UNL     1       2.543   4.810  19.952  0.00  0.00    +0.000 A 
ATOM     17  C   UNL     1       1.608   4.648  20.978  0.00  0.00    +0.000 A 
ATOM     18  C   UNL     1       1.138   3.376  21.303  0.00  0.00    +0.000 A 
ATOM     19  C   UNL     1       1.589   2.266  20.593  0.00  0.00    +0.000 A 
ATOM     20  C   UNL     1       2.493   2.429  19.542  0.00  0.00    +0.000 A 
ENDBRANCH  11  15
ENDBRANCH   2   5
BRANCH   1  24
ATOM     21  N   UNL     1       9.022   9.095  18.800  0.00  0.00    +0.000 N 
ATOM     22  C   UNL     1       8.076   8.255  18.246  0.00  0.00    +0.000 C 
ATOM     23  O   UNL     1       7.197   8.568  17.443  0.00  0.00    +0.000 OA
ATOM     24  N   UNL     1       8.204   6.932  18.649  0.00  0.00    +0.000 N 
ATOM     25  H   UNL     1       9.683   8.673  19.435  0.00  0.00    +0.000 HD
ATOM     26  H   UNL     1       8.644   6.674  19.527  0.00  0.00    +0.000 HD
BRANCH  21  30
ATOM     27  C   UNL     1       9.572  13.255  18.114  0.00  0.00    +0.000 A 
ATOM     28  C   UNL     1       8.511  12.588  17.506  0.00  0.00    +0.000 A 
ATOM     29  C   UNL     1       8.315  11.216  17.721  0.00  0.00    +0.000 A 
ATOM     30  C   UNL     1       9.174  10.483  18.547  0.00  0.00    +0.000 A 
ATOM     31  C   UNL     1      10.244  11.159  19.151  0.00  0.00    +0.000 A 
ATOM     32  C   UNL     1      10.442  12.534  18.938  0.00  0.00    +0.000 A 
BRANCH  27  34
ATOM     33  N   UNL     1       9.924  15.799  17.730  0.00  0.00    +0.000 NA
ATOM     34  C   UNL     1       9.761  14.662  17.897  0.00  0.00    +0.000 C 
ENDBRANCH  27  34
ENDBRANCH  21  30
ENDBRANCH   1  24
TORSDOF 5
ENDMDL
MODEL 4
REMARK VINA RESULT:      -8.3      1.830      2.256
REMARK  Name = 
REMARK  5 active torsions:
REMARK  status: ('A' for Active; 'I' for Inactive)
REMARK    1  A    between atoms: C_2  and  C_3
REMARK    2  A    between atoms: C_6  and  N_7
REMARK    3  A    between atoms: N_10  and  N_11
REMARK    4  A    between atoms: C_12  and  C_14
REMARK    5  A    between atoms: N_20  and  C_21
REMARK                            x       y       z     vdW  Elec       q    Type
REMARK                         _______ _______ _______ _____ _____    ______ ____
ROOT
ATOM      1  N   UNL     1       7.215   7.148  17.388  0.00  0.00    +0.000 N 
ATOM      2  C   UNL     1       6.110   6.457  16.926  0.00  0.00    +0.000 C 
ATOM      3  O   UNL     1       5.259   6.971  16.201  0.00  0.00    +0.000 OA
ATOM      4  H   UNL     1       7.836   6.804  18.123  0.00  0.00    +0.000 HD
ENDROOT
BRANCH   2   5
ATOM      5  C   UNL     1       6.037   5.012  17.383  0.00  0.00    +0.000 C 
ATOM      6  C   UNL     1       5.892   4.073  16.231  0.00  0.00    +0.000 C 
ATOM      7  O   UNL     1       6.440   4.241  15.144  0.00  0.00    +0.000 OA
ATOM      8  N   UNL     1       5.201   2.923  16.475  0.00  0.00    +0.000 N 
ATOM      9  C   UNL     1       4.357   2.677  17.521  0.00  0.00    +0.000 C 
ATOM     10  O   UNL     1       3.740   1.613  17.523  0.00  0.00    +0.000 OA
ATOM     11  N   UNL     1       4.227   3.697  18.458  0.00  0.00    +0.000 N 
ATOM     12  C   UNL     1       5.009   4.853  18.468  0.00  0.00    +0.000 C 
ATOM     13  O   UNL     1       4.982   5.684  19.384  0.00  0.00    +0.000 OA
ATOM     14  H   UNL     1       5.155   2.252  15.719  0.00  0.00    +0.000 HD
BRANCH  11  15
ATOM     15  C   UNL     1       3.228   3.553  19.473  0.00  0.00    +0.000 A 
ATOM     16  C   UNL     1       3.484   2.844  20.654  0.00  0.00    +0.000 A 
ATOM     17  C   UNL     1       2.493   2.723  21.633  0.00  0.00    +0.000 A 
ATOM     18  C   UNL     1       1.229   3.273  21.421  0.00  0.00    +0.000 A 
ATOM     19  C   UNL     1       0.958   3.957  20.238  0.00  0.00    +0.000 A 
ATOM     20  C   UNL     1       1.958   4.113  19.276  0.00  0.00    +0.000 A 
ENDBRANCH  11  15
ENDBRANCH   2   5
BRANCH   1  24
ATOM     21  N   UNL     1       8.466  10.520  17.493  0.00  0.00    +0.000 N 
ATOM     22  C   UNL     1       8.209   9.232  17.920  0.00  0.00    +0.000 C 
ATOM     23  O   UNL     1       8.595   8.715  18.967  0.00  0.00    +0.000 OA
ATOM     24  N   UNL     1       7.401   8.509  17.050  0.00  0.00    +0.000 N 
ATOM     25  H   UNL     1       8.061  10.791  16.609  0.00  0.00    +0.000 HD
ATOM     26  H   UNL     1       7.344   8.725  16.060  0.00  0.00    +0.000 HD
BRANCH  21  30
ATOM     27  C   UNL     1      10.635  13.555  19.532  0.00  0.00    +0.000 A 
ATOM     28  C   UNL     1      11.148  12.261  19.470  0.00  0.00    +0.000 A 
ATOM     29  C   UNL     1      10.445  11.248  18.802  0.00  0.00    +0.000 A 
ATOM     30  C   UNL     1       9.218  11.506  18.183  0.00  0.00    +0.000 A 
ATOM     31  C   UNL     1       8.704  12.809  18.255  0.00  0.00    +0.000 A 
ATOM     32  C   UNL     1       9.406  13.827  18.922  0.00  0.00    +0.000 A 
BRANCH  27  34
ATOM     33  N   UNL     1      11.948  15.436  20.750  0.00  0.00    +0.000 NA
ATOM     34  C   UNL     1      11.365  14.590  20.210  0.00  0.00    +0.000 C 
ENDBRANCH  27  34
ENDBRANCH  21  30
ENDBRANCH   1  24
TORSDOF 5
ENDMDL
MODEL 5
REMARK VINA RESULT:      -7.8      5.846      8.445
REMARK  Name = 
REMARK  5 active torsions:
REMARK  status: ('A' for Active; 'I' for Inactive)
REMARK    1  A    between atoms: C_2  and  C_3
REMARK    2  A    between atoms: C_6  and  N_7
REMARK    3  A    between atoms: N_10  and  N_11
REMARK    4  A    between atoms: C_12  and  C_14
REMARK    5  A    between atoms: N_20  and  C_21
REMARK                            x       y       z     vdW  Elec       q    Type
REMARK                         _______ _______ _______ _____ _____    ______ ____
ROOT
ATOM      1  N   UNL     1       1.581   7.035  20.298  0.00  0.00    +0.000 N 
ATOM      2  C   UNL     1       1.918   5.720  20.561  0.00  0.00    +0.000 C 
ATOM      3  O   UNL     1       2.179   5.313  21.692  0.00  0.00    +0.000 OA
ATOM      4  H   UNL     1       1.532   7.435  19.359  0.00  0.00    +0.000 HD
ENDROOT
BRANCH   2   5
ATOM      5  C   UNL     1       1.934   4.820  19.339  0.00  0.00    +0.000 C 
ATOM      6  C   UNL     1       1.711   3.389  19.703  0.00  0.00    +0.000 C 
ATOM      7  O   UNL     1       0.953   3.025  20.598  0.00  0.00    +0.000 OA
ATOM      8  N   UNL     1       2.308   2.464  18.899  0.00  0.00    +0.000 N 
ATOM      9  C   UNL     1       3.336   2.677  18.023  0.00  0.00    +0.000 C 
ATOM     10  O   UNL     1       3.816   1.697  17.454  0.00  0.00    +0.000 OA
ATOM     11  N   UNL     1       3.785   3.988  17.911  0.00  0.00    +0.000 N 
ATOM     12  C   UNL     1       3.157   5.083  18.506  0.00  0.00    +0.000 C 
ATOM     13  O   UNL     1       3.481   6.256  18.285  0.00  0.00    +0.000 OA
ATOM     14  H   UNL     1       2.109   1.492  19.098  0.00  0.00    +0.000 HD
BRANCH  11  15
ATOM     15  C   UNL     1       4.966   4.229  17.138  0.00  0.00    +0.000 A 
ATOM     16  C   UNL     1       6.212   4.420  17.750  0.00  0.00    +0.000 A 
ATOM     17  C   UNL     1       7.351   4.647  16.972  0.00  0.00    +0.000 A 
ATOM     18  C   UNL     1       7.247   4.725  15.584  0.00  0.00    +0.000 A 
ATOM     19  C   UNL     1       6.008   4.561  14.969  0.00  0.00    +0.000 A 
ATOM     20  C   UNL     1       4.875   4.296  15.741  0.00  0.00    +0.000 A 
ENDBRANCH  11  15
ENDBRANCH   2   5
BRANCH   1  24
ATOM     21  N   UNL     1       0.535   9.861  22.266  0.00  0.00    +0.000 N 
ATOM     22  C   UNL     1       0.631   9.022  21.173  0.00  0.00    +0.000 C 
ATOM     23  O   UNL     1       0.027   9.134  20.107  0.00  0.00    +0.000 OA
ATOM     24  N   UNL     1       1.542   7.987  21.344  0.00  0.00    +0.000 N 
ATOM     25  H   UNL     1       1.113   9.632  23.061  0.00  0.00    +0.000 HD
ATOM     26  H   UNL     1       1.795   7.637  22.263  0.00  0.00    +0.000 HD
BRANCH  21  30
ATOM     27  C   UNL     1      -1.959  13.281  22.657  0.00  0.00    +0.000 A 
ATOM     28  C   UNL     1      -0.807  13.350  21.876  0.00  0.00    +0.000 A 
ATOM     29  C   UNL     1       0.027  12.232  21.737  0.00  0.00    +0.000 A 
ATOM     30  C   UNL     1      -0.272  11.023  22.373  0.00  0.00    +0.000 A 
ATOM     31  C   UNL     1      -1.430  10.962  23.163  0.00  0.00    +0.000 A 
ATOM     32  C   UNL     1      -2.268  12.080  23.303  0.00  0.00    +0.000 A 
BRANCH  27  34
ATOM     33  N   UNL     1      -3.507  15.354  22.880  0.00  0.00    +0.000 NA
ATOM     34  C   UNL     1      -2.814  14.428  22.788  0.00  0.00    +0.000 C 
ENDBRANCH  27  34
ENDBRANCH  21  30
ENDBRANCH   1  24
TORSDOF 5
ENDMDL
MODEL 6
REMARK VINA RESULT:      -7.7      5.375      7.350
REMARK  Name = 
REMARK  5 active torsions:
REMARK  status: ('A' for Active; 'I' for Inactive)
REMARK    1  A    between atoms: C_2  and  C_3
REMARK    2  A    between atoms: C_6  and  N_7
REMARK    3  A    between atoms: N_10  and  N_11
REMARK    4  A    between atoms: C_12  and  C_14
REMARK    5  A    between atoms: N_20  and  C_21
REMARK                            x       y       z     vdW  Elec       q    Type
REMARK                         _______ _______ _______ _____ _____    ______ ____
ROOT
ATOM      1  N   UNL     1       2.112   6.447  20.848  0.00  0.00    +0.000 N 
ATOM      2  C   UNL     1       1.217   5.441  20.532  0.00  0.00    +0.000 C 
ATOM      3  O   UNL     1       0.008   5.540  20.734  0.00  0.00    +0.000 OA
ATOM      4  H   UNL     1       3.127   6.326  20.854  0.00  0.00    +0.000 HD
ENDROOT
BRANCH   2   5
ATOM      5  C   UNL     1       1.850   4.210  19.911  0.00  0.00    +0.000 C 
ATOM      6  C   UNL     1       2.245   3.209  20.947  0.00  0.00    +0.000 C 
ATOM      7  O   UNL     1       1.595   2.994  21.967  0.00  0.00    +0.000 OA
ATOM      8  N   UNL     1       3.326   2.432  20.652  0.00  0.00    +0.000 N 
ATOM      9  C   UNL     1       4.277   2.674  19.700  0.00  0.00    +0.000 C 
ATOM     10  O   UNL     1       5.240   1.910  19.646  0.00  0.00    +0.000 OA
ATOM     11  N   UNL     1       4.092   3.811  18.923  0.00  0.00    +0.000 N 
ATOM     12  C   UNL     1       2.942   4.602  18.956  0.00  0.00    +0.000 C 
ATOM     13  O   UNL     1       2.729   5.526  18.162  0.00  0.00    +0.000 OA
ATOM     14  H   UNL     1       3.560   1.707  21.318  0.00  0.00    +0.000 HD
BRANCH  11  15
ATOM     15  C   UNL     1       5.146   4.195  18.033  0.00  0.00    +0.000 A 
ATOM     16  C   UNL     1       6.216   4.989  18.470  0.00  0.00    +0.000 A 
ATOM     17  C   UNL     1       7.236   5.345  17.583  0.00  0.00    +0.000 A 
ATOM     18  C   UNL     1       7.175   4.946  16.249  0.00  0.00    +0.000 A 
ATOM     19  C   UNL     1       6.102   4.178  15.801  0.00  0.00    +0.000 A 
ATOM     20  C   UNL     1       5.101   3.788  16.693  0.00  0.00    +0.000 A 
ENDBRANCH  11  15
ENDBRANCH   2   5
BRANCH   1  24
ATOM     21  N   UNL     1       0.899   9.818  21.172  0.00  0.00    +0.000 N 
ATOM     22  C   UNL     1       1.454   8.706  20.571  0.00  0.00    +0.000 C 
ATOM     23  O   UNL     1       1.790   8.599  19.393  0.00  0.00    +0.000 OA
ATOM     24  N   UNL     1       1.660   7.646  21.446  0.00  0.00    +0.000 N 
ATOM     25  H   UNL     1       0.692   9.743  22.158  0.00  0.00    +0.000 HD
ATOM     26  H   UNL     1       1.115   7.532  22.295  0.00  0.00    +0.000 HD
BRANCH  21  30
ATOM     27  C   UNL     1       0.139  13.592  19.367  0.00  0.00    +0.000 A 
ATOM     28  C   UNL     1      -0.717  12.520  19.118  0.00  0.00    +0.000 A 
ATOM     29  C   UNL     1      -0.480  11.269  19.705  0.00  0.00    +0.000 A 
ATOM     30  C   UNL     1       0.613  11.062  20.551  0.00  0.00    +0.000 A 
ATOM     31  C   UNL     1       1.474  12.143  20.792  0.00  0.00    +0.000 A 
ATOM     32  C   UNL     1       1.240  13.398  20.207  0.00  0.00    +0.000 A 
BRANCH  27  34
ATOM     33  N   UNL     1      -0.333  15.904  18.284  0.00  0.00    +0.000 NA
ATOM     34  C   UNL     1      -0.115  14.873  18.769  0.00  0.00    +0.000 C 
ENDBRANCH  27  34
ENDBRANCH  21  30
ENDBRANCH   1  24
TORSDOF 5
ENDMDL
MODEL 7
REMARK VINA RESULT:      -7.7      6.473     10.448
REMARK  Name = 
REMARK  5 active torsions:
REMARK  status: ('A' for Active; 'I' for Inactive)
REMARK    1  A    between atoms: C_2  and  C_3
REMARK    2  A    between atoms: C_6  and  N_7
REMARK    3  A    between atoms: N_10  and  N_11
REMARK    4  A    between atoms: C_12  and  C_14
REMARK    5  A    between atoms: N_20  and  C_21
REMARK                            x       y       z     vdW  Elec       q    Type
REMARK                         _______ _______ _______ _____ _____    ______ ____
ROOT
ATOM      1  N   UNL     1       0.852  10.189  19.901  0.00  0.00    +0.000 N 
ATOM      2  C   UNL     1       0.642  10.854  21.095  0.00  0.00    +0.000 C 
ATOM      3  O   UNL     1       0.800  10.320  22.192  0.00  0.00    +0.000 OA
ATOM      4  H   UNL     1       0.563  10.548  18.990  0.00  0.00    +0.000 HD
ENDROOT
BRANCH   2   5
ATOM      5  C   UNL     1       0.205  12.299  20.939  0.00  0.00    +0.000 C 
ATOM      6  C   UNL     1      -0.993  12.423  20.056  0.00  0.00    +0.000 C 
ATOM      7  O   UNL     1      -1.909  11.604  20.034  0.00  0.00    +0.000 OA
ATOM      8  N   UNL     1      -1.094  13.577  19.337  0.00  0.00    +0.000 N 
ATOM      9  C   UNL     1      -0.095  14.471  19.071  0.00  0.00    +0.000 C 
ATOM     10  O   UNL     1      -0.350  15.408  18.317  0.00  0.00    +0.000 OA
ATOM     11  N   UNL     1       1.145  14.189  19.634  0.00  0.00    +0.000 N 
ATOM     12  C   UNL     1       1.372  13.165  20.554  0.00  0.00    +0.000 C 
ATOM     13  O   UNL     1       2.443  13.014  21.154  0.00  0.00    +0.000 OA
ATOM     14  H   UNL     1      -1.935  13.698  18.788  0.00  0.00    +0.000 HD
BRANCH  11  15
ATOM     15  C   UNL     1       2.259  15.001  19.243  0.00  0.00    +0.000 A 
ATOM     16  C   UNL     1       2.599  16.162  19.949  0.00  0.00    +0.000 A 
ATOM     17  C   UNL     1       3.695  16.933  19.551  0.00  0.00    +0.000 A 
ATOM     18  C   UNL     1       4.432  16.572  18.423  0.00  0.00    +0.000 A 
ATOM     19  C   UNL     1       4.085  15.433  17.701  0.00  0.00    +0.000 A 
ATOM     20  C   UNL     1       3.014  14.640  18.119  0.00  0.00    +0.000 A 
ENDBRANCH  11  15
ENDBRANCH   2   5
BRANCH   1  24
ATOM     21  N   UNL     1       2.527   7.154  18.937  0.00  0.00    +0.000 N 
ATOM     22  C   UNL     1       2.063   8.451  18.840  0.00  0.00    +0.000 C 
ATOM     23  O   UNL     1       2.279   9.241  17.921  0.00  0.00    +0.000 OA
ATOM     24  N   UNL     1       1.249   8.831  19.899  0.00  0.00    +0.000 N 
ATOM     25  H   UNL     1       2.245   6.634  19.755  0.00  0.00    +0.000 HD
ATOM     26  H   UNL     1       1.311   8.392  20.813  0.00  0.00    +0.000 HD
BRANCH  21  30
ATOM     27  C   UNL     1       4.900   5.010  16.135  0.00  0.00    +0.000 A 
ATOM     28  C   UNL     1       5.118   6.372  16.327  0.00  0.00    +0.000 A 
ATOM     29  C   UNL     1       4.344   7.095  17.247  0.00  0.00    +0.000 A 
ATOM     30  C   UNL     1       3.339   6.472  17.993  0.00  0.00    +0.000 A 
ATOM     31  C   UNL     1       3.119   5.102  17.790  0.00  0.00    +0.000 A 
ATOM     32  C   UNL     1       3.894   4.375  16.870  0.00  0.00    +0.000 A 
BRANCH  27  34
ATOM     33  N   UNL     1       6.362   3.682  14.449  0.00  0.00    +0.000 NA
ATOM     34  C   UNL     1       5.702   4.274  15.198  0.00  0.00    +0.000 C 
ENDBRANCH  27  34
ENDBRANCH  21  30
ENDBRANCH   1  24
TORSDOF 5
ENDMDL
MODEL 8
REMARK VINA RESULT:      -7.5      6.343     10.097
REMARK  Name = 
REMARK  5 active torsions:
REMARK  status: ('A' for Active; 'I' for Inactive)
REMARK    1  A    between atoms: C_2  and  C_3
REMARK    2  A    between atoms: C_6  and  N_7
REMARK    3  A    between atoms: N_10  and  N_11
REMARK    4  A    between atoms: C_12  and  C_14
REMARK    5  A    between atoms: N_20  and  C_21
REMARK                            x       y       z     vdW  Elec       q    Type
REMARK                         _______ _______ _______ _____ _____    ______ ____
ROOT
ATOM      1  N   UNL     1       1.148   9.473  19.590  0.00  0.00    +0.000 N 
ATOM      2  C   UNL     1       0.062   9.707  20.414  0.00  0.00    +0.000 C 
ATOM      3  O   UNL     1      -0.386   8.857  21.182  0.00  0.00    +0.000 OA
ATOM      4  H   UNL     1       1.427  10.091  18.826  0.00  0.00    +0.000 HD
ENDROOT
BRANCH   2   5
ATOM      5  C   UNL     1      -0.528  11.100  20.294  0.00  0.00    +0.000 C 
ATOM      6  C   UNL     1      -1.249  11.287  19.000  0.00  0.00    +0.000 C 
ATOM      7  O   UNL     1      -1.905  10.403  18.454  0.00  0.00    +0.000 OA
ATOM      8  N   UNL     1      -1.252  12.551  18.489  0.00  0.00    +0.000 N 
ATOM      9  C   UNL     1      -0.415  13.577  18.829  0.00  0.00    +0.000 C 
ATOM     10  O   UNL     1      -0.500  14.622  18.186  0.00  0.00    +0.000 OA
ATOM     11  N   UNL     1       0.506  13.309  19.835  0.00  0.00    +0.000 N 
ATOM     12  C   UNL     1       0.513  12.141  20.599  0.00  0.00    +0.000 C 
ATOM     13  O   UNL     1       1.244  11.976  21.582  0.00  0.00    +0.000 OA
ATOM     14  H   UNL     1      -1.794  12.699  17.648  0.00  0.00    +0.000 HD
BRANCH  11  15
ATOM     15  C   UNL     1       1.511  14.293  20.104  0.00  0.00    +0.000 A 
ATOM     16  C   UNL     1       2.761  14.252  19.470  0.00  0.00    +0.000 A 
ATOM     17  C   UNL     1       3.722  15.228  19.745  0.00  0.00    +0.000 A 
ATOM     18  C   UNL     1       3.459  16.227  20.682  0.00  0.00    +0.000 A 
ATOM     19  C   UNL     1       2.229  16.260  21.335  0.00  0.00    +0.000 A 
ATOM     20  C   UNL     1       1.252  15.309  21.034  0.00  0.00    +0.000 A 
ENDBRANCH  11  15
ENDBRANCH   2   5
BRANCH   1  24
ATOM     21  N   UNL     1       3.155   6.697  18.489  0.00  0.00    +0.000 N 
ATOM     22  C   UNL     1       2.444   7.879  18.411  0.00  0.00    +0.000 C 
ATOM     23  O   UNL     1       2.331   8.602  17.423  0.00  0.00    +0.000 OA
ATOM     24  N   UNL     1       1.786   8.210  19.589  0.00  0.00    +0.000 N 
ATOM     25  H   UNL     1       3.135   6.217  19.377  0.00  0.00    +0.000 HD
ATOM     26  H   UNL     1       2.101   7.879  20.496  0.00  0.00    +0.000 HD
BRANCH  21  30
ATOM     27  C   UNL     1       5.314   4.741  15.393  0.00  0.00    +0.000 A 
ATOM     28  C   UNL     1       5.382   6.127  15.515  0.00  0.00    +0.000 A 
ATOM     29  C   UNL     1       4.676   6.788  16.530  0.00  0.00    +0.000 A 
ATOM     30  C   UNL     1       3.889   6.080  17.443  0.00  0.00    +0.000 A 
ATOM     31  C   UNL     1       3.819   4.685  17.311  0.00  0.00    +0.000 A 
ATOM     32  C   UNL     1       4.526   4.020  16.295  0.00  0.00    +0.000 A 
BRANCH  27  34
ATOM     33  N   UNL     1       6.635   3.537  13.509  0.00  0.00    +0.000 NA
ATOM     34  C   UNL     1       6.047   4.069  14.356  0.00  0.00    +0.000 C 
ENDBRANCH  27  34
ENDBRANCH  21  30
ENDBRANCH   1  24
TORSDOF 5
ENDMDL
MODEL 9
REMARK VINA RESULT:      -7.4      6.669     10.111
REMARK  Name = 
REMARK  5 active torsions:
REMARK  status: ('A' for Active; 'I' for Inactive)
REMARK    1  A    between atoms: C_2  and  C_3
REMARK    2  A    between atoms: C_6  and  N_7
REMARK    3  A    between atoms: N_10  and  N_11
REMARK    4  A    between atoms: C_12  and  C_14
REMARK    5  A    between atoms: N_20  and  C_21
REMARK                            x       y       z     vdW  Elec       q    Type
REMARK                         _______ _______ _______ _____ _____    ______ ____
ROOT
ATOM      1  N   UNL     1       1.079   9.457  19.640  0.00  0.00    +0.000 N 
ATOM      2  C   UNL     1      -0.083   9.630  20.368  0.00  0.00    +0.000 C 
ATOM      3  O   UNL     1      -0.546   8.757  21.102  0.00  0.00    +0.000 OA
ATOM      4  H   UNL     1       1.387  10.088  18.898  0.00  0.00    +0.000 HD
ENDROOT
BRANCH   2   5
ATOM      5  C   UNL     1      -0.739  10.988  20.191  0.00  0.00    +0.000 C 
ATOM      6  C   UNL     1      -0.960  11.311  18.750  0.00  0.00    +0.000 C 
ATOM      7  O   UNL     1      -1.274  10.476  17.906  0.00  0.00    +0.000 OA
ATOM      8  N   UNL     1      -0.917  12.633  18.417  0.00  0.00    +0.000 N 
ATOM      9  C   UNL     1      -0.376  13.649  19.153  0.00  0.00    +0.000 C 
ATOM     10  O   UNL     1      -0.338  14.768  18.644  0.00  0.00    +0.000 OA
ATOM     11  N   UNL     1       0.143  13.299  20.395  0.00  0.00    +0.000 N 
ATOM     12  C   UNL     1       0.001  12.037  20.973  0.00  0.00    +0.000 C 
ATOM     13  O   UNL     1       0.342  11.778  22.134  0.00  0.00    +0.000 OA
ATOM     14  H   UNL     1      -1.131  12.866  17.456  0.00  0.00    +0.000 HD
BRANCH  11  15
ATOM     15  C   UNL     1       0.870  14.294  21.124  0.00  0.00    +0.000 A 
ATOM     16  C   UNL     1       0.225  15.162  22.015  0.00  0.00    +0.000 A 
ATOM     17  C   UNL     1       0.958  16.121  22.719  0.00  0.00    +0.000 A 
ATOM     18  C   UNL     1       2.331  16.247  22.508  0.00  0.00    +0.000 A 
ATOM     19  C   UNL     1       2.975  15.405  21.604  0.00  0.00    +0.000 A 
ATOM     20  C   UNL     1       2.252  14.420  20.928  0.00  0.00    +0.000 A 
ENDBRANCH  11  15
ENDBRANCH   2   5
BRANCH   1  24
ATOM     21  N   UNL     1       3.165   6.702  18.639  0.00  0.00    +0.000 N 
ATOM     22  C   UNL     1       2.386   7.834  18.511  0.00  0.00    +0.000 C 
ATOM     23  O   UNL     1       2.170   8.464  17.477  0.00  0.00    +0.000 OA
ATOM     24  N   UNL     1       1.786   8.233  19.700  0.00  0.00    +0.000 N 
ATOM     25  H   UNL     1       3.227   6.298  19.562  0.00  0.00    +0.000 HD
ATOM     26  H   UNL     1       2.174   7.996  20.607  0.00  0.00    +0.000 HD
BRANCH  21  30
ATOM     27  C   UNL     1       5.304   4.808  15.490  0.00  0.00    +0.000 A 
ATOM     28  C   UNL     1       4.533   4.042  16.361  0.00  0.00    +0.000 A 
ATOM     29  C   UNL     1       3.822   4.650  17.406  0.00  0.00    +0.000 A 
ATOM     30  C   UNL     1       3.865   6.034  17.600  0.00  0.00    +0.000 A 
ATOM     31  C   UNL     1       4.649   6.799  16.724  0.00  0.00    +0.000 A 
ATOM     32  C   UNL     1       5.362   6.192  15.676  0.00  0.00    +0.000 A 
BRANCH  27  34
ATOM     33  N   UNL     1       6.612   3.665  13.560  0.00  0.00    +0.000 NA
ATOM     34  C   UNL     1       6.023   4.179  14.417  0.00  0.00    +0.000 C 
ENDBRANCH  27  34
ENDBRANCH  21  30
ENDBRANCH   1  24
TORSDOF 5
ENDMDL
