MODEL 1
REMARK VINA RESULT:      -7.8      0.000      0.000
REMARK  Name = 
REMARK  10 active torsions:
REMARK  status: ('A' for Active; 'I' for Inactive)
REMARK    1  A    between atoms: C_1  and  C_2
REMARK    2  A    between atoms: C_5  and  C_6
REMARK    3  A    between atoms: C_7  and  N_8
REMARK    4  A    between atoms: C_9  and  C_10
REMARK    5  A    between atoms: C_10  and  N_11
REMARK    6  A    between atoms: C_12  and  C_14
REMARK    7  A    between atoms: C_21  and  S_22
REMARK    8  A    between atoms: S_22  and  C_23
REMARK    9  A    between atoms: C_23  and  C_24
REMARK   10  A    between atoms: C_30  and  C_31
REMARK                            x       y       z     vdW  Elec       q    Type
REMARK                         _______ _______ _______ _____ _____    ______ ____
ROOT
ATOM      1  N   UNL     1       3.384   5.661  18.462  0.00  0.00    +0.000 N 
ATOM      2  C   UNL     1       4.509   5.460  17.645  0.00  0.00    +0.000 A 
ATOM      3  N   UNL     1       5.045   6.631  17.343  0.00  0.00    +0.000 NA
ATOM      4  N   UNL     1       4.278   7.622  17.887  0.00  0.00    +0.000 NA
ATOM      5  C   UNL     1       3.273   7.054  18.510  0.00  0.00    +0.000 A 
ENDROOT
BRANCH   1  12
ATOM      6  C   UNL     1       2.153   2.850  22.325  0.00  0.00    +0.000 C 
ATOM      7  C   UNL     1       1.892   3.253  20.903  0.00  0.00    +0.000 A 
ATOM      8  C   UNL     1       0.931   2.604  20.141  0.00  0.00    +0.000 A 
ATOM      9  C   UNL     1       0.722   2.987  18.820  0.00  0.00    +0.000 A 
ATOM     10  C   UNL     1       1.454   4.036  18.218  0.00  0.00    +0.000 A 
ATOM     11  C   UNL     1       1.024   4.356  16.809  0.00  0.00    +0.000 C 
ATOM     12  C   UNL     1       2.471   4.672  18.973  0.00  0.00    +0.000 A 
ATOM     13  C   UNL     1       2.655   4.267  20.310  0.00  0.00    +0.000 A 
ENDBRANCH   1  12
BRANCH   2  14
ATOM     14  C   UNL     1       5.123   4.152  17.240  0.00  0.00    +0.000 C 
BRANCH  14  15
ATOM     15  N   UNL     1       5.465   4.153  15.830  0.00  0.00    +0.000 N 
ATOM     16  C   UNL     1       6.735   4.463  15.381  0.00  0.00    +0.000 C 
ATOM     17  O   UNL     1       7.656   4.714  16.153  0.00  0.00    +0.000 OA
ATOM     18  H   UNL     1       4.720   4.105  15.144  0.00  0.00    +0.000 HD
BRANCH  16  19
ATOM     19  C   UNL     1       6.904   4.429  13.939  0.00  0.00    +0.000 A 
ATOM     20  C   UNL     1       6.375   3.588  12.978  0.00  0.00    +0.000 A 
ATOM     21  C   UNL     1       6.857   4.038  11.726  0.00  0.00    +0.000 A 
ATOM     22  C   UNL     1       7.665   5.120  11.990  0.00  0.00    +0.000 A 
ATOM     23  O   UNL     1       7.702   5.371  13.322  0.00  0.00    +0.000 OA
ENDBRANCH  16  19
ENDBRANCH  14  15
ENDBRANCH   2  14
BRANCH   5  24
ATOM     24  S   UNL     1       1.857   7.896  19.053  0.00  0.00    +0.000 S 
BRANCH  24  25
ATOM     25  C   UNL     1       1.799   9.454  18.134  0.00  0.00    +0.000 C 
BRANCH  25  26
ATOM     26  C   UNL     1       0.559  10.275  18.524  0.00  0.00    +0.000 C 
ATOM     27  O   UNL     1       0.667  11.215  19.307  0.00  0.00    +0.000 OA
ATOM     28  N   UNL     1      -0.607   9.903  17.885  0.00  0.00    +0.000 N 
ATOM     29  C   UNL     1      -1.769  10.619  17.999  0.00  0.00    +0.000 A 
ATOM     30  N   UNL     1      -1.989  11.793  18.534  0.00  0.00    +0.000 NA
ATOM     31  N   UNL     1      -3.310  12.182  18.411  0.00  0.00    +0.000 NA
ATOM     32  C   UNL     1      -4.039  11.277  17.794  0.00  0.00    +0.000 A 
ATOM     33  C   UNL     1      -5.497  11.408  17.531  0.00  0.00    +0.000 C 
ATOM     34  S   UNL     1      -3.153   9.883  17.306  0.00  0.00    +0.000 S 
ATOM     35  H   UNL     1      -0.645   9.025  17.386  0.00  0.00    +0.000 HD
ENDBRANCH  25  26
ENDBRANCH  24  25
ENDBRANCH   5  24
TORSDOF 7
ENDMDL
MODEL 2
REMARK VINA RESULT:      -7.8      3.549     10.908
REMARK  Name = 
REMARK  10 active torsions:
REMARK  status: ('A' for Active; 'I' for Inactive)
REMARK    1  A    between atoms: C_1  and  C_2
REMARK    2  A    between atoms: C_5  and  C_6
REMARK    3  A    between atoms: C_7  and  N_8
REMARK    4  A    between atoms: C_9  and  C_10
REMARK    5  A    between atoms: C_10  and  N_11
REMARK    6  A    between atoms: C_12  and  C_14
REMARK    7  A    between atoms: C_21  and  S_22
REMARK    8  A    between atoms: S_22  and  C_23
REMARK    9  A    between atoms: C_23  and  C_24
REMARK   10  A    between atoms: C_30  and  C_31
REMARK                            x       y       z     vdW  Elec       q    Type
REMARK                         _______ _______ _______ _____ _____    ______ ____
ROOT
ATOM      1  N   UNL     1      -0.058  10.654  21.330  0.00  0.00    +0.000 N 
ATOM      2  C   UNL     1      -0.499  10.923  22.637  0.00  0.00    +0.000 A 
ATOM      3  N   UNL     1       0.183  10.178  23.491  0.00  0.00    +0.000 NA
ATOM      4  N   UNL     1       1.033   9.370  22.791  0.00  0.00    +0.000 NA
ATOM      5  C   UNL     1       0.862   9.616  21.514  0.00  0.00    +0.000 A 
ENDROOT
BRANCH   1  12
ATOM      6  C   UNL     1      -2.779   9.779  17.309  0.00  0.00    +0.000 C 
ATOM      7  C   UNL     1      -1.902  10.723  18.078  0.00  0.00    +0.000 A 
ATOM      8  C   UNL     1      -1.525  11.946  17.541  0.00  0.00    +0.000 A 
ATOM      9  C   UNL     1      -0.698  12.794  18.269  0.00  0.00    +0.000 A 
ATOM     10  C   UNL     1      -0.226  12.459  19.558  0.00  0.00    +0.000 A 
ATOM     11  C   UNL     1       0.589  13.543  20.217  0.00  0.00    +0.000 C 
ATOM     12  C   UNL     1      -0.564  11.192  20.094  0.00  0.00    +0.000 A 
ATOM     13  C   UNL     1      -1.410  10.356  19.337  0.00  0.00    +0.000 A 
ENDBRANCH   1  12
BRANCH   2  14
ATOM     14  C   UNL     1      -1.495  11.959  23.069  0.00  0.00    +0.000 C 
BRANCH  14  15
ATOM     15  N   UNL     1      -2.715  11.863  22.290  0.00  0.00    +0.000 N 
ATOM     16  C   UNL     1      -3.623  12.903  22.214  0.00  0.00    +0.000 C 
ATOM     17  O   UNL     1      -3.427  13.981  22.766  0.00  0.00    +0.000 OA
ATOM     18  H   UNL     1      -3.006  10.956  21.941  0.00  0.00    +0.000 HD
BRANCH  16  19
ATOM     19  C   UNL     1      -4.798  12.637  21.403  0.00  0.00    +0.000 A 
ATOM     20  C   UNL     1      -4.987  12.668  20.033  0.00  0.00    +0.000 A 
ATOM     21  C   UNL     1      -6.329  12.290  19.795  0.00  0.00    +0.000 A 
ATOM     22  C   UNL     1      -6.892  12.063  21.028  0.00  0.00    +0.000 A 
ATOM     23  O   UNL     1      -5.979  12.265  22.011  0.00  0.00    +0.000 OA
ENDBRANCH  16  19
ENDBRANCH  14  15
ENDBRANCH   2  14
BRANCH   5  24
ATOM     24  S   UNL     1       1.455   8.607  20.234  0.00  0.00    +0.000 S 
BRANCH  24  25
ATOM     25  C   UNL     1       1.267   6.897  20.796  0.00  0.00    +0.000 C 
BRANCH  25  26
ATOM     26  C   UNL     1       2.246   5.967  20.062  0.00  0.00    +0.000 C 
ATOM     27  O   UNL     1       2.376   4.801  20.428  0.00  0.00    +0.000 OA
ATOM     28  N   UNL     1       2.877   6.533  18.972  0.00  0.00    +0.000 N 
ATOM     29  C   UNL     1       3.663   5.806  18.118  0.00  0.00    +0.000 A 
ATOM     30  N   UNL     1       3.845   4.512  18.032  0.00  0.00    +0.000 NA
ATOM     31  N   UNL     1       4.701   4.176  16.999  0.00  0.00    +0.000 NA
ATOM     32  C   UNL     1       5.140   5.234  16.352  0.00  0.00    +0.000 A 
ATOM     33  C   UNL     1       6.086   5.187  15.206  0.00  0.00    +0.000 C 
ATOM     34  S   UNL     1       4.523   6.725  16.956  0.00  0.00    +0.000 S 
ATOM     35  H   UNL     1       2.840   7.533  18.838  0.00  0.00    +0.000 HD
ENDBRANCH  25  26
ENDBRANCH  24  25
ENDBRANCH   5  24
TORSDOF 7
ENDMDL
MODEL 3
REMARK VINA RESULT:      -7.7      3.841     11.106
REMARK  Name = 
REMARK  10 active torsions:
REMARK  status: ('A' for Active; 'I' for Inactive)
REMARK    1  A    between atoms: C_1  and  C_2
REMARK    2  A    between atoms: C_5  and  C_6
REMARK    3  A    between atoms: C_7  and  N_8
REMARK    4  A    between atoms: C_9  and  C_10
REMARK    5  A    between atoms: C_10  and  N_11
REMARK    6  A    between atoms: C_12  and  C_14
REMARK    7  A    between atoms: C_21  and  S_22
REMARK    8  A    between atoms: S_22  and  C_23
REMARK    9  A    between atoms: C_23  and  C_24
REMARK   10  A    between atoms: C_30  and  C_31
REMARK                            x       y       z     vdW  Elec       q    Type
REMARK                         _______ _______ _______ _____ _____    ______ ____
ROOT
ATOM      1  N   UNL     1       0.207  11.043  21.517  0.00  0.00    +0.000 N 
ATOM      2  C   UNL     1      -0.608  11.338  22.623  0.00  0.00    +0.000 A 
ATOM      3  N   UNL     1      -0.646  10.290  23.429  0.00  0.00    +0.000 NA
ATOM      4  N   UNL     1       0.076   9.274  22.869  0.00  0.00    +0.000 NA
ATOM      5  C   UNL     1       0.543   9.700  21.720  0.00  0.00    +0.000 A 
ENDROOT
BRANCH   1  12
ATOM      6  C   UNL     1       3.315  14.272  19.456  0.00  0.00    +0.000 C 
ATOM      7  C   UNL     1       2.028  13.505  19.371  0.00  0.00    +0.000 A 
ATOM      8  C   UNL     1       1.141  13.711  18.325  0.00  0.00    +0.000 A 
ATOM      9  C   UNL     1      -0.053  12.998  18.281  0.00  0.00    +0.000 A 
ATOM     10  C   UNL     1      -0.398  12.050  19.271  0.00  0.00    +0.000 A 
ATOM     11  C   UNL     1      -1.692  11.324  19.002  0.00  0.00    +0.000 C 
ATOM     12  C   UNL     1       0.478  11.869  20.369  0.00  0.00    +0.000 A 
ATOM     13  C   UNL     1       1.683  12.600  20.384  0.00  0.00    +0.000 A 
ENDBRANCH   1  12
BRANCH   2  14
ATOM     14  C   UNL     1      -1.263  12.646  22.952  0.00  0.00    +0.000 C 
BRANCH  14  15
ATOM     15  N   UNL     1      -2.498  12.811  22.208  0.00  0.00    +0.000 N 
ATOM     16  C   UNL     1      -3.727  12.459  22.734  0.00  0.00    +0.000 C 
ATOM     17  O   UNL     1      -3.847  12.027  23.876  0.00  0.00    +0.000 OA
ATOM     18  H   UNL     1      -2.450  13.017  21.216  0.00  0.00    +0.000 HD
BRANCH  16  19
ATOM     19  C   UNL     1      -4.859  12.677  21.852  0.00  0.00    +0.000 A 
ATOM     20  C   UNL     1      -4.937  13.217  20.581  0.00  0.00    +0.000 A 
ATOM     21  C   UNL     1      -6.295  13.155  20.189  0.00  0.00    +0.000 A 
ATOM     22  C   UNL     1      -6.976  12.596  21.244  0.00  0.00    +0.000 A 
ATOM     23  O   UNL     1      -6.123  12.298  22.257  0.00  0.00    +0.000 OA
ENDBRANCH  16  19
ENDBRANCH  14  15
ENDBRANCH   2  14
BRANCH   5  24
ATOM     24  S   UNL     1       1.217   8.673  20.496  0.00  0.00    +0.000 S 
BRANCH  24  25
ATOM     25  C   UNL     1       1.266   7.004  21.192  0.00  0.00    +0.000 C 
BRANCH  25  26
ATOM     26  C   UNL     1       1.984   6.033  20.241  0.00  0.00    +0.000 C 
ATOM     27  O   UNL     1       1.757   4.827  20.309  0.00  0.00    +0.000 OA
ATOM     28  N   UNL     1       2.814   6.634  19.316  0.00  0.00    +0.000 N 
ATOM     29  C   UNL     1       3.412   5.937  18.301  0.00  0.00    +0.000 A 
ATOM     30  N   UNL     1       3.226   4.705  17.898  0.00  0.00    +0.000 NA
ATOM     31  N   UNL     1       4.012   4.391  16.805  0.00  0.00    +0.000 NA
ATOM     32  C   UNL     1       4.771   5.399  16.431  0.00  0.00    +0.000 A 
ATOM     33  C   UNL     1       5.732   5.355  15.298  0.00  0.00    +0.000 C 
ATOM     34  S   UNL     1       4.565   6.816  17.389  0.00  0.00    +0.000 S 
ATOM     35  H   UNL     1       3.070   7.605  19.431  0.00  0.00    +0.000 HD
ENDBRANCH  25  26
ENDBRANCH  24  25
ENDBRANCH   5  24
TORSDOF 7
ENDMDL
MODEL 4
REMARK VINA RESULT:      -7.6      1.886      3.262
REMARK  Name = 
REMARK  10 active torsions:
REMARK  status: ('A' for Active; 'I' for Inactive)
REMARK    1  A    between atoms: C_1  and  C_2
REMARK    2  A    between atoms: C_5  and  C_6
REMARK    3  A    between atoms: C_7  and  N_8
REMARK    4  A    between atoms: C_9  and  C_10
REMARK    5  A    between atoms: C_10  and  N_11
REMARK    6  A    between atoms: C_12  and  C_14
REMARK    7  A    between atoms: C_21  and  S_22
REMARK    8  A    between atoms: S_22  and  C_23
REMARK    9  A    between atoms: C_23  and  C_24
REMARK   10  A    between atoms: C_30  and  C_31
REMARK                            x       y       z     vdW  Elec       q    Type
REMARK                         _______ _______ _______ _____ _____    ______ ____
ROOT
ATOM      1  N   UNL     1       3.914   5.315  17.758  0.00  0.00    +0.000 N 
ATOM      2  C   UNL     1       3.534   4.017  17.375  0.00  0.00    +0.000 A 
ATOM      3  N   UNL     1       2.226   3.884  17.522  0.00  0.00    +0.000 NA
ATOM      4  N   UNL     1       1.721   5.038  18.050  0.00  0.00    +0.000 NA
ATOM      5  C   UNL     1       2.720   5.868  18.232  0.00  0.00    +0.000 A 
ENDROOT
BRANCH   1  12
ATOM      6  C   UNL     1       8.137   5.544  20.298  0.00  0.00    +0.000 C 
ATOM      7  C   UNL     1       7.331   5.995  19.116  0.00  0.00    +0.000 A 
ATOM      8  C   UNL     1       7.813   6.969  18.253  0.00  0.00    +0.000 A 
ATOM      9  C   UNL     1       7.037   7.381  17.174  0.00  0.00    +0.000 A 
ATOM     10  C   UNL     1       5.762   6.829  16.912  0.00  0.00    +0.000 A 
ATOM     11  C   UNL     1       5.116   7.346  15.651  0.00  0.00    +0.000 C 
ATOM     12  C   UNL     1       5.242   5.870  17.815  0.00  0.00    +0.000 A 
ATOM     13  C   UNL     1       6.053   5.467  18.895  0.00  0.00    +0.000 A 
ENDBRANCH   1  12
BRANCH   2  14
ATOM     14  C   UNL     1       4.402   2.950  16.778  0.00  0.00    +0.000 C 
BRANCH  14  15
ATOM     15  N   UNL     1       4.992   3.397  15.529  0.00  0.00    +0.000 N 
ATOM     16  C   UNL     1       6.323   3.754  15.431  0.00  0.00    +0.000 C 
ATOM     17  O   UNL     1       7.093   3.671  16.383  0.00  0.00    +0.000 OA
ATOM     18  H   UNL     1       4.381   3.631  14.754  0.00  0.00    +0.000 HD
BRANCH  16  19
ATOM     19  C   UNL     1       6.748   4.191  14.112  0.00  0.00    +0.000 A 
ATOM     20  C   UNL     1       6.406   3.745  12.849  0.00  0.00    +0.000 A 
ATOM     21  C   UNL     1       7.101   4.559  11.923  0.00  0.00    +0.000 A 
ATOM     22  C   UNL     1       7.839   5.448  12.668  0.00  0.00    +0.000 A 
ATOM     23  O   UNL     1       7.635   5.241  13.993  0.00  0.00    +0.000 OA
ENDBRANCH  16  19
ENDBRANCH  14  15
ENDBRANCH   2  14
BRANCH   5  24
ATOM     24  S   UNL     1       2.632   7.311  19.190  0.00  0.00    +0.000 S 
BRANCH  24  25
ATOM     25  C   UNL     1       2.214   8.658  18.056  0.00  0.00    +0.000 C 
BRANCH  25  26
ATOM     26  C   UNL     1       0.961   9.410  18.536  0.00  0.00    +0.000 C 
ATOM     27  O   UNL     1       0.937   9.907  19.659  0.00  0.00    +0.000 OA
ATOM     28  N   UNL     1      -0.047   9.513  17.598  0.00  0.00    +0.000 N 
ATOM     29  C   UNL     1      -1.167  10.274  17.803  0.00  0.00    +0.000 A 
ATOM     30  N   UNL     1      -1.442  11.134  18.752  0.00  0.00    +0.000 NA
ATOM     31  N   UNL     1      -2.680  11.725  18.574  0.00  0.00    +0.000 NA
ATOM     32  C   UNL     1      -3.295  11.279  17.500  0.00  0.00    +0.000 A 
ATOM     33  C   UNL     1      -4.646  11.717  17.061  0.00  0.00    +0.000 C 
ATOM     34  S   UNL     1      -2.393  10.106  16.618  0.00  0.00    +0.000 S 
ATOM     35  H   UNL     1      -0.015   8.942  16.765  0.00  0.00    +0.000 HD
ENDBRANCH  25  26
ENDBRANCH  24  25
ENDBRANCH   5  24
TORSDOF 7
ENDMDL
MODEL 5
REMARK VINA RESULT:      -7.6      4.226     11.492
REMARK  Name = 
REMARK  10 active torsions:
REMARK  status: ('A' for Active; 'I' for Inactive)
REMARK    1  A    between atoms: C_1  and  C_2
REMARK    2  A    between atoms: C_5  and  C_6
REMARK    3  A    between atoms: C_7  and  N_8
REMARK    4  A    between atoms: C_9  and  C_10
REMARK    5  A    between atoms: C_10  and  N_11
REMARK    6  A    between atoms: C_12  and  C_14
REMARK    7  A    between atoms: C_21  and  S_22
REMARK    8  A    between atoms: S_22  and  C_23
REMARK    9  A    between atoms: C_23  and  C_24
REMARK   10  A    between atoms: C_30  and  C_31
REMARK                            x       y       z     vdW  Elec       q    Type
REMARK                         _______ _______ _______ _____ _____    ______ ____
ROOT
ATOM      1  N   UNL     1       0.080  11.106  21.589  0.00  0.00    +0.000 N 
ATOM      2  C   UNL     1      -0.793  11.368  22.658  0.00  0.00    +0.000 A 
ATOM      3  N   UNL     1      -0.831  10.316  23.459  0.00  0.00    +0.000 NA
ATOM      4  N   UNL     1      -0.051   9.328  22.929  0.00  0.00    +0.000 NA
ATOM      5  C   UNL     1       0.453   9.775  21.804  0.00  0.00    +0.000 A 
ENDROOT
BRANCH   1  12
ATOM      6  C   UNL     1       3.289  14.264  19.573  0.00  0.00    +0.000 C 
ATOM      7  C   UNL     1       1.975  13.546  19.482  0.00  0.00    +0.000 A 
ATOM      8  C   UNL     1       1.089  13.805  18.446  0.00  0.00    +0.000 A 
ATOM      9  C   UNL     1      -0.129  13.137  18.396  0.00  0.00    +0.000 A 
ATOM     10  C   UNL     1      -0.503  12.181  19.369  0.00  0.00    +0.000 A 
ATOM     11  C   UNL     1      -1.823  11.508  19.094  0.00  0.00    +0.000 C 
ATOM     12  C   UNL     1       0.373  11.946  20.457  0.00  0.00    +0.000 A 
ATOM     13  C   UNL     1       1.604  12.632  20.478  0.00  0.00    +0.000 A 
ENDBRANCH   1  12
BRANCH   2  14
ATOM     14  C   UNL     1      -1.506  12.652  22.961  0.00  0.00    +0.000 C 
BRANCH  14  15
ATOM     15  N   UNL     1      -2.936  12.514  22.754  0.00  0.00    +0.000 N 
ATOM     16  C   UNL     1      -3.861  13.037  23.639  0.00  0.00    +0.000 C 
ATOM     17  O   UNL     1      -3.526  13.685  24.625  0.00  0.00    +0.000 OA
ATOM     18  H   UNL     1      -3.270  11.866  22.049  0.00  0.00    +0.000 HD
BRANCH  16  19
ATOM     19  C   UNL     1      -5.250  12.798  23.289  0.00  0.00    +0.000 A 
ATOM     20  C   UNL     1      -6.412  12.913  24.031  0.00  0.00    +0.000 A 
ATOM     21  C   UNL     1      -7.485  12.582  23.171  0.00  0.00    +0.000 A 
ATOM     22  C   UNL     1      -6.923  12.268  21.956  0.00  0.00    +0.000 A 
ATOM     23  O   UNL     1      -5.574  12.396  22.009  0.00  0.00    +0.000 OA
ENDBRANCH  16  19
ENDBRANCH  14  15
ENDBRANCH   2  14
BRANCH   5  24
ATOM     24  S   UNL     1       1.215   8.776  20.608  0.00  0.00    +0.000 S 
BRANCH  24  25
ATOM     25  C   UNL     1       1.061   7.069  21.186  0.00  0.00    +0.000 C 
BRANCH  25  26
ATOM     26  C   UNL     1       1.950   6.126  20.360  0.00  0.00    +0.000 C 
ATOM     27  O   UNL     1       1.976   4.925  20.617  0.00  0.00    +0.000 OA
ATOM     28  N   UNL     1       2.627   6.731  19.320  0.00  0.00    +0.000 N 
ATOM     29  C   UNL     1       3.343   6.019  18.395  0.00  0.00    +0.000 A 
ATOM     30  N   UNL     1       3.408   4.727  18.188  0.00  0.00    +0.000 NA
ATOM     31  N   UNL     1       4.228   4.412  17.120  0.00  0.00    +0.000 NA
ATOM     32  C   UNL     1       4.759   5.482  16.568  0.00  0.00    +0.000 A 
ATOM     33  C   UNL     1       5.694   5.456  15.413  0.00  0.00    +0.000 C 
ATOM     34  S   UNL     1       4.280   6.960  17.312  0.00  0.00    +0.000 S 
ATOM     35  H   UNL     1       2.680   7.739  19.277  0.00  0.00    +0.000 HD
ENDBRANCH  25  26
ENDBRANCH  24  25
ENDBRANCH   5  24
TORSDOF 7
ENDMDL
MODEL 6
REMARK VINA RESULT:      -7.6      1.454      2.205
REMARK  Name = 
REMARK  10 active torsions:
REMARK  status: ('A' for Active; 'I' for Inactive)
REMARK    1  A    between atoms: C_1  and  C_2
REMARK    2  A    between atoms: C_5  and  C_6
REMARK    3  A    between atoms: C_7  and  N_8
REMARK    4  A    between atoms: C_9  and  C_10
REMARK    5  A    between atoms: C_10  and  N_11
REMARK    6  A    between atoms: C_12  and  C_14
REMARK    7  A    between atoms: C_21  and  S_22
REMARK    8  A    between atoms: S_22  and  C_23
REMARK    9  A    between atoms: C_23  and  C_24
REMARK   10  A    between atoms: C_30  and  C_31
REMARK                            x       y       z     vdW  Elec       q    Type
REMARK                         _______ _______ _______ _____ _____    ______ ____
ROOT
ATOM      1  N   UNL     1       4.319   5.760  17.541  0.00  0.00    +0.000 N 
ATOM      2  C   UNL     1       5.316   5.769  16.550  0.00  0.00    +0.000 A 
ATOM      3  N   UNL     1       5.354   6.962  15.980  0.00  0.00    +0.000 NA
ATOM      4  N   UNL     1       4.371   7.742  16.520  0.00  0.00    +0.000 NA
ATOM      5  C   UNL     1       3.730   7.022  17.409  0.00  0.00    +0.000 A 
ENDROOT
BRANCH   1  12
ATOM      6  C   UNL     1       0.618   2.702  18.676  0.00  0.00    +0.000 C 
ATOM      7  C   UNL     1       2.023   3.159  18.937  0.00  0.00    +0.000 A 
ATOM      8  C   UNL     1       2.765   2.628  19.982  0.00  0.00    +0.000 A 
ATOM      9  C   UNL     1       4.060   3.083  20.211  0.00  0.00    +0.000 A 
ATOM     10  C   UNL     1       4.662   4.073  19.401  0.00  0.00    +0.000 A 
ATOM     11  C   UNL     1       6.096   4.370  19.758  0.00  0.00    +0.000 C 
ATOM     12  C   UNL     1       3.895   4.656  18.362  0.00  0.00    +0.000 A 
ATOM     13  C   UNL     1       2.589   4.171  18.149  0.00  0.00    +0.000 A 
ENDBRANCH   1  12
BRANCH   2  14
ATOM     14  C   UNL     1       6.288   4.675  16.223  0.00  0.00    +0.000 C 
BRANCH  14  15
ATOM     15  N   UNL     1       5.890   3.968  15.019  0.00  0.00    +0.000 N 
ATOM     16  C   UNL     1       6.439   4.253  13.783  0.00  0.00    +0.000 C 
ATOM     17  O   UNL     1       7.326   5.090  13.641  0.00  0.00    +0.000 OA
ATOM     18  H   UNL     1       5.064   3.381  15.045  0.00  0.00    +0.000 HD
BRANCH  16  19
ATOM     19  C   UNL     1       5.919   3.462  12.682  0.00  0.00    +0.000 A 
ATOM     20  C   UNL     1       6.516   2.500  11.887  0.00  0.00    +0.000 A 
ATOM     21  C   UNL     1       5.527   2.038  10.988  0.00  0.00    +0.000 A 
ATOM     22  C   UNL     1       4.385   2.749  11.270  0.00  0.00    +0.000 A 
ATOM     23  O   UNL     1       4.604   3.613  12.293  0.00  0.00    +0.000 OA
ENDBRANCH  16  19
ENDBRANCH  14  15
ENDBRANCH   2  14
BRANCH   5  24
ATOM     24  S   UNL     1       2.199   7.454  18.100  0.00  0.00    +0.000 S 
BRANCH  24  25
ATOM     25  C   UNL     1       2.095   9.260  18.033  0.00  0.00    +0.000 C 
BRANCH  25  26
ATOM     26  C   UNL     1       0.728   9.750  18.540  0.00  0.00    +0.000 C 
ATOM     27  O   UNL     1       0.580  10.032  19.726  0.00  0.00    +0.000 OA
ATOM     28  N   UNL     1      -0.236   9.892  17.562  0.00  0.00    +0.000 N 
ATOM     29  C   UNL     1      -1.458  10.457  17.811  0.00  0.00    +0.000 A 
ATOM     30  N   UNL     1      -1.896  11.092  18.869  0.00  0.00    +0.000 NA
ATOM     31  N   UNL     1      -3.192  11.545  18.705  0.00  0.00    +0.000 NA
ATOM     32  C   UNL     1      -3.685  11.224  17.528  0.00  0.00    +0.000 A 
ATOM     33  C   UNL     1      -5.060  11.561  17.072  0.00  0.00    +0.000 C 
ATOM     34  S   UNL     1      -2.588  10.352  16.527  0.00  0.00    +0.000 S 
ATOM     35  H   UNL     1      -0.084   9.488  16.648  0.00  0.00    +0.000 HD
ENDBRANCH  25  26
ENDBRANCH  24  25
ENDBRANCH   5  24
TORSDOF 7
ENDMDL
MODEL 7
REMARK VINA RESULT:      -7.6      5.119      8.300
REMARK  Name = 
REMARK  10 active torsions:
REMARK  status: ('A' for Active; 'I' for Inactive)
REMARK    1  A    between atoms: C_1  and  C_2
REMARK    2  A    between atoms: C_5  and  C_6
REMARK    3  A    between atoms: C_7  and  N_8
REMARK    4  A    between atoms: C_9  and  C_10
REMARK    5  A    between atoms: C_10  and  N_11
REMARK    6  A    between atoms: C_12  and  C_14
REMARK    7  A    between atoms: C_21  and  S_22
REMARK    8  A    between atoms: S_22  and  C_23
REMARK    9  A    between atoms: C_23  and  C_24
REMARK   10  A    between atoms: C_30  and  C_31
REMARK                            x       y       z     vdW  Elec       q    Type
REMARK                         _______ _______ _______ _____ _____    ______ ____
ROOT
ATOM      1  N   UNL     1      -0.197  10.479  21.383  0.00  0.00    +0.000 N 
ATOM      2  C   UNL     1       0.787   9.500  21.607  0.00  0.00    +0.000 A 
ATOM      3  N   UNL     1       0.894   9.277  22.906  0.00  0.00    +0.000 NA
ATOM      4  N   UNL     1       0.050  10.121  23.571  0.00  0.00    +0.000 NA
ATOM      5  C   UNL     1      -0.562  10.861  22.678  0.00  0.00    +0.000 A 
ENDROOT
BRANCH   1  12
ATOM      6  C   UNL     1      -2.848   9.897  17.265  0.00  0.00    +0.000 C 
ATOM      7  C   UNL     1      -1.901  10.741  18.066  0.00  0.00    +0.000 A 
ATOM      8  C   UNL     1      -1.374  11.913  17.545  0.00  0.00    +0.000 A 
ATOM      9  C   UNL     1      -0.485  12.668  18.303  0.00  0.00    +0.000 A 
ATOM     10  C   UNL     1      -0.100  12.286  19.609  0.00  0.00    +0.000 A 
ATOM     11  C   UNL     1       0.804  13.276  20.298  0.00  0.00    +0.000 C 
ATOM     12  C   UNL     1      -0.595  11.065  20.131  0.00  0.00    +0.000 A 
ATOM     13  C   UNL     1      -1.500  10.325  19.342  0.00  0.00    +0.000 A 
ENDBRANCH   1  12
BRANCH   2  14
ATOM     14  C   UNL     1       1.545   8.715  20.578  0.00  0.00    +0.000 C 
BRANCH  14  15
ATOM     15  N   UNL     1       1.456   7.291  20.841  0.00  0.00    +0.000 N 
ATOM     16  C   UNL     1       1.995   6.349  19.985  0.00  0.00    +0.000 C 
ATOM     17  O   UNL     1       2.617   6.666  18.976  0.00  0.00    +0.000 OA
ATOM     18  H   UNL     1       0.830   6.964  21.569  0.00  0.00    +0.000 HD
BRANCH  16  19
ATOM     19  C   UNL     1       1.806   4.968  20.391  0.00  0.00    +0.000 A 
ATOM     20  C   UNL     1       1.136   3.921  19.785  0.00  0.00    +0.000 A 
ATOM     21  C   UNL     1       1.305   2.788  20.615  0.00  0.00    +0.000 A 
ATOM     22  C   UNL     1       2.055   3.204  21.689  0.00  0.00    +0.000 A 
ATOM     23  O   UNL     1       2.368   4.519  21.569  0.00  0.00    +0.000 OA
ENDBRANCH  16  19
ENDBRANCH  14  15
ENDBRANCH   2  14
BRANCH   5  24
ATOM     24  S   UNL     1      -1.459  12.299  23.048  0.00  0.00    +0.000 S 
BRANCH  24  25
ATOM     25  C   UNL     1      -2.950  12.255  22.023  0.00  0.00    +0.000 C 
BRANCH  25  26
ATOM     26  C   UNL     1      -3.930  13.368  22.431  0.00  0.00    +0.000 C 
ATOM     27  O   UNL     1      -5.117  13.280  22.129  0.00  0.00    +0.000 OA
ATOM     28  N   UNL     1      -3.373  14.383  23.183  0.00  0.00    +0.000 N 
ATOM     29  C   UNL     1      -4.127  15.372  23.755  0.00  0.00    +0.000 A 
ATOM     30  N   UNL     1      -5.427  15.487  23.867  0.00  0.00    +0.000 NA
ATOM     31  N   UNL     1      -5.791  16.631  24.553  0.00  0.00    +0.000 NA
ATOM     32  C   UNL     1      -4.748  17.342  24.923  0.00  0.00    +0.000 A 
ATOM     33  C   UNL     1      -4.828  18.630  25.661  0.00  0.00    +0.000 C 
ATOM     34  S   UNL     1      -3.237  16.651  24.468  0.00  0.00    +0.000 S 
ATOM     35  H   UNL     1      -2.368  14.464  23.248  0.00  0.00    +0.000 HD
ENDBRANCH  25  26
ENDBRANCH  24  25
ENDBRANCH   5  24
TORSDOF 7
ENDMDL
MODEL 8
REMARK VINA RESULT:      -7.5      5.111      9.038
REMARK  Name = 
REMARK  10 active torsions:
REMARK  status: ('A' for Active; 'I' for Inactive)
REMARK    1  A    between atoms: C_1  and  C_2
REMARK    2  A    between atoms: C_5  and  C_6
REMARK    3  A    between atoms: C_7  and  N_8
REMARK    4  A    between atoms: C_9  and  C_10
REMARK    5  A    between atoms: C_10  and  N_11
REMARK    6  A    between atoms: C_12  and  C_14
REMARK    7  A    between atoms: C_21  and  S_22
REMARK    8  A    between atoms: S_22  and  C_23
REMARK    9  A    between atoms: C_23  and  C_24
REMARK   10  A    between atoms: C_30  and  C_31
REMARK                            x       y       z     vdW  Elec       q    Type
REMARK                         _______ _______ _______ _____ _____    ______ ____
ROOT
ATOM      1  N   UNL     1      -0.692  11.949  20.145  0.00  0.00    +0.000 N 
ATOM      2  C   UNL     1      -0.358  11.345  21.369  0.00  0.00    +0.000 A 
ATOM      3  N   UNL     1       0.405  12.169  22.069  0.00  0.00    +0.000 NA
ATOM      4  N   UNL     1       0.643  13.290  21.325  0.00  0.00    +0.000 NA
ATOM      5  C   UNL     1       0.034  13.144  20.173  0.00  0.00    +0.000 A 
ENDROOT
BRANCH   1  12
ATOM      6  C   UNL     1      -5.109  11.681  17.965  0.00  0.00    +0.000 C 
ATOM      7  C   UNL     1      -3.674  11.243  18.003  0.00  0.00    +0.000 A 
ATOM      8  C   UNL     1      -3.200  10.275  17.131  0.00  0.00    +0.000 A 
ATOM      9  C   UNL     1      -1.869   9.876  17.199  0.00  0.00    +0.000 A 
ATOM     10  C   UNL     1      -0.964  10.435  18.131  0.00  0.00    +0.000 A 
ATOM     11  C   UNL     1       0.450   9.932  17.992  0.00  0.00    +0.000 C 
ATOM     12  C   UNL     1      -1.452  11.388  19.058  0.00  0.00    +0.000 A 
ATOM     13  C   UNL     1      -2.803  11.778  18.961  0.00  0.00    +0.000 A 
ENDBRANCH   1  12
BRANCH   2  14
ATOM     14  C   UNL     1      -0.849  10.033  21.905  0.00  0.00    +0.000 C 
BRANCH  14  15
ATOM     15  N   UNL     1      -0.197   8.922  21.235  0.00  0.00    +0.000 N 
ATOM     16  C   UNL     1       1.108   8.560  21.511  0.00  0.00    +0.000 C 
ATOM     17  O   UNL     1       1.775   9.129  22.370  0.00  0.00    +0.000 OA
ATOM     18  H   UNL     1      -0.638   8.514  20.418  0.00  0.00    +0.000 HD
BRANCH  16  19
ATOM     19  C   UNL     1       1.610   7.435  20.743  0.00  0.00    +0.000 A 
ATOM     20  C   UNL     1       2.372   7.384  19.590  0.00  0.00    +0.000 A 
ATOM     21  C   UNL     1       2.594   6.016  19.303  0.00  0.00    +0.000 A 
ATOM     22  C   UNL     1       1.945   5.305  20.285  0.00  0.00    +0.000 A 
ATOM     23  O   UNL     1       1.348   6.147  21.165  0.00  0.00    +0.000 OA
ENDBRANCH  16  19
ENDBRANCH  14  15
ENDBRANCH   2  14
BRANCH   5  24
ATOM     24  S   UNL     1       0.327  14.134  18.779  0.00  0.00    +0.000 S 
BRANCH  24  25
ATOM     25  C   UNL     1       2.013  13.769  18.233  0.00  0.00    +0.000 C 
BRANCH  25  26
ATOM     26  C   UNL     1       2.889  15.032  18.275  0.00  0.00    +0.000 C 
ATOM     27  O   UNL     1       2.364  16.141  18.343  0.00  0.00    +0.000 OA
ATOM     28  N   UNL     1       4.249  14.794  18.291  0.00  0.00    +0.000 N 
ATOM     29  C   UNL     1       5.167  15.792  18.478  0.00  0.00    +0.000 A 
ATOM     30  N   UNL     1       4.998  17.043  18.825  0.00  0.00    +0.000 NA
ATOM     31  N   UNL     1       6.199  17.718  18.942  0.00  0.00    +0.000 NA
ATOM     32  C   UNL     1       7.230  16.949  18.667  0.00  0.00    +0.000 A 
ATOM     33  C   UNL     1       8.647  17.401  18.692  0.00  0.00    +0.000 C 
ATOM     34  S   UNL     1       6.803  15.331  18.257  0.00  0.00    +0.000 S 
ATOM     35  H   UNL     1       4.597  13.872  18.070  0.00  0.00    +0.000 HD
ENDBRANCH  25  26
ENDBRANCH  24  25
ENDBRANCH   5  24
TORSDOF 7
ENDMDL
MODEL 9
REMARK VINA RESULT:      -7.5      2.227      2.300
REMARK  Name = 
REMARK  10 active torsions:
REMARK  status: ('A' for Active; 'I' for Inactive)
REMARK    1  A    between atoms: C_1  and  C_2
REMARK    2  A    between atoms: C_5  and  C_6
REMARK    3  A    between atoms: C_7  and  N_8
REMARK    4  A    between atoms: C_9  and  C_10
REMARK    5  A    between atoms: C_10  and  N_11
REMARK    6  A    between atoms: C_12  and  C_14
REMARK    7  A    between atoms: C_21  and  S_22
REMARK    8  A    between atoms: S_22  and  C_23
REMARK    9  A    between atoms: C_23  and  C_24
REMARK   10  A    between atoms: C_30  and  C_31
REMARK                            x       y       z     vdW  Elec       q    Type
REMARK                         _______ _______ _______ _____ _____    ______ ____
ROOT
ATOM      1  N   UNL     1       3.285   5.739  18.496  0.00  0.00    +0.000 N 
ATOM      2  C   UNL     1       4.442   5.591  17.712  0.00  0.00    +0.000 A 
ATOM      3  N   UNL     1       4.924   6.787  17.415  0.00  0.00    +0.000 NA
ATOM      4  N   UNL     1       4.090   7.740  17.929  0.00  0.00    +0.000 NA
ATOM      5  C   UNL     1       3.100   7.125  18.528  0.00  0.00    +0.000 A 
ENDROOT
BRANCH   1  12
ATOM      6  C   UNL     1       2.150   2.832  22.316  0.00  0.00    +0.000 C 
ATOM      7  C   UNL     1       1.880   3.242  20.898  0.00  0.00    +0.000 A 
ATOM      8  C   UNL     1       0.951   2.563  20.123  0.00  0.00    +0.000 A 
ATOM      9  C   UNL     1       0.733   2.954  18.806  0.00  0.00    +0.000 A 
ATOM     10  C   UNL     1       1.424   4.040  18.220  0.00  0.00    +0.000 A 
ATOM     11  C   UNL     1       0.989   4.359  16.813  0.00  0.00    +0.000 C 
ATOM     12  C   UNL     1       2.410   4.707  18.989  0.00  0.00    +0.000 A 
ATOM     13  C   UNL     1       2.604   4.294  20.322  0.00  0.00    +0.000 A 
ENDBRANCH   1  12
BRANCH   2  14
ATOM     14  C   UNL     1       5.134   4.315  17.337  0.00  0.00    +0.000 C 
BRANCH  14  15
ATOM     15  N   UNL     1       5.468   4.301  15.925  0.00  0.00    +0.000 N 
ATOM     16  C   UNL     1       6.765   4.456  15.473  0.00  0.00    +0.000 C 
ATOM     17  O   UNL     1       7.714   4.572  16.244  0.00  0.00    +0.000 OA
ATOM     18  H   UNL     1       4.720   4.362  15.242  0.00  0.00    +0.000 HD
BRANCH  16  19
ATOM     19  C   UNL     1       6.923   4.430  14.030  0.00  0.00    +0.000 A 
ATOM     20  C   UNL     1       6.390   3.592  13.068  0.00  0.00    +0.000 A 
ATOM     21  C   UNL     1       6.860   4.050  11.816  0.00  0.00    +0.000 A 
ATOM     22  C   UNL     1       7.665   5.133  12.078  0.00  0.00    +0.000 A 
ATOM     23  O   UNL     1       7.712   5.378  13.412  0.00  0.00    +0.000 OA
ENDBRANCH  16  19
ENDBRANCH  14  15
ENDBRANCH   2  14
BRANCH   5  24
ATOM     24  S   UNL     1       1.626   7.895  19.023  0.00  0.00    +0.000 S 
BRANCH  24  25
ATOM     25  C   UNL     1       1.559   7.770  20.827  0.00  0.00    +0.000 C 
BRANCH  25  26
ATOM     26  C   UNL     1       1.141   9.109  21.456  0.00  0.00    +0.000 C 
ATOM     27  O   UNL     1       1.503   9.391  22.595  0.00  0.00    +0.000 OA
ATOM     28  N   UNL     1       0.410   9.936  20.626  0.00  0.00    +0.000 N 
ATOM     29  C   UNL     1       0.085  11.221  20.969  0.00  0.00    +0.000 A 
ATOM     30  N   UNL     1       0.491  11.955  21.974  0.00  0.00    +0.000 NA
ATOM     31  N   UNL     1      -0.053  13.227  21.942  0.00  0.00    +0.000 NA
ATOM     32  C   UNL     1      -0.858  13.397  20.915  0.00  0.00    +0.000 A 
ATOM     33  C   UNL     1      -1.601  14.653  20.628  0.00  0.00    +0.000 C 
ATOM     34  S   UNL     1      -0.999  12.011  19.903  0.00  0.00    +0.000 S 
ATOM     35  H   UNL     1       0.019   9.566  19.771  0.00  0.00    +0.000 HD
ENDBRANCH  25  26
ENDBRANCH  24  25
ENDBRANCH   5  24
TORSDOF 7
ENDMDL
