MODEL 1
REMARK VINA RESULT:      -7.7      0.000      0.000
REMARK  Name = 
REMARK  3 active torsions:
REMARK  status: ('A' for Active; 'I' for Inactive)
REMARK    1  A    between atoms: S_2  and  O_4
REMARK    2  A    between atoms: S_2  and  C_14
REMARK    3  A    between atoms: O_4  and  C_5
REMARK                            x       y       z     vdW  Elec       q    Type
REMARK                         _______ _______ _______ _____ _____    ______ ____
ROOT
ATOM      1  O   UNL     1       6.200   5.426  19.654  0.00  0.00    +0.000 OA
ENDROOT
BRANCH   1   2
ATOM      2  C   UNL     1       4.953   5.015  19.213  0.00  0.00    +0.000 A 
ATOM      3  C   UNL     1       3.851   5.910  19.083  0.00  0.00    +0.000 A 
ATOM      4  C   UNL     1       2.577   5.518  18.622  0.00  0.00    +0.000 A 
ATOM      5  C   UNL     1       2.465   4.153  18.314  0.00  0.00    +0.000 A 
ATOM      6  N   UNL     1       1.408   3.472  17.859  0.00  0.00    +0.000 NA
ATOM      7  O   UNL     1       1.835   2.162  17.729  0.00  0.00    +0.000 OA
ATOM      8  N   UNL     1       3.162   2.009  18.102  0.00  0.00    +0.000 NA
ATOM      9  C   UNL     1       3.579   3.228  18.466  0.00  0.00    +0.000 A 
ATOM     10  C   UNL     1       4.847   3.639  18.926  0.00  0.00    +0.000 A 
ENDBRANCH   1   2
BRANCH   1  12
ATOM     11  O   UNL     1       8.013   6.918  18.714  0.00  0.00    +0.000 OA
ATOM     12  S   UNL     1       7.430   5.598  18.593  0.00  0.00    +0.000 S 
ATOM     13  O   UNL     1       8.237   4.393  18.584  0.00  0.00    +0.000 OA
BRANCH  12  14
ATOM     14  C   UNL     1       6.641   5.599  17.000  0.00  0.00    +0.000 A 
ATOM     15  C   UNL     1       5.754   6.502  16.438  0.00  0.00    +0.000 A 
ATOM     16  C   UNL     1       5.273   6.074  15.168  0.00  0.00    +0.000 A 
ATOM     17  C   UNL     1       5.832   4.872  14.816  0.00  0.00    +0.000 A 
ATOM     18 CL   UNL     1       5.520   3.987  13.379  0.00  0.00    +0.000 Cl
ATOM     19  S   UNL     1       6.909   4.259  15.971  0.00  0.00    +0.000 S 
ENDBRANCH  12  14
ENDBRANCH   1  12
TORSDOF 3
ENDMDL
MODEL 2
REMARK VINA RESULT:      -7.5      3.831      5.567
REMARK  Name = 
REMARK  3 active torsions:
REMARK  status: ('A' for Active; 'I' for Inactive)
REMARK    1  A    between atoms: S_2  and  O_4
REMARK    2  A    between atoms: S_2  and  C_14
REMARK    3  A    between atoms: O_4  and  C_5
REMARK                            x       y       z     vdW  Elec       q    Type
REMARK                         _______ _______ _______ _____ _____    ______ ____
ROOT
ATOM      1  O   UNL     1       3.983   3.018  18.788  0.00  0.00    +0.000 OA
ENDROOT
BRANCH   1   2
ATOM      2  C   UNL     1       4.924   3.878  18.248  0.00  0.00    +0.000 A 
ATOM      3  C   UNL     1       5.628   4.837  19.035  0.00  0.00    +0.000 A 
ATOM      4  C   UNL     1       6.601   5.713  18.510  0.00  0.00    +0.000 A 
ATOM      5  C   UNL     1       6.815   5.585  17.130  0.00  0.00    +0.000 A 
ATOM      6  N   UNL     1       7.657   6.257  16.337  0.00  0.00    +0.000 NA
ATOM      7  O   UNL     1       7.466   5.743  15.066  0.00  0.00    +0.000 OA
ATOM      8  N   UNL     1       6.502   4.747  15.049  0.00  0.00    +0.000 NA
ATOM      9  C   UNL     1       6.083   4.625  16.314  0.00  0.00    +0.000 A 
ATOM     10  C   UNL     1       5.115   3.755  16.857  0.00  0.00    +0.000 A 
ENDBRANCH   1   2
BRANCH   1  12
ATOM     11  O   UNL     1       2.030   3.179  17.189  0.00  0.00    +0.000 OA
ATOM     12  S   UNL     1       2.389   3.314  18.585  0.00  0.00    +0.000 S 
ATOM     13  O   UNL     1       1.636   2.672  19.644  0.00  0.00    +0.000 OA
BRANCH  12  14
ATOM     14  C   UNL     1       2.216   5.049  18.927  0.00  0.00    +0.000 A 
ATOM     15  C   UNL     1       2.455   6.152  18.122  0.00  0.00    +0.000 A 
ATOM     16  C   UNL     1       2.292   7.382  18.822  0.00  0.00    +0.000 A 
ATOM     17  C   UNL     1       1.919   7.156  20.122  0.00  0.00    +0.000 A 
ATOM     18 CL   UNL     1       1.631   8.351  21.320  0.00  0.00    +0.000 Cl
ATOM     19  S   UNL     1       1.764   5.514  20.510  0.00  0.00    +0.000 S 
ENDBRANCH  12  14
ENDBRANCH   1  12
TORSDOF 3
ENDMDL
MODEL 3
REMARK VINA RESULT:      -7.3      3.196      3.829
REMARK  Name = 
REMARK  3 active torsions:
REMARK  status: ('A' for Active; 'I' for Inactive)
REMARK    1  A    between atoms: S_2  and  O_4
REMARK    2  A    between atoms: S_2  and  C_14
REMARK    3  A    between atoms: O_4  and  C_5
REMARK                            x       y       z     vdW  Elec       q    Type
REMARK                         _______ _______ _______ _____ _____    ______ ____
ROOT
ATOM      1  O   UNL     1       3.689   5.485  17.115  0.00  0.00    +0.000 OA
ENDROOT
BRANCH   1   2
ATOM      2  C   UNL     1       2.974   4.726  18.026  0.00  0.00    +0.000 A 
ATOM      3  C   UNL     1       1.964   3.801  17.631  0.00  0.00    +0.000 A 
ATOM      4  C   UNL     1       1.235   3.007  18.541  0.00  0.00    +0.000 A 
ATOM      5  C   UNL     1       1.567   3.212  19.888  0.00  0.00    +0.000 A 
ATOM      6  N   UNL     1       1.068   2.627  20.983  0.00  0.00    +0.000 NA
ATOM      7  O   UNL     1       1.739   3.195  22.051  0.00  0.00    +0.000 OA
ATOM      8  N   UNL     1       2.663   4.143  21.638  0.00  0.00    +0.000 NA
ATOM      9  C   UNL     1       2.581   4.172  20.302  0.00  0.00    +0.000 A 
ATOM     10  C   UNL     1       3.302   4.956  19.378  0.00  0.00    +0.000 A 
ENDBRANCH   1   2
BRANCH   1  12
ATOM     11  O   UNL     1       5.174   3.476  16.724  0.00  0.00    +0.000 OA
ATOM     12  S   UNL     1       5.057   4.892  16.448  0.00  0.00    +0.000 S 
ATOM     13  O   UNL     1       5.224   5.437  15.114  0.00  0.00    +0.000 OA
BRANCH  12  14
ATOM     14  C   UNL     1       6.366   5.643  17.386  0.00  0.00    +0.000 A 
ATOM     15  C   UNL     1       7.138   5.134  18.418  0.00  0.00    +0.000 A 
ATOM     16  C   UNL     1       8.015   6.109  18.973  0.00  0.00    +0.000 A 
ATOM     17  C   UNL     1       7.881   7.310  18.325  0.00  0.00    +0.000 A 
ATOM     18 CL   UNL     1       8.731   8.758  18.680  0.00  0.00    +0.000 Cl
ATOM     19  S   UNL     1       6.734   7.285  17.078  0.00  0.00    +0.000 S 
ENDBRANCH  12  14
ENDBRANCH   1  12
TORSDOF 3
ENDMDL
MODEL 4
REMARK VINA RESULT:      -7.3      3.213      3.841
REMARK  Name = 
REMARK  3 active torsions:
REMARK  status: ('A' for Active; 'I' for Inactive)
REMARK    1  A    between atoms: S_2  and  O_4
REMARK    2  A    between atoms: S_2  and  C_14
REMARK    3  A    between atoms: O_4  and  C_5
REMARK                            x       y       z     vdW  Elec       q    Type
REMARK                         _______ _______ _______ _____ _____    ______ ____
ROOT
ATOM      1  O   UNL     1       4.809   3.159  17.477  0.00  0.00    +0.000 OA
ENDROOT
BRANCH   1   2
ATOM      2  C   UNL     1       3.733   2.999  18.334  0.00  0.00    +0.000 A 
ATOM      3  C   UNL     1       2.396   2.843  17.867  0.00  0.00    +0.000 A 
ATOM      4  C   UNL     1       1.287   2.665  18.720  0.00  0.00    +0.000 A 
ATOM      5  C   UNL     1       1.599   2.672  20.088  0.00  0.00    +0.000 A 
ATOM      6  N   UNL     1       0.788   2.530  21.143  0.00  0.00    +0.000 NA
ATOM      7  O   UNL     1       1.604   2.620  22.257  0.00  0.00    +0.000 OA
ATOM      8  N   UNL     1       2.931   2.822  21.912  0.00  0.00    +0.000 NA
ATOM      9  C   UNL     1       2.959   2.855  20.575  0.00  0.00    +0.000 A 
ATOM     10  C   UNL     1       4.056   3.030  19.706  0.00  0.00    +0.000 A 
ENDBRANCH   1   2
BRANCH   1  12
ATOM     11  O   UNL     1       5.485   4.281  15.314  0.00  0.00    +0.000 OA
ATOM     12  S   UNL     1       4.997   4.555  16.649  0.00  0.00    +0.000 S 
ATOM     13  O   UNL     1       3.863   5.424  16.896  0.00  0.00    +0.000 OA
BRANCH  12  14
ATOM     14  C   UNL     1       6.350   5.371  17.463  0.00  0.00    +0.000 A 
ATOM     15  C   UNL     1       7.272   4.887  18.377  0.00  0.00    +0.000 A 
ATOM     16  C   UNL     1       8.136   5.907  18.869  0.00  0.00    +0.000 A 
ATOM     17  C   UNL     1       7.840   7.115  18.293  0.00  0.00    +0.000 A 
ATOM     18 CL   UNL     1       8.620   8.612  18.611  0.00  0.00    +0.000 Cl
ATOM     19  S   UNL     1       6.560   7.046  17.186  0.00  0.00    +0.000 S 
ENDBRANCH  12  14
ENDBRANCH   1  12
TORSDOF 3
ENDMDL
MODEL 5
REMARK VINA RESULT:      -7.3      2.028      2.450
REMARK  Name = 
REMARK  3 active torsions:
REMARK  status: ('A' for Active; 'I' for Inactive)
REMARK    1  A    between atoms: S_2  and  O_4
REMARK    2  A    between atoms: S_2  and  C_14
REMARK    3  A    between atoms: O_4  and  C_5
REMARK                            x       y       z     vdW  Elec       q    Type
REMARK                         _______ _______ _______ _____ _____    ______ ____
ROOT
ATOM      1  O   UNL     1       6.140   4.546  17.157  0.00  0.00    +0.000 OA
ENDROOT
BRANCH   1   2
ATOM      2  C   UNL     1       4.953   4.457  17.865  0.00  0.00    +0.000 A 
ATOM      3  C   UNL     1       4.680   5.262  19.010  0.00  0.00    +0.000 A 
ATOM      4  C   UNL     1       3.474   5.199  19.737  0.00  0.00    +0.000 A 
ATOM      5  C   UNL     1       2.553   4.255  19.257  0.00  0.00    +0.000 A 
ATOM      6  N   UNL     1       1.334   3.952  19.715  0.00  0.00    +0.000 NA
ATOM      7  O   UNL     1       0.859   2.953  18.884  0.00  0.00    +0.000 OA
ATOM      8  N   UNL     1       1.775   2.619  17.899  0.00  0.00    +0.000 NA
ATOM      9  C   UNL     1       2.834   3.412  18.103  0.00  0.00    +0.000 A 
ATOM     10  C   UNL     1       4.045   3.491  17.386  0.00  0.00    +0.000 A 
ENDBRANCH   1   2
BRANCH   1  12
ATOM     11  O   UNL     1       5.131   6.497  15.902  0.00  0.00    +0.000 OA
ATOM     12  S   UNL     1       6.358   5.746  16.070  0.00  0.00    +0.000 S 
ATOM     13  O   UNL     1       7.635   6.392  16.308  0.00  0.00    +0.000 OA
BRANCH  12  14
ATOM     14  C   UNL     1       6.585   4.904  14.522  0.00  0.00    +0.000 A 
ATOM     15  C   UNL     1       7.514   5.110  13.515  0.00  0.00    +0.000 A 
ATOM     16  C   UNL     1       7.283   4.278  12.382  0.00  0.00    +0.000 A 
ATOM     17  C   UNL     1       6.198   3.465  12.589  0.00  0.00    +0.000 A 
ATOM     18 CL   UNL     1       5.558   2.321  11.481  0.00  0.00    +0.000 Cl
ATOM     19  S   UNL     1       5.464   3.683  14.101  0.00  0.00    +0.000 S 
ENDBRANCH  12  14
ENDBRANCH   1  12
TORSDOF 3
ENDMDL
MODEL 6
REMARK VINA RESULT:      -7.3      1.718      2.105
REMARK  Name = 
REMARK  3 active torsions:
REMARK  status: ('A' for Active; 'I' for Inactive)
REMARK    1  A    between atoms: S_2  and  O_4
REMARK    2  A    between atoms: S_2  and  C_14
REMARK    3  A    between atoms: O_4  and  C_5
REMARK                            x       y       z     vdW  Elec       q    Type
REMARK                         _______ _______ _______ _____ _____    ______ ____
ROOT
ATOM      1  O   UNL     1       5.600   3.566  19.358  0.00  0.00    +0.000 OA
ENDROOT
BRANCH   1   2
ATOM      2  C   UNL     1       4.302   3.194  19.050  0.00  0.00    +0.000 A 
ATOM      3  C   UNL     1       3.931   2.690  17.770  0.00  0.00    +0.000 A 
ATOM      4  C   UNL     1       2.619   2.292  17.438  0.00  0.00    +0.000 A 
ATOM      5  C   UNL     1       1.685   2.449  18.473  0.00  0.00    +0.000 A 
ATOM      6  N   UNL     1       0.377   2.170  18.483  0.00  0.00    +0.000 NA
ATOM      7  O   UNL     1      -0.071   2.518  19.746  0.00  0.00    +0.000 OA
ATOM      8  N   UNL     1       0.951   3.019  20.538  0.00  0.00    +0.000 NA
ATOM      9  C   UNL     1       2.051   2.986  19.777  0.00  0.00    +0.000 A 
ATOM     10  C   UNL     1       3.369   3.377  20.091  0.00  0.00    +0.000 A 
ENDBRANCH   1   2
BRANCH   1  12
ATOM     11  O   UNL     1       5.109   6.027  19.669  0.00  0.00    +0.000 OA
ATOM     12  S   UNL     1       6.088   5.108  19.128  0.00  0.00    +0.000 S 
ATOM     13  O   UNL     1       7.503   5.220  19.424  0.00  0.00    +0.000 OA
BRANCH  12  14
ATOM     14  C   UNL     1       5.999   5.340  17.368  0.00  0.00    +0.000 A 
ATOM     15  C   UNL     1       5.129   6.104  16.606  0.00  0.00    +0.000 A 
ATOM     16  C   UNL     1       5.334   5.929  15.208  0.00  0.00    +0.000 A 
ATOM     17  C   UNL     1       6.363   5.054  14.972  0.00  0.00    +0.000 A 
ATOM     18 CL   UNL     1       6.935   4.546  13.436  0.00  0.00    +0.000 Cl
ATOM     19  S   UNL     1       7.076   4.447  16.385  0.00  0.00    +0.000 S 
ENDBRANCH  12  14
ENDBRANCH   1  12
TORSDOF 3
ENDMDL
MODEL 7
REMARK VINA RESULT:      -7.2      0.726      1.509
REMARK  Name = 
REMARK  3 active torsions:
REMARK  status: ('A' for Active; 'I' for Inactive)
REMARK    1  A    between atoms: S_2  and  O_4
REMARK    2  A    between atoms: S_2  and  C_14
REMARK    3  A    between atoms: O_4  and  C_5
REMARK                            x       y       z     vdW  Elec       q    Type
REMARK                         _______ _______ _______ _____ _____    ______ ____
ROOT
ATOM      1  O   UNL     1       6.080   5.503  19.560  0.00  0.00    +0.000 OA
ENDROOT
BRANCH   1   2
ATOM      2  C   UNL     1       4.999   4.719  19.191  0.00  0.00    +0.000 A 
ATOM      3  C   UNL     1       5.014   3.297  19.289  0.00  0.00    +0.000 A 
ATOM      4  C   UNL     1       3.920   2.480  18.933  0.00  0.00    +0.000 A 
ATOM      5  C   UNL     1       2.804   3.180  18.449  0.00  0.00    +0.000 A 
ATOM      6  N   UNL     1       1.624   2.709  18.033  0.00  0.00    +0.000 NA
ATOM      7  O   UNL     1       0.888   3.819  17.657  0.00  0.00    +0.000 OA
ATOM      8  N   UNL     1       1.601   4.995  17.831  0.00  0.00    +0.000 NA
ATOM      9  C   UNL     1       2.790   4.631  18.324  0.00  0.00    +0.000 A 
ATOM     10  C   UNL     1       3.893   5.432  18.686  0.00  0.00    +0.000 A 
ENDBRANCH   1   2
BRANCH   1  12
ATOM     11  O   UNL     1       7.913   6.994  18.659  0.00  0.00    +0.000 OA
ATOM     12  S   UNL     1       7.359   5.661  18.555  0.00  0.00    +0.000 S 
ATOM     13  O   UNL     1       8.185   4.471  18.628  0.00  0.00    +0.000 OA
BRANCH  12  14
ATOM     14  C   UNL     1       6.651   5.593  16.927  0.00  0.00    +0.000 A 
ATOM     15  C   UNL     1       5.793   6.470  16.283  0.00  0.00    +0.000 A 
ATOM     16  C   UNL     1       5.376   5.987  15.010  0.00  0.00    +0.000 A 
ATOM     17  C   UNL     1       5.951   4.772  14.738  0.00  0.00    +0.000 A 
ATOM     18 CL   UNL     1       5.712   3.827  13.325  0.00  0.00    +0.000 Cl
ATOM     19  S   UNL     1       6.969   4.211  15.970  0.00  0.00    +0.000 S 
ENDBRANCH  12  14
ENDBRANCH   1  12
TORSDOF 3
ENDMDL
MODEL 8
REMARK VINA RESULT:      -7.2      3.531      5.353
REMARK  Name = 
REMARK  3 active torsions:
REMARK  status: ('A' for Active; 'I' for Inactive)
REMARK    1  A    between atoms: S_2  and  O_4
REMARK    2  A    between atoms: S_2  and  C_14
REMARK    3  A    between atoms: O_4  and  C_5
REMARK                            x       y       z     vdW  Elec       q    Type
REMARK                         _______ _______ _______ _____ _____    ______ ____
ROOT
ATOM      1  O   UNL     1       3.823   3.049  18.852  0.00  0.00    +0.000 OA
ENDROOT
BRANCH   1   2
ATOM      2  C   UNL     1       4.792   3.876  18.311  0.00  0.00    +0.000 A 
ATOM      3  C   UNL     1       5.537   4.803  19.098  0.00  0.00    +0.000 A 
ATOM      4  C   UNL     1       6.539   5.645  18.571  0.00  0.00    +0.000 A 
ATOM      5  C   UNL     1       6.738   5.517  17.188  0.00  0.00    +0.000 A 
ATOM      6  N   UNL     1       7.599   6.162  16.393  0.00  0.00    +0.000 NA
ATOM      7  O   UNL     1       7.380   5.664  15.121  0.00  0.00    +0.000 OA
ATOM      8  N   UNL     1       6.379   4.705  15.105  0.00  0.00    +0.000 NA
ATOM      9  C   UNL     1       5.965   4.591  16.373  0.00  0.00    +0.000 A 
ATOM     10  C   UNL     1       4.968   3.754  16.918  0.00  0.00    +0.000 A 
ENDBRANCH   1   2
BRANCH   1  12
ATOM     11  O   UNL     1       1.759   3.365  17.427  0.00  0.00    +0.000 OA
ATOM     12  S   UNL     1       2.248   3.476  18.784  0.00  0.00    +0.000 S 
ATOM     13  O   UNL     1       1.539   2.904  19.913  0.00  0.00    +0.000 OA
BRANCH  12  14
ATOM     14  C   UNL     1       2.251   5.221  19.120  0.00  0.00    +0.000 A 
ATOM     15  C   UNL     1       2.113   5.906  20.317  0.00  0.00    +0.000 A 
ATOM     16  C   UNL     1       2.064   7.317  20.134  0.00  0.00    +0.000 A 
ATOM     17  C   UNL     1       2.185   7.640  18.807  0.00  0.00    +0.000 A 
ATOM     18 CL   UNL     1       2.161   9.221  18.138  0.00  0.00    +0.000 Cl
ATOM     19  S   UNL     1       2.353   6.294  17.792  0.00  0.00    +0.000 S 
ENDBRANCH  12  14
ENDBRANCH   1  12
TORSDOF 3
ENDMDL
MODEL 9
REMARK VINA RESULT:      -7.2      3.125      3.882
REMARK  Name = 
REMARK  3 active torsions:
REMARK  status: ('A' for Active; 'I' for Inactive)
REMARK    1  A    between atoms: S_2  and  O_4
REMARK    2  A    between atoms: S_2  and  C_14
REMARK    3  A    between atoms: O_4  and  C_5
REMARK                            x       y       z     vdW  Elec       q    Type
REMARK                         _______ _______ _______ _____ _____    ______ ____
ROOT
ATOM      1  O   UNL     1       3.486   4.727  18.770  0.00  0.00    +0.000 OA
ENDROOT
BRANCH   1   2
ATOM      2  C   UNL     1       2.956   6.004  18.855  0.00  0.00    +0.000 A 
ATOM      3  C   UNL     1       3.080   6.958  17.804  0.00  0.00    +0.000 A 
ATOM      4  C   UNL     1       2.535   8.258  17.862  0.00  0.00    +0.000 A 
ATOM      5  C   UNL     1       1.868   8.556  19.060  0.00  0.00    +0.000 A 
ATOM      6  N   UNL     1       1.250   9.684  19.428  0.00  0.00    +0.000 NA
ATOM      7  O   UNL     1       0.767   9.447  20.703  0.00  0.00    +0.000 OA
ATOM      8  N   UNL     1       1.078   8.172  21.147  0.00  0.00    +0.000 NA
ATOM      9  C   UNL     1       1.757   7.595  20.149  0.00  0.00    +0.000 A 
ATOM     10  C   UNL     1       2.307   6.298  20.072  0.00  0.00    +0.000 A 
ENDBRANCH   1   2
BRANCH   1  12
ATOM     11  O   UNL     1       5.657   5.651  19.680  0.00  0.00    +0.000 OA
ATOM     12  S   UNL     1       5.074   4.478  19.065  0.00  0.00    +0.000 S 
ATOM     13  O   UNL     1       5.265   3.145  19.604  0.00  0.00    +0.000 OA
BRANCH  12  14
ATOM     14  C   UNL     1       5.815   4.399  17.453  0.00  0.00    +0.000 A 
ATOM     15  C   UNL     1       7.072   4.795  17.021  0.00  0.00    +0.000 A 
ATOM     16  C   UNL     1       7.233   4.655  15.613  0.00  0.00    +0.000 A 
ATOM     17  C   UNL     1       6.096   4.141  15.042  0.00  0.00    +0.000 A 
ATOM     18 CL   UNL     1       5.850   3.827  13.373  0.00  0.00    +0.000 Cl
ATOM     19  S   UNL     1       4.857   3.831  16.155  0.00  0.00    +0.000 S 
ENDBRANCH  12  14
ENDBRANCH   1  12
TORSDOF 3
ENDMDL
