MODEL 1
REMARK VINA RESULT:      -8.0      0.000      0.000
REMARK  Name = 
REMARK  3 active torsions:
REMARK  status: ('A' for Active; 'I' for Inactive)
REMARK    1  A    between atoms: C_2  and  C_4
REMARK    2  A    between atoms: C_8  and  C_9
REMARK    3  A    between atoms: C_9  and  C_10
REMARK                            x       y       z     vdW  Elec       q    Type
REMARK                         _______ _______ _______ _____ _____    ______ ____
ROOT
ATOM      1  C   UNL     1       6.839   5.391  18.275  0.00  0.00    +0.000 A 
ATOM      2  C   UNL     1       7.272   4.670  17.157  0.00  0.00    +0.000 A 
ATOM      3  C   UNL     1       6.339   4.199  16.234  0.00  0.00    +0.000 A 
ATOM      4  C   UNL     1       4.980   4.470  16.412  0.00  0.00    +0.000 A 
ATOM      5  C   UNL     1       4.535   5.202  17.524  0.00  0.00    +0.000 A 
ATOM      6  C   UNL     1       5.476   5.631  18.472  0.00  0.00    +0.000 A 
ENDROOT
BRANCH   1   8
ATOM      7  N   UNL     1       8.066   5.354  20.345  0.00  0.00    +0.000 NA
ATOM      8  C   UNL     1       7.827   5.962  19.231  0.00  0.00    +0.000 C 
ATOM      9  N   UNL     1       8.445   7.147  18.945  0.00  0.00    +0.000 N 
ATOM     10  H   UNL     1       8.785   5.858  20.865  0.00  0.00    +0.000 HD
ATOM     11  H   UNL     1       8.789   7.658  19.749  0.00  0.00    +0.000 HD
ATOM     12  H   UNL     1       7.929   7.757  18.317  0.00  0.00    +0.000 HD
ENDBRANCH   1   8
BRANCH   5  13
ATOM     13  C   UNL     1       3.082   5.590  17.661  0.00  0.00    +0.000 C 
BRANCH  13  14
ATOM     14  C   UNL     1       2.239   4.706  18.548  0.00  0.00    +0.000 A 
ATOM     15  C   UNL     1       1.666   3.529  18.044  0.00  0.00    +0.000 A 
ATOM     16  C   UNL     1       0.963   2.664  18.885  0.00  0.00    +0.000 A 
ATOM     17  C   UNL     1       0.812   2.973  20.235  0.00  0.00    +0.000 A 
ATOM     18  C   UNL     1       1.352   4.153  20.742  0.00  0.00    +0.000 A 
ATOM     19  C   UNL     1       2.058   5.017  19.903  0.00  0.00    +0.000 A 
ENDBRANCH  13  14
ENDBRANCH   5  13
TORSDOF 3
ENDMDL
MODEL 2
REMARK VINA RESULT:      -8.0      0.098      1.210
REMARK  Name = 
REMARK  3 active torsions:
REMARK  status: ('A' for Active; 'I' for Inactive)
REMARK    1  A    between atoms: C_2  and  C_4
REMARK    2  A    between atoms: C_8  and  C_9
REMARK    3  A    between atoms: C_9  and  C_10
REMARK                            x       y       z     vdW  Elec       q    Type
REMARK                         _______ _______ _______ _____ _____    ______ ____
ROOT
ATOM      1  C   UNL     1       6.868   5.381  18.238  0.00  0.00    +0.000 A 
ATOM      2  C   UNL     1       7.332   4.703  17.105  0.00  0.00    +0.000 A 
ATOM      3  C   UNL     1       6.422   4.219  16.167  0.00  0.00    +0.000 A 
ATOM      4  C   UNL     1       5.052   4.435  16.345  0.00  0.00    +0.000 A 
ATOM      5  C   UNL     1       4.576   5.123  17.471  0.00  0.00    +0.000 A 
ATOM      6  C   UNL     1       5.496   5.564  18.434  0.00  0.00    +0.000 A 
ENDROOT
BRANCH   1   8
ATOM      7  N   UNL     1       8.056   5.362  20.331  0.00  0.00    +0.000 NA
ATOM      8  C   UNL     1       7.830   5.966  19.211  0.00  0.00    +0.000 C 
ATOM      9  N   UNL     1       8.438   7.159  18.936  0.00  0.00    +0.000 N 
ATOM     10  H   UNL     1       8.758   5.877  20.864  0.00  0.00    +0.000 HD
ATOM     11  H   UNL     1       8.760   7.675  19.746  0.00  0.00    +0.000 HD
ATOM     12  H   UNL     1       7.927   7.761  18.297  0.00  0.00    +0.000 HD
ENDBRANCH   1   8
BRANCH   5  13
ATOM     13  C   UNL     1       3.109   5.452  17.611  0.00  0.00    +0.000 C 
BRANCH  13  14
ATOM     14  C   UNL     1       2.314   4.567  18.540  0.00  0.00    +0.000 A 
ATOM     15  C   UNL     1       2.120   4.931  19.880  0.00  0.00    +0.000 A 
ATOM     16  C   UNL     1       1.310   4.161  20.716  0.00  0.00    +0.000 A 
ATOM     17  C   UNL     1       0.696   3.011  20.227  0.00  0.00    +0.000 A 
ATOM     18  C   UNL     1       0.903   2.622  18.905  0.00  0.00    +0.000 A 
ATOM     19  C   UNL     1       1.711   3.392  18.066  0.00  0.00    +0.000 A 
ENDBRANCH  13  14
ENDBRANCH   5  13
TORSDOF 3
ENDMDL
MODEL 3
REMARK VINA RESULT:      -7.9      2.145      2.724
REMARK  Name = 
REMARK  3 active torsions:
REMARK  status: ('A' for Active; 'I' for Inactive)
REMARK    1  A    between atoms: C_2  and  C_4
REMARK    2  A    between atoms: C_8  and  C_9
REMARK    3  A    between atoms: C_9  and  C_10
REMARK                            x       y       z     vdW  Elec       q    Type
REMARK                         _______ _______ _______ _____ _____    ______ ____
ROOT
ATOM      1  C   UNL     1       6.369   4.989  16.115  0.00  0.00    +0.000 A 
ATOM      2  C   UNL     1       7.235   4.741  17.185  0.00  0.00    +0.000 A 
ATOM      3  C   UNL     1       6.814   4.995  18.490  0.00  0.00    +0.000 A 
ATOM      4  C   UNL     1       5.521   5.469  18.728  0.00  0.00    +0.000 A 
ATOM      5  C   UNL     1       4.639   5.710  17.663  0.00  0.00    +0.000 A 
ATOM      6  C   UNL     1       5.088   5.498  16.351  0.00  0.00    +0.000 A 
ENDROOT
BRANCH   1   8
ATOM      7  N   UNL     1       6.303   3.599  14.151  0.00  0.00    +0.000 NA
ATOM      8  C   UNL     1       6.777   4.657  14.723  0.00  0.00    +0.000 C 
ATOM      9  N   UNL     1       7.682   5.447  14.070  0.00  0.00    +0.000 N 
ATOM     10  H   UNL     1       6.658   3.536  13.196  0.00  0.00    +0.000 HD
ATOM     11  H   UNL     1       8.191   4.991  13.323  0.00  0.00    +0.000 HD
ATOM     12  H   UNL     1       8.309   5.968  14.677  0.00  0.00    +0.000 HD
ENDBRANCH   1   8
BRANCH   5  13
ATOM     13  C   UNL     1       3.208   6.117  17.924  0.00  0.00    +0.000 C 
BRANCH  13  14
ATOM     14  C   UNL     1       2.335   5.086  18.597  0.00  0.00    +0.000 A 
ATOM     15  C   UNL     1       1.885   3.962  17.890  0.00  0.00    +0.000 A 
ATOM     16  C   UNL     1       1.155   2.962  18.534  0.00  0.00    +0.000 A 
ATOM     17  C   UNL     1       0.853   3.081  19.889  0.00  0.00    +0.000 A 
ATOM     18  C   UNL     1       1.270   4.207  20.597  0.00  0.00    +0.000 A 
ATOM     19  C   UNL     1       2.003   5.206  19.955  0.00  0.00    +0.000 A 
ENDBRANCH  13  14
ENDBRANCH   5  13
TORSDOF 3
ENDMDL
MODEL 4
REMARK VINA RESULT:      -7.8      2.178      3.087
REMARK  Name = 
REMARK  3 active torsions:
REMARK  status: ('A' for Active; 'I' for Inactive)
REMARK    1  A    between atoms: C_2  and  C_4
REMARK    2  A    between atoms: C_8  and  C_9
REMARK    3  A    between atoms: C_9  and  C_10
REMARK                            x       y       z     vdW  Elec       q    Type
REMARK                         _______ _______ _______ _____ _____    ______ ____
ROOT
ATOM      1  C   UNL     1       6.444   4.989  16.036  0.00  0.00    +0.000 A 
ATOM      2  C   UNL     1       7.335   4.782  17.095  0.00  0.00    +0.000 A 
ATOM      3  C   UNL     1       6.926   5.033  18.404  0.00  0.00    +0.000 A 
ATOM      4  C   UNL     1       5.621   5.465  18.658  0.00  0.00    +0.000 A 
ATOM      5  C   UNL     1       4.715   5.665  17.605  0.00  0.00    +0.000 A 
ATOM      6  C   UNL     1       5.150   5.455  16.288  0.00  0.00    +0.000 A 
ENDROOT
BRANCH   1   8
ATOM      7  N   UNL     1       7.664   5.427  14.008  0.00  0.00    +0.000 NA
ATOM      8  C   UNL     1       6.842   4.656  14.641  0.00  0.00    +0.000 C 
ATOM      9  N   UNL     1       6.306   3.562  14.022  0.00  0.00    +0.000 N 
ATOM     10  H   UNL     1       7.854   5.041  13.083  0.00  0.00    +0.000 HD
ATOM     11  H   UNL     1       6.306   3.598  13.010  0.00  0.00    +0.000 HD
ATOM     12  H   UNL     1       5.400   3.270  14.379  0.00  0.00    +0.000 HD
ENDBRANCH   1   8
BRANCH   5  13
ATOM     13  C   UNL     1       3.275   6.025  17.885  0.00  0.00    +0.000 C 
BRANCH  13  14
ATOM     14  C   UNL     1       2.451   4.973  18.587  0.00  0.00    +0.000 A 
ATOM     15  C   UNL     1       2.065   5.144  19.924  0.00  0.00    +0.000 A 
ATOM     16  C   UNL     1       1.227   4.217  20.547  0.00  0.00    +0.000 A 
ATOM     17  C   UNL     1       0.776   3.102  19.844  0.00  0.00    +0.000 A 
ATOM     18  C   UNL     1       1.174   2.906  18.523  0.00  0.00    +0.000 A 
ATOM     19  C   UNL     1       2.010   3.833  17.898  0.00  0.00    +0.000 A 
ENDBRANCH  13  14
ENDBRANCH   5  13
TORSDOF 3
ENDMDL
MODEL 5
REMARK VINA RESULT:      -7.6      1.316      1.623
REMARK  Name = 
REMARK  3 active torsions:
REMARK  status: ('A' for Active; 'I' for Inactive)
REMARK    1  A    between atoms: C_2  and  C_4
REMARK    2  A    between atoms: C_8  and  C_9
REMARK    3  A    between atoms: C_9  and  C_10
REMARK                            x       y       z     vdW  Elec       q    Type
REMARK                         _______ _______ _______ _____ _____    ______ ____
ROOT
ATOM      1  C   UNL     1       6.331   5.614  17.937  0.00  0.00    +0.000 A 
ATOM      2  C   UNL     1       6.281   6.232  16.683  0.00  0.00    +0.000 A 
ATOM      3  C   UNL     1       5.093   6.816  16.246  0.00  0.00    +0.000 A 
ATOM      4  C   UNL     1       3.964   6.807  17.070  0.00  0.00    +0.000 A 
ATOM      5  C   UNL     1       4.005   6.199  18.335  0.00  0.00    +0.000 A 
ATOM      6  C   UNL     1       5.191   5.572  18.746  0.00  0.00    +0.000 A 
ENDROOT
BRANCH   1   8
ATOM      7  N   UNL     1       8.222   4.135  17.771  0.00  0.00    +0.000 NA
ATOM      8  C   UNL     1       7.610   5.049  18.448  0.00  0.00    +0.000 C 
ATOM      9  N   UNL     1       8.110   5.471  19.648  0.00  0.00    +0.000 N 
ATOM     10  H   UNL     1       9.092   3.883  18.242  0.00  0.00    +0.000 HD
ATOM     11  H   UNL     1       8.732   4.818  20.108  0.00  0.00    +0.000 HD
ATOM     12  H   UNL     1       7.415   5.833  20.296  0.00  0.00    +0.000 HD
ENDBRANCH   1   8
BRANCH   5  13
ATOM     13  C   UNL     1       2.822   6.283  19.269  0.00  0.00    +0.000 C 
BRANCH  13  14
ATOM     14  C   UNL     1       2.137   4.978  19.593  0.00  0.00    +0.000 A 
ATOM     15  C   UNL     1       1.631   4.165  18.569  0.00  0.00    +0.000 A 
ATOM     16  C   UNL     1       1.079   2.916  18.859  0.00  0.00    +0.000 A 
ATOM     17  C   UNL     1       1.012   2.472  20.177  0.00  0.00    +0.000 A 
ATOM     18  C   UNL     1       1.486   3.282  21.208  0.00  0.00    +0.000 A 
ATOM     19  C   UNL     1       2.041   4.530  20.919  0.00  0.00    +0.000 A 
ENDBRANCH  13  14
ENDBRANCH   5  13
TORSDOF 3
ENDMDL
MODEL 6
REMARK VINA RESULT:      -7.6      2.630      3.366
REMARK  Name = 
REMARK  3 active torsions:
REMARK  status: ('A' for Active; 'I' for Inactive)
REMARK    1  A    between atoms: C_2  and  C_4
REMARK    2  A    between atoms: C_8  and  C_9
REMARK    3  A    between atoms: C_9  and  C_10
REMARK                            x       y       z     vdW  Elec       q    Type
REMARK                         _______ _______ _______ _____ _____    ______ ____
ROOT
ATOM      1  C   UNL     1       5.676   4.796  15.440  0.00  0.00    +0.000 A 
ATOM      2  C   UNL     1       5.399   6.062  15.965  0.00  0.00    +0.000 A 
ATOM      3  C   UNL     1       4.533   6.187  17.050  0.00  0.00    +0.000 A 
ATOM      4  C   UNL     1       3.965   5.047  17.627  0.00  0.00    +0.000 A 
ATOM      5  C   UNL     1       4.244   3.771  17.115  0.00  0.00    +0.000 A 
ATOM      6  C   UNL     1       5.079   3.659  15.993  0.00  0.00    +0.000 A 
ENDROOT
BRANCH   1   8
ATOM      7  N   UNL     1       7.646   5.462  14.227  0.00  0.00    +0.000 NA
ATOM      8  C   UNL     1       6.655   4.639  14.329  0.00  0.00    +0.000 C 
ATOM      9  N   UNL     1       6.478   3.653  13.399  0.00  0.00    +0.000 N 
ATOM     10  H   UNL     1       8.233   5.197  13.436  0.00  0.00    +0.000 HD
ATOM     11  H   UNL     1       6.919   3.823  12.503  0.00  0.00    +0.000 HD
ATOM     12  H   UNL     1       5.517   3.344  13.281  0.00  0.00    +0.000 HD
ENDBRANCH   1   8
BRANCH   5  13
ATOM     13  C   UNL     1       3.720   2.533  17.803  0.00  0.00    +0.000 C 
BRANCH  13  14
ATOM     14  C   UNL     1       2.871   2.762  19.029  0.00  0.00    +0.000 A 
ATOM     15  C   UNL     1       1.502   3.042  18.907  0.00  0.00    +0.000 A 
ATOM     16  C   UNL     1       0.697   3.163  20.041  0.00  0.00    +0.000 A 
ATOM     17  C   UNL     1       1.253   3.021  21.310  0.00  0.00    +0.000 A 
ATOM     18  C   UNL     1       2.618   2.771  21.446  0.00  0.00    +0.000 A 
ATOM     19  C   UNL     1       3.423   2.646  20.313  0.00  0.00    +0.000 A 
ENDBRANCH  13  14
ENDBRANCH   5  13
TORSDOF 3
ENDMDL
MODEL 7
REMARK VINA RESULT:      -7.6      1.386      1.567
REMARK  Name = 
REMARK  3 active torsions:
REMARK  status: ('A' for Active; 'I' for Inactive)
REMARK    1  A    between atoms: C_2  and  C_4
REMARK    2  A    between atoms: C_8  and  C_9
REMARK    3  A    between atoms: C_9  and  C_10
REMARK                            x       y       z     vdW  Elec       q    Type
REMARK                         _______ _______ _______ _____ _____    ______ ____
ROOT
ATOM      1  C   UNL     1       6.711   5.633  18.127  0.00  0.00    +0.000 A 
ATOM      2  C   UNL     1       6.491   6.396  16.975  0.00  0.00    +0.000 A 
ATOM      3  C   UNL     1       5.498   6.018  16.073  0.00  0.00    +0.000 A 
ATOM      4  C   UNL     1       4.707   4.895  16.333  0.00  0.00    +0.000 A 
ATOM      5  C   UNL     1       4.910   4.128  17.491  0.00  0.00    +0.000 A 
ATOM      6  C   UNL     1       5.944   4.488  18.368  0.00  0.00    +0.000 A 
ENDROOT
BRANCH   1   8
ATOM      7  N   UNL     1       7.873   5.378  20.219  0.00  0.00    +0.000 NA
ATOM      8  C   UNL     1       7.718   6.063  19.135  0.00  0.00    +0.000 C 
ATOM      9  N   UNL     1       8.445   7.202  18.928  0.00  0.00    +0.000 N 
ATOM     10  H   UNL     1       8.618   5.789  20.782  0.00  0.00    +0.000 HD
ATOM     11  H   UNL     1       8.809   7.637  19.767  0.00  0.00    +0.000 HD
ATOM     12  H   UNL     1       8.001   7.888  18.323  0.00  0.00    +0.000 HD
ENDBRANCH   1   8
BRANCH   5  13
ATOM     13  C   UNL     1       3.988   2.982  17.828  0.00  0.00    +0.000 C 
BRANCH  13  14
ATOM     14  C   UNL     1       3.104   3.172  19.037  0.00  0.00    +0.000 A 
ATOM     15  C   UNL     1       1.892   3.869  18.931  0.00  0.00    +0.000 A 
ATOM     16  C   UNL     1       1.031   3.968  20.025  0.00  0.00    +0.000 A 
ATOM     17  C   UNL     1       1.377   3.383  21.241  0.00  0.00    +0.000 A 
ATOM     18  C   UNL     1       2.592   2.711  21.367  0.00  0.00    +0.000 A 
ATOM     19  C   UNL     1       3.453   2.609  20.273  0.00  0.00    +0.000 A 
ENDBRANCH  13  14
ENDBRANCH   5  13
TORSDOF 3
ENDMDL
MODEL 8
REMARK VINA RESULT:      -7.5      1.352      2.006
REMARK  Name = 
REMARK  3 active torsions:
REMARK  status: ('A' for Active; 'I' for Inactive)
REMARK    1  A    between atoms: C_2  and  C_4
REMARK    2  A    between atoms: C_8  and  C_9
REMARK    3  A    between atoms: C_9  and  C_10
REMARK                            x       y       z     vdW  Elec       q    Type
REMARK                         _______ _______ _______ _____ _____    ______ ____
ROOT
ATOM      1  C   UNL     1       6.339   5.604  17.932  0.00  0.00    +0.000 A 
ATOM      2  C   UNL     1       6.288   6.233  16.683  0.00  0.00    +0.000 A 
ATOM      3  C   UNL     1       5.098   6.817  16.251  0.00  0.00    +0.000 A 
ATOM      4  C   UNL     1       3.969   6.797  17.075  0.00  0.00    +0.000 A 
ATOM      5  C   UNL     1       4.012   6.179  18.334  0.00  0.00    +0.000 A 
ATOM      6  C   UNL     1       5.199   5.552  18.740  0.00  0.00    +0.000 A 
ENDROOT
BRANCH   1   8
ATOM      7  N   UNL     1       8.233   4.129  17.756  0.00  0.00    +0.000 NA
ATOM      8  C   UNL     1       7.620   5.039  18.438  0.00  0.00    +0.000 C 
ATOM      9  N   UNL     1       8.121   5.456  19.640  0.00  0.00    +0.000 N 
ATOM     10  H   UNL     1       9.103   3.875  18.225  0.00  0.00    +0.000 HD
ATOM     11  H   UNL     1       8.745   4.801  20.095  0.00  0.00    +0.000 HD
ATOM     12  H   UNL     1       7.427   5.814  20.290  0.00  0.00    +0.000 HD
ENDBRANCH   1   8
BRANCH   5  13
ATOM     13  C   UNL     1       2.829   6.252  19.270  0.00  0.00    +0.000 C 
BRANCH  13  14
ATOM     14  C   UNL     1       2.266   4.930  19.734  0.00  0.00    +0.000 A 
ATOM     15  C   UNL     1       2.366   4.545  21.078  0.00  0.00    +0.000 A 
ATOM     16  C   UNL     1       1.767   3.367  21.527  0.00  0.00    +0.000 A 
ATOM     17  C   UNL     1       1.073   2.553  20.635  0.00  0.00    +0.000 A 
ATOM     18  C   UNL     1       0.989   2.910  19.290  0.00  0.00    +0.000 A 
ATOM     19  C   UNL     1       1.586   4.089  18.841  0.00  0.00    +0.000 A 
ENDBRANCH  13  14
ENDBRANCH   5  13
TORSDOF 3
ENDMDL
MODEL 9
REMARK VINA RESULT:      -7.5      2.006      2.851
REMARK  Name = 
REMARK  3 active torsions:
REMARK  status: ('A' for Active; 'I' for Inactive)
REMARK    1  A    between atoms: C_2  and  C_4
REMARK    2  A    between atoms: C_8  and  C_9
REMARK    3  A    between atoms: C_9  and  C_10
REMARK                            x       y       z     vdW  Elec       q    Type
REMARK                         _______ _______ _______ _____ _____    ______ ____
ROOT
ATOM      1  C   UNL     1       5.646   5.381  16.528  0.00  0.00    +0.000 A 
ATOM      2  C   UNL     1       5.350   6.692  16.917  0.00  0.00    +0.000 A 
ATOM      3  C   UNL     1       4.098   6.988  17.455  0.00  0.00    +0.000 A 
ATOM      4  C   UNL     1       3.154   5.973  17.630  0.00  0.00    +0.000 A 
ATOM      5  C   UNL     1       3.444   4.652  17.255  0.00  0.00    +0.000 A 
ATOM      6  C   UNL     1       4.688   4.372  16.670  0.00  0.00    +0.000 A 
ENDROOT
BRANCH   1   8
ATOM      7  N   UNL     1       7.340   5.370  14.819  0.00  0.00    +0.000 NA
ATOM      8  C   UNL     1       7.001   5.035  16.020  0.00  0.00    +0.000 C 
ATOM      9  N   UNL     1       7.866   4.330  16.809  0.00  0.00    +0.000 N 
ATOM     10  H   UNL     1       8.304   5.087  14.641  0.00  0.00    +0.000 HD
ATOM     11  H   UNL     1       8.579   3.813  16.310  0.00  0.00    +0.000 HD
ATOM     12  H   UNL     1       7.423   3.752  17.518  0.00  0.00    +0.000 HD
ENDBRANCH   1   8
BRANCH   5  13
ATOM     13  C   UNL     1       2.468   3.537  17.543  0.00  0.00    +0.000 C 
BRANCH  13  14
ATOM     14  C   UNL     1       2.288   3.169  18.996  0.00  0.00    +0.000 A 
ATOM     15  C   UNL     1       3.387   2.782  19.775  0.00  0.00    +0.000 A 
ATOM     16  C   UNL     1       3.239   2.530  21.140  0.00  0.00    +0.000 A 
ATOM     17  C   UNL     1       1.986   2.649  21.739  0.00  0.00    +0.000 A 
ATOM     18  C   UNL     1       0.880   3.005  20.970  0.00  0.00    +0.000 A 
ATOM     19  C   UNL     1       1.028   3.259  19.606  0.00  0.00    +0.000 A 
ENDBRANCH  13  14
ENDBRANCH   5  13
TORSDOF 3
ENDMDL
