MODEL 1
REMARK VINA RESULT:      -6.7      0.000      0.000
REMARK  Name = 
REMARK  7 active torsions:
REMARK  status: ('A' for Active; 'I' for Inactive)
REMARK    1  A    between atoms: C_1  and  C_2
REMARK    2  A    between atoms: C_3  and  S_4
REMARK    3  A    between atoms: S_4  and  C_5
REMARK    4  A    between atoms: N_13  and  O_14
REMARK    5  A    between atoms: O_14  and  C_15
REMARK    6  A    between atoms: C_15  and  C_16
REMARK    7  A    between atoms: C_16  and  O_17
REMARK                            x       y       z     vdW  Elec       q    Type
REMARK                         _______ _______ _______ _____ _____    ______ ____
ROOT
ATOM      1  C   UNL     1       3.771   1.731  19.602  0.00  0.00    +0.000 C 
ATOM      2  C   UNL     1       3.106   3.072  19.761  0.00  0.00    +0.000 A 
ATOM      3  C   UNL     1       2.835   3.978  18.802  0.00  0.00    +0.000 A 
ATOM      4  N   UNL     1       2.165   5.147  19.130  0.00  0.00    +0.000 N 
ATOM      5  C   UNL     1       1.861   5.540  20.418  0.00  0.00    +0.000 A 
ATOM      6  O   UNL     1       1.360   6.618  20.732  0.00  0.00    +0.000 OA
ATOM      7  N   UNL     1       2.144   4.611  21.380  0.00  0.00    +0.000 N 
ATOM      8  C   UNL     1       2.677   3.378  21.156  0.00  0.00    +0.000 A 
ATOM      9  O   UNL     1       2.780   2.557  22.063  0.00  0.00    +0.000 OA
ATOM     10  H   UNL     1       1.866   4.831  22.325  0.00  0.00    +0.000 HD
ENDROOT
BRANCH   3  11
ATOM     11  S   UNL     1       3.057   3.637  17.105  0.00  0.00    +0.000 S 
BRANCH  11  12
ATOM     12  C   UNL     1       4.663   4.254  16.657  0.00  0.00    +0.000 A 
ATOM     13  C   UNL     1       5.053   4.010  15.330  0.00  0.00    +0.000 A 
ATOM     14  C   UNL     1       6.276   4.471  14.848  0.00  0.00    +0.000 A 
ATOM     15 CL   UNL     1       6.721   4.156  13.217  0.00  0.00    +0.000 Cl
ATOM     16  C   UNL     1       7.132   5.185  15.676  0.00  0.00    +0.000 A 
ATOM     17  C   UNL     1       6.747   5.437  16.990  0.00  0.00    +0.000 A 
ATOM     18 CL   UNL     1       7.802   6.326  18.020  0.00  0.00    +0.000 Cl
ATOM     19  C   UNL     1       5.518   4.984  17.486  0.00  0.00    +0.000 A 
ENDBRANCH  11  12
ENDBRANCH   3  11
BRANCH   4  20
ATOM     20  O   UNL     1       2.061   6.162  18.141  0.00  0.00    +0.000 OA
BRANCH  20  21
ATOM     21  C   UNL     1       3.047   7.180  18.387  0.00  0.00    +0.000 C 
BRANCH  21  22
ATOM     22  C   UNL     1       2.468   8.522  17.954  0.00  0.00    +0.000 C 
BRANCH  22  23
ATOM     23  O   UNL     1       1.523   8.996  18.913  0.00  0.00    +0.000 OA
ATOM     24  H   UNL     1       1.474   8.311  19.605  0.00  0.00    +0.000 HD
ENDBRANCH  22  23
ENDBRANCH  21  22
ENDBRANCH  20  21
ENDBRANCH   4  20
TORSDOF 6
ENDMDL
MODEL 2
REMARK VINA RESULT:      -6.7      1.270      3.596
REMARK  Name = 
REMARK  7 active torsions:
REMARK  status: ('A' for Active; 'I' for Inactive)
REMARK    1  A    between atoms: C_1  and  C_2
REMARK    2  A    between atoms: C_3  and  S_4
REMARK    3  A    between atoms: S_4  and  C_5
REMARK    4  A    between atoms: N_13  and  O_14
REMARK    5  A    between atoms: O_14  and  C_15
REMARK    6  A    between atoms: C_15  and  C_16
REMARK    7  A    between atoms: C_16  and  O_17
REMARK                            x       y       z     vdW  Elec       q    Type
REMARK                         _______ _______ _______ _____ _____    ______ ____
ROOT
ATOM      1  C   UNL     1       2.448   6.914  17.798  0.00  0.00    +0.000 C 
ATOM      2  C   UNL     1       2.356   5.829  18.837  0.00  0.00    +0.000 A 
ATOM      3  C   UNL     1       2.489   4.500  18.658  0.00  0.00    +0.000 A 
ATOM      4  N   UNL     1       2.423   3.650  19.751  0.00  0.00    +0.000 N 
ATOM      5  C   UNL     1       2.084   4.043  21.031  0.00  0.00    +0.000 A 
ATOM      6  O   UNL     1       1.923   3.287  21.986  0.00  0.00    +0.000 OA
ATOM      7  N   UNL     1       1.952   5.394  21.196  0.00  0.00    +0.000 N 
ATOM      8  C   UNL     1       2.127   6.331  20.223  0.00  0.00    +0.000 A 
ATOM      9  O   UNL     1       2.113   7.529  20.487  0.00  0.00    +0.000 OA
ATOM     10  H   UNL     1       1.780   5.726  22.134  0.00  0.00    +0.000 HD
ENDROOT
BRANCH   3  11
ATOM     11  S   UNL     1       3.003   3.809  17.141  0.00  0.00    +0.000 S 
BRANCH  11  12
ATOM     12  C   UNL     1       4.705   4.268  16.910  0.00  0.00    +0.000 A 
ATOM     13  C   UNL     1       5.164   4.233  15.583  0.00  0.00    +0.000 A 
ATOM     14  C   UNL     1       6.470   4.601  15.268  0.00  0.00    +0.000 A 
ATOM     15 CL   UNL     1       6.997   4.549  13.632  0.00  0.00    +0.000 Cl
ATOM     16  C   UNL     1       7.343   5.012  16.266  0.00  0.00    +0.000 A 
ATOM     17  C   UNL     1       6.891   5.055  17.583  0.00  0.00    +0.000 A 
ATOM     18 CL   UNL     1       7.967   5.570  18.824  0.00  0.00    +0.000 Cl
ATOM     19  C   UNL     1       5.579   4.693  17.913  0.00  0.00    +0.000 A 
ENDBRANCH  11  12
ENDBRANCH   3  11
BRANCH   4  20
ATOM     20  O   UNL     1       2.377   2.250  19.510  0.00  0.00    +0.000 OA
BRANCH  20  21
ATOM     21  C   UNL     1       3.694   1.772  19.182  0.00  0.00    +0.000 C 
BRANCH  21  22
ATOM     22  C   UNL     1       4.609   2.038  20.372  0.00  0.00    +0.000 C 
BRANCH  22  23
ATOM     23  O   UNL     1       5.542   0.970  20.539  0.00  0.00    +0.000 OA
ATOM     24  H   UNL     1       6.334   1.366  20.948  0.00  0.00    +0.000 HD
ENDBRANCH  22  23
ENDBRANCH  21  22
ENDBRANCH  20  21
ENDBRANCH   4  20
TORSDOF 6
ENDMDL
MODEL 3
REMARK VINA RESULT:      -6.7      0.652      1.978
REMARK  Name = 
REMARK  7 active torsions:
REMARK  status: ('A' for Active; 'I' for Inactive)
REMARK    1  A    between atoms: C_1  and  C_2
REMARK    2  A    between atoms: C_3  and  S_4
REMARK    3  A    between atoms: S_4  and  C_5
REMARK    4  A    between atoms: N_13  and  O_14
REMARK    5  A    between atoms: O_14  and  C_15
REMARK    6  A    between atoms: C_15  and  C_16
REMARK    7  A    between atoms: C_16  and  O_17
REMARK                            x       y       z     vdW  Elec       q    Type
REMARK                         _______ _______ _______ _____ _____    ______ ____
ROOT
ATOM      1  C   UNL     1       4.002   1.627  19.483  0.00  0.00    +0.000 C 
ATOM      2  C   UNL     1       3.239   2.903  19.710  0.00  0.00    +0.000 A 
ATOM      3  C   UNL     1       2.894   3.834  18.799  0.00  0.00    +0.000 A 
ATOM      4  N   UNL     1       2.139   4.930  19.187  0.00  0.00    +0.000 N 
ATOM      5  C   UNL     1       1.814   5.234  20.494  0.00  0.00    +0.000 A 
ATOM      6  O   UNL     1       1.234   6.253  20.862  0.00  0.00    +0.000 OA
ATOM      7  N   UNL     1       2.171   4.281  21.407  0.00  0.00    +0.000 N 
ATOM      8  C   UNL     1       2.795   3.105  21.120  0.00  0.00    +0.000 A 
ATOM      9  O   UNL     1       2.965   2.250  21.984  0.00  0.00    +0.000 OA
ATOM     10  H   UNL     1       1.882   4.432  22.362  0.00  0.00    +0.000 HD
ENDROOT
BRANCH   3  11
ATOM     11  S   UNL     1       3.133   3.597  17.087  0.00  0.00    +0.000 S 
BRANCH  11  12
ATOM     12  C   UNL     1       4.749   4.226  16.695  0.00  0.00    +0.000 A 
ATOM     13  C   UNL     1       5.532   4.604  17.798  0.00  0.00    +0.000 A 
ATOM     14  C   UNL     1       6.828   5.082  17.624  0.00  0.00    +0.000 A 
ATOM     15 CL   UNL     1       7.760   5.534  18.997  0.00  0.00    +0.000 Cl
ATOM     16  C   UNL     1       7.371   5.191  16.351  0.00  0.00    +0.000 A 
ATOM     17  C   UNL     1       6.602   4.811  15.254  0.00  0.00    +0.000 A 
ATOM     18 CL   UNL     1       7.271   4.938  13.673  0.00  0.00    +0.000 Cl
ATOM     19  C   UNL     1       5.299   4.323  15.415  0.00  0.00    +0.000 A 
ENDBRANCH  11  12
ENDBRANCH   3  11
BRANCH   4  20
ATOM     20  O   UNL     1       1.954   5.983  18.250  0.00  0.00    +0.000 OA
BRANCH  20  21
ATOM     21  C   UNL     1       2.928   7.016  18.484  0.00  0.00    +0.000 C 
BRANCH  21  22
ATOM     22  C   UNL     1       2.209   8.360  18.488  0.00  0.00    +0.000 C 
BRANCH  22  23
ATOM     23  O   UNL     1       2.275   8.971  17.199  0.00  0.00    +0.000 OA
ATOM     24  H   UNL     1       2.782   8.357  16.635  0.00  0.00    +0.000 HD
ENDBRANCH  22  23
ENDBRANCH  21  22
ENDBRANCH  20  21
ENDBRANCH   4  20
TORSDOF 6
ENDMDL
MODEL 4
REMARK VINA RESULT:      -6.5      1.321      4.069
REMARK  Name = 
REMARK  7 active torsions:
REMARK  status: ('A' for Active; 'I' for Inactive)
REMARK    1  A    between atoms: C_1  and  C_2
REMARK    2  A    between atoms: C_3  and  S_4
REMARK    3  A    between atoms: S_4  and  C_5
REMARK    4  A    between atoms: N_13  and  O_14
REMARK    5  A    between atoms: O_14  and  C_15
REMARK    6  A    between atoms: C_15  and  C_16
REMARK    7  A    between atoms: C_16  and  O_17
REMARK                            x       y       z     vdW  Elec       q    Type
REMARK                         _______ _______ _______ _____ _____    ______ ____
ROOT
ATOM      1  C   UNL     1       2.526   6.846  17.649  0.00  0.00    +0.000 C 
ATOM      2  C   UNL     1       2.412   5.810  18.734  0.00  0.00    +0.000 A 
ATOM      3  C   UNL     1       2.515   4.472  18.614  0.00  0.00    +0.000 A 
ATOM      4  N   UNL     1       2.432   3.672  19.743  0.00  0.00    +0.000 N 
ATOM      5  C   UNL     1       2.105   4.128  21.005  0.00  0.00    +0.000 A 
ATOM      6  O   UNL     1       1.929   3.418  21.993  0.00  0.00    +0.000 OA
ATOM      7  N   UNL     1       2.002   5.487  21.111  0.00  0.00    +0.000 N 
ATOM      8  C   UNL     1       2.196   6.376  20.097  0.00  0.00    +0.000 A 
ATOM      9  O   UNL     1       2.210   7.585  20.309  0.00  0.00    +0.000 OA
ATOM     10  H   UNL     1       1.840   5.863  22.033  0.00  0.00    +0.000 HD
ENDROOT
BRANCH   3  11
ATOM     11  S   UNL     1       3.010   3.704  17.128  0.00  0.00    +0.000 S 
BRANCH  11  12
ATOM     12  C   UNL     1       4.652   4.281  16.766  0.00  0.00    +0.000 A 
ATOM     13  C   UNL     1       5.427   4.631  17.883  0.00  0.00    +0.000 A 
ATOM     14  C   UNL     1       6.742   5.068  17.733  0.00  0.00    +0.000 A 
ATOM     15 CL   UNL     1       7.663   5.486  19.123  0.00  0.00    +0.000 Cl
ATOM     16  C   UNL     1       7.309   5.162  16.469  0.00  0.00    +0.000 A 
ATOM     17  C   UNL     1       6.548   4.809  15.358  0.00  0.00    +0.000 A 
ATOM     18 CL   UNL     1       7.248   4.918  13.789  0.00  0.00    +0.000 Cl
ATOM     19  C   UNL     1       5.227   4.363  15.495  0.00  0.00    +0.000 A 
ENDBRANCH  11  12
ENDBRANCH   3  11
BRANCH   4  20
ATOM     20  O   UNL     1       2.355   2.263  19.564  0.00  0.00    +0.000 OA
BRANCH  20  21
ATOM     21  C   UNL     1       3.663   1.741  19.273  0.00  0.00    +0.000 C 
BRANCH  21  22
ATOM     22  C   UNL     1       4.559   1.994  20.481  0.00  0.00    +0.000 C 
BRANCH  22  23
ATOM     23  O   UNL     1       5.593   1.013  20.557  0.00  0.00    +0.000 OA
ATOM     24  H   UNL     1       5.146   0.147  20.519  0.00  0.00    +0.000 HD
ENDBRANCH  22  23
ENDBRANCH  21  22
ENDBRANCH  20  21
ENDBRANCH   4  20
TORSDOF 6
ENDMDL
MODEL 5
REMARK VINA RESULT:      -6.2      4.224      6.280
REMARK  Name = 
REMARK  7 active torsions:
REMARK  status: ('A' for Active; 'I' for Inactive)
REMARK    1  A    between atoms: C_1  and  C_2
REMARK    2  A    between atoms: C_3  and  S_4
REMARK    3  A    between atoms: S_4  and  C_5
REMARK    4  A    between atoms: N_13  and  O_14
REMARK    5  A    between atoms: O_14  and  C_15
REMARK    6  A    between atoms: C_15  and  C_16
REMARK    7  A    between atoms: C_16  and  O_17
REMARK                            x       y       z     vdW  Elec       q    Type
REMARK                         _______ _______ _______ _____ _____    ______ ____
ROOT
ATOM      1  C   UNL     1       5.454   3.814  19.375  0.00  0.00    +0.000 C 
ATOM      2  C   UNL     1       5.914   4.279  18.020  0.00  0.00    +0.000 A 
ATOM      3  C   UNL     1       5.226   4.262  16.862  0.00  0.00    +0.000 A 
ATOM      4  N   UNL     1       5.800   4.783  15.713  0.00  0.00    +0.000 N 
ATOM      5  C   UNL     1       7.110   5.209  15.615  0.00  0.00    +0.000 A 
ATOM      6  O   UNL     1       7.661   5.579  14.580  0.00  0.00    +0.000 OA
ATOM      7  N   UNL     1       7.796   5.220  16.797  0.00  0.00    +0.000 N 
ATOM      8  C   UNL     1       7.289   4.857  18.009  0.00  0.00    +0.000 A 
ATOM      9  O   UNL     1       7.936   5.018  19.040  0.00  0.00    +0.000 OA
ATOM     10  H   UNL     1       8.732   5.598  16.780  0.00  0.00    +0.000 HD
ENDROOT
BRANCH   3  11
ATOM     11  S   UNL     1       3.533   3.846  16.788  0.00  0.00    +0.000 S 
BRANCH  11  12
ATOM     12  C   UNL     1       2.766   4.528  18.240  0.00  0.00    +0.000 A 
ATOM     13  C   UNL     1       2.313   3.589  19.180  0.00  0.00    +0.000 A 
ATOM     14  C   UNL     1       1.724   3.999  20.374  0.00  0.00    +0.000 A 
ATOM     15 CL   UNL     1       1.183   2.821  21.504  0.00  0.00    +0.000 Cl
ATOM     16  C   UNL     1       1.575   5.351  20.654  0.00  0.00    +0.000 A 
ATOM     17  C   UNL     1       2.029   6.287  19.729  0.00  0.00    +0.000 A 
ATOM     18 CL   UNL     1       1.853   7.964  20.074  0.00  0.00    +0.000 Cl
ATOM     19  C   UNL     1       2.629   5.888  18.527  0.00  0.00    +0.000 A 
ENDBRANCH  11  12
ENDBRANCH   3  11
BRANCH   4  20
ATOM     20  O   UNL     1       5.130   4.581  14.475  0.00  0.00    +0.000 OA
BRANCH  20  21
ATOM     21  C   UNL     1       5.610   3.374  13.857  0.00  0.00    +0.000 C 
BRANCH  21  22
ATOM     22  C   UNL     1       5.755   3.628  12.361  0.00  0.00    +0.000 C 
BRANCH  22  23
ATOM     23  O   UNL     1       7.075   4.073  12.050  0.00  0.00    +0.000 OA
ATOM     24  H   UNL     1       7.657   3.300  12.174  0.00  0.00    +0.000 HD
ENDBRANCH  22  23
ENDBRANCH  21  22
ENDBRANCH  20  21
ENDBRANCH   4  20
TORSDOF 6
ENDMDL
MODEL 6
REMARK VINA RESULT:      -6.1      3.859      5.287
REMARK  Name = 
REMARK  7 active torsions:
REMARK  status: ('A' for Active; 'I' for Inactive)
REMARK    1  A    between atoms: C_1  and  C_2
REMARK    2  A    between atoms: C_3  and  S_4
REMARK    3  A    between atoms: S_4  and  C_5
REMARK    4  A    between atoms: N_13  and  O_14
REMARK    5  A    between atoms: O_14  and  C_15
REMARK    6  A    between atoms: C_15  and  C_16
REMARK    7  A    between atoms: C_16  and  O_17
REMARK                            x       y       z     vdW  Elec       q    Type
REMARK                         _______ _______ _______ _____ _____    ______ ____
ROOT
ATOM      1  C   UNL     1       1.033   4.336  17.329  0.00  0.00    +0.000 C 
ATOM      2  C   UNL     1       2.225   3.784  18.064  0.00  0.00    +0.000 A 
ATOM      3  C   UNL     1       3.477   4.280  18.100  0.00  0.00    +0.000 A 
ATOM      4  N   UNL     1       4.440   3.657  18.879  0.00  0.00    +0.000 N 
ATOM      5  C   UNL     1       4.261   2.456  19.535  0.00  0.00    +0.000 A 
ATOM      6  O   UNL     1       5.135   1.842  20.145  0.00  0.00    +0.000 OA
ATOM      7  N   UNL     1       2.987   1.964  19.488  0.00  0.00    +0.000 N 
ATOM      8  C   UNL     1       1.932   2.560  18.866  0.00  0.00    +0.000 A 
ATOM      9  O   UNL     1       0.794   2.115  18.981  0.00  0.00    +0.000 OA
ATOM     10  H   UNL     1       2.799   1.127  20.020  0.00  0.00    +0.000 HD
ENDROOT
BRANCH   3  11
ATOM     11  S   UNL     1       3.887   5.830  17.414  0.00  0.00    +0.000 S 
BRANCH  11  12
ATOM     12  C   UNL     1       2.991   7.060  18.334  0.00  0.00    +0.000 A 
ATOM     13  C   UNL     1       2.875   8.313  17.710  0.00  0.00    +0.000 A 
ATOM     14  C   UNL     1       2.169   9.350  18.315  0.00  0.00    +0.000 A 
ATOM     15 CL   UNL     1       2.045  10.871  17.521  0.00  0.00    +0.000 Cl
ATOM     16  C   UNL     1       1.564   9.160  19.550  0.00  0.00    +0.000 A 
ATOM     17  C   UNL     1       1.669   7.917  20.169  0.00  0.00    +0.000 A 
ATOM     18 CL   UNL     1       0.917   7.674  21.698  0.00  0.00    +0.000 Cl
ATOM     19  C   UNL     1       2.372   6.864  19.570  0.00  0.00    +0.000 A 
ENDBRANCH  11  12
ENDBRANCH   3  11
BRANCH   4  20
ATOM     20  O   UNL     1       5.789   4.088  18.751  0.00  0.00    +0.000 OA
BRANCH  20  21
ATOM     21  C   UNL     1       5.995   5.273  19.541  0.00  0.00    +0.000 C 
BRANCH  21  22
ATOM     22  C   UNL     1       7.444   5.717  19.366  0.00  0.00    +0.000 C 
BRANCH  22  23
ATOM     23  O   UNL     1       8.223   5.356  20.506  0.00  0.00    +0.000 OA
ATOM     24  H   UNL     1       9.107   5.125  20.166  0.00  0.00    +0.000 HD
ENDBRANCH  22  23
ENDBRANCH  21  22
ENDBRANCH  20  21
ENDBRANCH   4  20
TORSDOF 6
ENDMDL
MODEL 7
REMARK VINA RESULT:      -6.1      2.490      4.356
REMARK  Name = 
REMARK  7 active torsions:
REMARK  status: ('A' for Active; 'I' for Inactive)
REMARK    1  A    between atoms: C_1  and  C_2
REMARK    2  A    between atoms: C_3  and  S_4
REMARK    3  A    between atoms: S_4  and  C_5
REMARK    4  A    between atoms: N_13  and  O_14
REMARK    5  A    between atoms: O_14  and  C_15
REMARK    6  A    between atoms: C_15  and  C_16
REMARK    7  A    between atoms: C_16  and  O_17
REMARK                            x       y       z     vdW  Elec       q    Type
REMARK                         _______ _______ _______ _____ _____    ______ ____
ROOT
ATOM      1  C   UNL     1       2.563   8.415  17.861  0.00  0.00    +0.000 C 
ATOM      2  C   UNL     1       2.547   7.212  18.763  0.00  0.00    +0.000 A 
ATOM      3  C   UNL     1       3.169   6.031  18.578  0.00  0.00    +0.000 A 
ATOM      4  N   UNL     1       3.081   5.048  19.551  0.00  0.00    +0.000 N 
ATOM      5  C   UNL     1       2.273   5.121  20.668  0.00  0.00    +0.000 A 
ATOM      6  O   UNL     1       2.108   4.217  21.485  0.00  0.00    +0.000 OA
ATOM      7  N   UNL     1       1.648   6.323  20.842  0.00  0.00    +0.000 N 
ATOM      8  C   UNL     1       1.769   7.404  20.022  0.00  0.00    +0.000 A 
ATOM      9  O   UNL     1       1.273   8.486  20.321  0.00  0.00    +0.000 OA
ATOM     10  H   UNL     1       1.109   6.442  21.688  0.00  0.00    +0.000 HD
ENDROOT
BRANCH   3  11
ATOM     11  S   UNL     1       4.305   5.768  17.280  0.00  0.00    +0.000 S 
BRANCH  11  12
ATOM     12  C   UNL     1       5.914   6.199  17.900  0.00  0.00    +0.000 A 
ATOM     13  C   UNL     1       6.428   7.423  17.443  0.00  0.00    +0.000 A 
ATOM     14  C   UNL     1       7.666   7.887  17.882  0.00  0.00    +0.000 A 
ATOM     15 CL   UNL     1       8.264   9.392  17.303  0.00  0.00    +0.000 Cl
ATOM     16  C   UNL     1       8.414   7.143  18.784  0.00  0.00    +0.000 A 
ATOM     17  C   UNL     1       7.906   5.932  19.247  0.00  0.00    +0.000 A 
ATOM     18 CL   UNL     1       8.826   5.008  20.370  0.00  0.00    +0.000 Cl
ATOM     19  C   UNL     1       6.660   5.456  18.818  0.00  0.00    +0.000 A 
ENDBRANCH  11  12
ENDBRANCH   3  11
BRANCH   4  20
ATOM     20  O   UNL     1       3.586   3.754  19.246  0.00  0.00    +0.000 OA
BRANCH  20  21
ATOM     21  C   UNL     1       2.584   2.997  18.544  0.00  0.00    +0.000 C 
BRANCH  21  22
ATOM     22  C   UNL     1       3.151   1.613  18.249  0.00  0.00    +0.000 C 
BRANCH  22  23
ATOM     23  O   UNL     1       4.360   1.397  18.976  0.00  0.00    +0.000 OA
ATOM     24  H   UNL     1       4.091   1.086  19.861  0.00  0.00    +0.000 HD
ENDBRANCH  22  23
ENDBRANCH  21  22
ENDBRANCH  20  21
ENDBRANCH   4  20
TORSDOF 6
ENDMDL
MODEL 8
REMARK VINA RESULT:      -6.0      4.277      6.502
REMARK  Name = 
REMARK  7 active torsions:
REMARK  status: ('A' for Active; 'I' for Inactive)
REMARK    1  A    between atoms: C_1  and  C_2
REMARK    2  A    between atoms: C_3  and  S_4
REMARK    3  A    between atoms: S_4  and  C_5
REMARK    4  A    between atoms: N_13  and  O_14
REMARK    5  A    between atoms: O_14  and  C_15
REMARK    6  A    between atoms: C_15  and  C_16
REMARK    7  A    between atoms: C_16  and  O_17
REMARK                            x       y       z     vdW  Elec       q    Type
REMARK                         _______ _______ _______ _____ _____    ______ ____
ROOT
ATOM      1  C   UNL     1       6.165   5.318  19.465  0.00  0.00    +0.000 C 
ATOM      2  C   UNL     1       6.458   5.268  17.990  0.00  0.00    +0.000 A 
ATOM      3  C   UNL     1       5.954   4.418  17.075  0.00  0.00    +0.000 A 
ATOM      4  N   UNL     1       6.304   4.557  15.740  0.00  0.00    +0.000 N 
ATOM      5  C   UNL     1       7.262   5.433  15.269  0.00  0.00    +0.000 A 
ATOM      6  O   UNL     1       7.655   5.496  14.106  0.00  0.00    +0.000 OA
ATOM      7  N   UNL     1       7.765   6.288  16.209  0.00  0.00    +0.000 N 
ATOM      8  C   UNL     1       7.395   6.330  17.519  0.00  0.00    +0.000 A 
ATOM      9  O   UNL     1       7.805   7.214  18.266  0.00  0.00    +0.000 OA
ATOM     10  H   UNL     1       8.411   6.993  15.887  0.00  0.00    +0.000 HD
ENDROOT
BRANCH   3  11
ATOM     11  S   UNL     1       4.669   3.299  17.449  0.00  0.00    +0.000 S 
BRANCH  11  12
ATOM     12  C   UNL     1       3.551   4.139  18.547  0.00  0.00    +0.000 A 
ATOM     13  C   UNL     1       3.002   3.347  19.568  0.00  0.00    +0.000 A 
ATOM     14  C   UNL     1       2.137   3.896  20.512  0.00  0.00    +0.000 A 
ATOM     15 CL   UNL     1       1.484   2.897  21.751  0.00  0.00    +0.000 Cl
ATOM     16  C   UNL     1       1.805   5.243  20.459  0.00  0.00    +0.000 A 
ATOM     17  C   UNL     1       2.353   6.035  19.453  0.00  0.00    +0.000 A 
ATOM     18 CL   UNL     1       1.949   7.707  19.386  0.00  0.00    +0.000 Cl
ATOM     19  C   UNL     1       3.228   5.497  18.501  0.00  0.00    +0.000 A 
ENDBRANCH  11  12
ENDBRANCH   3  11
BRANCH   4  20
ATOM     20  O   UNL     1       5.909   3.537  14.833  0.00  0.00    +0.000 OA
BRANCH  20  21
ATOM     21  C   UNL     1       5.227   4.125  13.711  0.00  0.00    +0.000 C 
BRANCH  21  22
ATOM     22  C   UNL     1       5.603   3.341  12.458  0.00  0.00    +0.000 C 
BRANCH  22  23
ATOM     23  O   UNL     1       6.876   3.759  11.965  0.00  0.00    +0.000 OA
ATOM     24  H   UNL     1       6.854   3.607  11.001  0.00  0.00    +0.000 HD
ENDBRANCH  22  23
ENDBRANCH  21  22
ENDBRANCH  20  21
ENDBRANCH   4  20
TORSDOF 6
ENDMDL
MODEL 9
REMARK VINA RESULT:      -6.0      3.929      6.071
REMARK  Name = 
REMARK  7 active torsions:
REMARK  status: ('A' for Active; 'I' for Inactive)
REMARK    1  A    between atoms: C_1  and  C_2
REMARK    2  A    between atoms: C_3  and  S_4
REMARK    3  A    between atoms: S_4  and  C_5
REMARK    4  A    between atoms: N_13  and  O_14
REMARK    5  A    between atoms: O_14  and  C_15
REMARK    6  A    between atoms: C_15  and  C_16
REMARK    7  A    between atoms: C_16  and  O_17
REMARK                            x       y       z     vdW  Elec       q    Type
REMARK                         _______ _______ _______ _____ _____    ______ ____
ROOT
ATOM      1  C   UNL     1       8.032   5.613  19.884  0.00  0.00    +0.000 C 
ATOM      2  C   UNL     1       7.216   5.902  18.653  0.00  0.00    +0.000 A 
ATOM      3  C   UNL     1       6.222   5.161  18.127  0.00  0.00    +0.000 A 
ATOM      4  N   UNL     1       5.544   5.616  17.006  0.00  0.00    +0.000 N 
ATOM      5  C   UNL     1       5.899   6.732  16.275  0.00  0.00    +0.000 A 
ATOM      6  O   UNL     1       5.372   7.090  15.224  0.00  0.00    +0.000 OA
ATOM      7  N   UNL     1       6.910   7.473  16.820  0.00  0.00    +0.000 N 
ATOM      8  C   UNL     1       7.556   7.193  17.987  0.00  0.00    +0.000 A 
ATOM      9  O   UNL     1       8.365   7.981  18.468  0.00  0.00    +0.000 OA
ATOM     10  H   UNL     1       7.147   8.338  16.356  0.00  0.00    +0.000 HD
ENDROOT
BRANCH   3  11
ATOM     11  S   UNL     1       5.564   3.767  18.944  0.00  0.00    +0.000 S 
BRANCH  11  12
ATOM     12  C   UNL     1       3.868   4.138  19.324  0.00  0.00    +0.000 A 
ATOM     13  C   UNL     1       2.946   3.125  19.013  0.00  0.00    +0.000 A 
ATOM     14  C   UNL     1       1.590   3.282  19.292  0.00  0.00    +0.000 A 
ATOM     15 CL   UNL     1       0.489   2.020  18.901  0.00  0.00    +0.000 Cl
ATOM     16  C   UNL     1       1.127   4.448  19.887  0.00  0.00    +0.000 A 
ATOM     17  C   UNL     1       2.038   5.453  20.204  0.00  0.00    +0.000 A 
ATOM     18 CL   UNL     1       1.470   6.899  20.946  0.00  0.00    +0.000 Cl
ATOM     19  C   UNL     1       3.404   5.306  19.934  0.00  0.00    +0.000 A 
ENDBRANCH  11  12
ENDBRANCH   3  11
BRANCH   4  20
ATOM     20  O   UNL     1       4.634   4.731  16.366  0.00  0.00    +0.000 OA
BRANCH  20  21
ATOM     21  C   UNL     1       5.365   3.703  15.674  0.00  0.00    +0.000 C 
BRANCH  21  22
ATOM     22  C   UNL     1       5.621   4.176  14.248  0.00  0.00    +0.000 C 
BRANCH  22  23
ATOM     23  O   UNL     1       6.262   3.154  13.484  0.00  0.00    +0.000 OA
ATOM     24  H   UNL     1       6.346   3.507  12.579  0.00  0.00    +0.000 HD
ENDBRANCH  22  23
ENDBRANCH  21  22
ENDBRANCH  20  21
ENDBRANCH   4  20
TORSDOF 6
ENDMDL
