MODEL 1
REMARK VINA RESULT:      -8.0      0.000      0.000
REMARK  Name = 
REMARK  6 active torsions:
REMARK  status: ('A' for Active; 'I' for Inactive)
REMARK    1  A    between atoms: C_2  and  C_3
REMARK    2  A    between atoms: C_3  and  C_4
REMARK    3  A    between atoms: C_7  and  O_8
REMARK    4  A    between atoms: O_8  and  C_9
REMARK    5  A    between atoms: C_10  and  C_11
REMARK    6  A    between atoms: N_14  and  C_15
REMARK                            x       y       z     vdW  Elec       q    Type
REMARK                         _______ _______ _______ _____ _____    ______ ____
ROOT
ATOM      1  C   UNL     1       2.641   3.860  17.992  0.00  0.00    +0.000 A 
ATOM      2  C   UNL     1       3.883   3.732  17.372  0.00  0.00    +0.000 A 
ATOM      3  C   UNL     1       4.664   4.861  17.123  0.00  0.00    +0.000 A 
ATOM      4  C   UNL     1       4.226   6.145  17.492  0.00  0.00    +0.000 A 
ATOM      5  C   UNL     1       2.947   6.308  18.069  0.00  0.00    +0.000 A 
ATOM      6  C   UNL     1       2.178   5.146  18.311  0.00  0.00    +0.000 A 
ENDROOT
BRANCH   5   7
ATOM      7  C   UNL     1       2.359   7.619  18.434  0.00  0.00    +0.000 A 
ATOM      8  C   UNL     1       2.195   8.789  17.652  0.00  0.00    +0.000 A 
ATOM      9  C   UNL     1       1.555   9.700  18.456  0.00  0.00    +0.000 A 
ATOM     10  N   UNL     1       1.346   9.081  19.664  0.00  0.00    +0.000 N 
ATOM     11  N   UNL     1       1.886   7.839  19.677  0.00  0.00    +0.000 NA
BRANCH  10  12
ATOM     12  C   UNL     1       0.654   9.594  20.800  0.00  0.00    +0.000 A 
ATOM     13  C   UNL     1      -0.195  10.705  20.689  0.00  0.00    +0.000 A 
ATOM     14  C   UNL     1      -0.886  11.176  21.811  0.00  0.00    +0.000 A 
ATOM     15  C   UNL     1      -0.728  10.550  23.047  0.00  0.00    +0.000 A 
ATOM     16  C   UNL     1       0.118   9.450  23.165  0.00  0.00    +0.000 A 
ATOM     17  C   UNL     1       0.802   8.967  22.046  0.00  0.00    +0.000 A 
ENDBRANCH  10  12
ENDBRANCH   5   7
BRANCH   4  18
ATOM     18  O   UNL     1       4.997   7.255  17.244  0.00  0.00    +0.000 OA
ATOM     19  C   UNL     1       6.408   7.067  17.324  0.00  0.00    +0.000 C 
ENDBRANCH   4  18
BRANCH   1  20
ATOM     20  C   UNL     1       1.813   2.638  18.308  0.00  0.00    +0.000 C 
BRANCH  20  22
ATOM     21  C   UNL     1       1.301   2.747  20.766  0.00  0.00    +0.000 C 
ATOM     22  C   UNL     1       0.904   2.826  19.488  0.00  0.00    +0.000 C 
ENDBRANCH  20  22
ENDBRANCH   1  20
TORSDOF 5
ENDMDL
MODEL 2
REMARK VINA RESULT:      -8.0      4.025      6.234
REMARK  Name = 
REMARK  6 active torsions:
REMARK  status: ('A' for Active; 'I' for Inactive)
REMARK    1  A    between atoms: C_2  and  C_3
REMARK    2  A    between atoms: C_3  and  C_4
REMARK    3  A    between atoms: C_7  and  O_8
REMARK    4  A    between atoms: O_8  and  C_9
REMARK    5  A    between atoms: C_10  and  C_11
REMARK    6  A    between atoms: N_14  and  C_15
REMARK                            x       y       z     vdW  Elec       q    Type
REMARK                         _______ _______ _______ _____ _____    ______ ____
ROOT
ATOM      1  C   UNL     1       5.370   3.687  12.597  0.00  0.00    +0.000 A 
ATOM      2  C   UNL     1       6.740   3.877  12.429  0.00  0.00    +0.000 A 
ATOM      3  C   UNL     1       7.501   4.444  13.451  0.00  0.00    +0.000 A 
ATOM      4  C   UNL     1       6.913   4.829  14.669  0.00  0.00    +0.000 A 
ATOM      5  C   UNL     1       5.517   4.699  14.843  0.00  0.00    +0.000 A 
ATOM      6  C   UNL     1       4.771   4.121  13.790  0.00  0.00    +0.000 A 
ENDROOT
BRANCH   5   7
ATOM      7  C   UNL     1       4.785   5.134  16.056  0.00  0.00    +0.000 A 
ATOM      8  C   UNL     1       4.597   6.435  16.585  0.00  0.00    +0.000 A 
ATOM      9  C   UNL     1       3.805   6.285  17.697  0.00  0.00    +0.000 A 
ATOM     10  N   UNL     1       3.534   4.944  17.810  0.00  0.00    +0.000 N 
ATOM     11  N   UNL     1       4.176   4.233  16.852  0.00  0.00    +0.000 NA
BRANCH  10  12
ATOM     12  C   UNL     1       2.692   4.300  18.764  0.00  0.00    +0.000 A 
ATOM     13  C   UNL     1       2.875   4.499  20.140  0.00  0.00    +0.000 A 
ATOM     14  C   UNL     1       2.021   3.879  21.059  0.00  0.00    +0.000 A 
ATOM     15  C   UNL     1       0.990   3.054  20.614  0.00  0.00    +0.000 A 
ATOM     16  C   UNL     1       0.807   2.847  19.248  0.00  0.00    +0.000 A 
ATOM     17  C   UNL     1       1.649   3.473  18.325  0.00  0.00    +0.000 A 
ENDBRANCH  10  12
ENDBRANCH   5   7
BRANCH   4  18
ATOM     18  O   UNL     1       7.665   5.387  15.674  0.00  0.00    +0.000 OA
ATOM     19  C   UNL     1       7.699   4.667  16.904  0.00  0.00    +0.000 C 
ENDBRANCH   4  18
BRANCH   1  20
ATOM     20  C   UNL     1       4.549   3.030  11.512  0.00  0.00    +0.000 C 
BRANCH  20  22
ATOM     21  C   UNL     1       3.009   3.762   9.666  0.00  0.00    +0.000 C 
ATOM     22  C   UNL     1       3.559   3.960  10.873  0.00  0.00    +0.000 C 
ENDBRANCH  20  22
ENDBRANCH   1  20
TORSDOF 5
ENDMDL
MODEL 3
REMARK VINA RESULT:      -7.8      0.386      1.103
REMARK  Name = 
REMARK  6 active torsions:
REMARK  status: ('A' for Active; 'I' for Inactive)
REMARK    1  A    between atoms: C_2  and  C_3
REMARK    2  A    between atoms: C_3  and  C_4
REMARK    3  A    between atoms: C_7  and  O_8
REMARK    4  A    between atoms: O_8  and  C_9
REMARK    5  A    between atoms: C_10  and  C_11
REMARK    6  A    between atoms: N_14  and  C_15
REMARK                            x       y       z     vdW  Elec       q    Type
REMARK                         _______ _______ _______ _____ _____    ______ ____
ROOT
ATOM      1  C   UNL     1       2.486   3.764  18.423  0.00  0.00    +0.000 A 
ATOM      2  C   UNL     1       3.668   3.567  17.712  0.00  0.00    +0.000 A 
ATOM      3  C   UNL     1       4.432   4.660  17.302  0.00  0.00    +0.000 A 
ATOM      4  C   UNL     1       4.036   5.977  17.597  0.00  0.00    +0.000 A 
ATOM      5  C   UNL     1       2.813   6.206  18.266  0.00  0.00    +0.000 A 
ATOM      6  C   UNL     1       2.060   5.079  18.670  0.00  0.00    +0.000 A 
ENDROOT
BRANCH   5   7
ATOM      7  C   UNL     1       2.268   7.550  18.567  0.00  0.00    +0.000 A 
ATOM      8  C   UNL     1       2.180   8.700  17.741  0.00  0.00    +0.000 A 
ATOM      9  C   UNL     1       1.550   9.662  18.493  0.00  0.00    +0.000 A 
ATOM     10  N   UNL     1       1.274   9.093  19.712  0.00  0.00    +0.000 N 
ATOM     11  N   UNL     1       1.762   7.832  19.784  0.00  0.00    +0.000 NA
BRANCH  10  12
ATOM     12  C   UNL     1       0.566   9.672  20.805  0.00  0.00    +0.000 A 
ATOM     13  C   UNL     1       0.477   9.013  22.040  0.00  0.00    +0.000 A 
ATOM     14  C   UNL     1      -0.200   9.611  23.108  0.00  0.00    +0.000 A 
ATOM     15  C   UNL     1      -0.798  10.860  22.950  0.00  0.00    +0.000 A 
ATOM     16  C   UNL     1      -0.719  11.518  21.724  0.00  0.00    +0.000 A 
ATOM     17  C   UNL     1      -0.034  10.931  20.657  0.00  0.00    +0.000 A 
ENDBRANCH  10  12
ENDBRANCH   5   7
BRANCH   4  18
ATOM     18  O   UNL     1       4.791   7.051  17.191  0.00  0.00    +0.000 OA
ATOM     19  C   UNL     1       6.201   6.846  17.151  0.00  0.00    +0.000 C 
ENDBRANCH   4  18
BRANCH   1  20
ATOM     20  C   UNL     1       1.680   2.584  18.911  0.00  0.00    +0.000 C 
BRANCH  20  22
ATOM     21  C   UNL     1       2.086   2.764  21.385  0.00  0.00    +0.000 C 
ATOM     22  C   UNL     1       1.245   2.715  20.342  0.00  0.00    +0.000 C 
ENDBRANCH  20  22
ENDBRANCH   1  20
TORSDOF 5
ENDMDL
MODEL 4
REMARK VINA RESULT:      -7.7      3.136      7.387
REMARK  Name = 
REMARK  6 active torsions:
REMARK  status: ('A' for Active; 'I' for Inactive)
REMARK    1  A    between atoms: C_2  and  C_3
REMARK    2  A    between atoms: C_3  and  C_4
REMARK    3  A    between atoms: C_7  and  O_8
REMARK    4  A    between atoms: O_8  and  C_9
REMARK    5  A    between atoms: C_10  and  C_11
REMARK    6  A    between atoms: N_14  and  C_15
REMARK                            x       y       z     vdW  Elec       q    Type
REMARK                         _______ _______ _______ _____ _____    ______ ____
ROOT
ATOM      1  C   UNL     1       2.665   4.760  20.428  0.00  0.00    +0.000 A 
ATOM      2  C   UNL     1       1.802   5.853  20.490  0.00  0.00    +0.000 A 
ATOM      3  C   UNL     1       1.969   6.930  19.620  0.00  0.00    +0.000 A 
ATOM      4  C   UNL     1       2.999   6.940  18.662  0.00  0.00    +0.000 A 
ATOM      5  C   UNL     1       3.921   5.871  18.617  0.00  0.00    +0.000 A 
ATOM      6  C   UNL     1       3.728   4.793  19.511  0.00  0.00    +0.000 A 
ENDROOT
BRANCH   5   7
ATOM      7  C   UNL     1       5.081   5.811  17.696  0.00  0.00    +0.000 A 
ATOM      8  C   UNL     1       6.436   6.159  17.918  0.00  0.00    +0.000 A 
ATOM      9  C   UNL     1       7.103   5.868  16.753  0.00  0.00    +0.000 A 
ATOM     10  N   UNL     1       6.170   5.361  15.882  0.00  0.00    +0.000 N 
ATOM     11  N   UNL     1       4.930   5.380  16.427  0.00  0.00    +0.000 NA
BRANCH  10  12
ATOM     12  C   UNL     1       6.389   4.848  14.569  0.00  0.00    +0.000 A 
ATOM     13  C   UNL     1       5.517   3.906  14.006  0.00  0.00    +0.000 A 
ATOM     14  C   UNL     1       5.734   3.436  12.706  0.00  0.00    +0.000 A 
ATOM     15  C   UNL     1       6.822   3.895  11.967  0.00  0.00    +0.000 A 
ATOM     16  C   UNL     1       7.697   4.826  12.522  0.00  0.00    +0.000 A 
ATOM     17  C   UNL     1       7.478   5.309  13.816  0.00  0.00    +0.000 A 
ENDBRANCH  10  12
ENDBRANCH   5   7
BRANCH   4  18
ATOM     18  O   UNL     1       3.161   8.003  17.807  0.00  0.00    +0.000 OA
ATOM     19  C   UNL     1       2.212   9.059  17.934  0.00  0.00    +0.000 C 
ENDBRANCH   4  18
BRANCH   1  20
ATOM     20  C   UNL     1       2.460   3.570  21.335  0.00  0.00    +0.000 C 
BRANCH  20  22
ATOM     21  C   UNL     1       0.851   2.601  19.665  0.00  0.00    +0.000 C 
ATOM     22  C   UNL     1       1.308   2.702  20.922  0.00  0.00    +0.000 C 
ENDBRANCH  20  22
ENDBRANCH   1  20
TORSDOF 5
ENDMDL
MODEL 5
REMARK VINA RESULT:      -7.7      3.140      7.381
REMARK  Name = 
REMARK  6 active torsions:
REMARK  status: ('A' for Active; 'I' for Inactive)
REMARK    1  A    between atoms: C_2  and  C_3
REMARK    2  A    between atoms: C_3  and  C_4
REMARK    3  A    between atoms: C_7  and  O_8
REMARK    4  A    between atoms: O_8  and  C_9
REMARK    5  A    between atoms: C_10  and  C_11
REMARK    6  A    between atoms: N_14  and  C_15
REMARK                            x       y       z     vdW  Elec       q    Type
REMARK                         _______ _______ _______ _____ _____    ______ ____
ROOT
ATOM      1  C   UNL     1       2.660   4.635  20.349  0.00  0.00    +0.000 A 
ATOM      2  C   UNL     1       1.818   5.739  20.476  0.00  0.00    +0.000 A 
ATOM      3  C   UNL     1       2.006   6.861  19.669  0.00  0.00    +0.000 A 
ATOM      4  C   UNL     1       3.036   6.907  18.713  0.00  0.00    +0.000 A 
ATOM      5  C   UNL     1       3.938   5.825  18.605  0.00  0.00    +0.000 A 
ATOM      6  C   UNL     1       3.723   4.700  19.435  0.00  0.00    +0.000 A 
ENDROOT
BRANCH   5   7
ATOM      7  C   UNL     1       5.096   5.796  17.681  0.00  0.00    +0.000 A 
ATOM      8  C   UNL     1       6.446   6.166  17.906  0.00  0.00    +0.000 A 
ATOM      9  C   UNL     1       7.115   5.901  16.736  0.00  0.00    +0.000 A 
ATOM     10  N   UNL     1       6.190   5.386  15.861  0.00  0.00    +0.000 N 
ATOM     11  N   UNL     1       4.951   5.377  16.408  0.00  0.00    +0.000 NA
BRANCH  10  12
ATOM     12  C   UNL     1       6.415   4.893  14.542  0.00  0.00    +0.000 A 
ATOM     13  C   UNL     1       7.505   5.338  13.779  0.00  0.00    +0.000 A 
ATOM     14  C   UNL     1       7.723   4.821  12.498  0.00  0.00    +0.000 A 
ATOM     15  C   UNL     1       6.855   3.868  11.968  0.00  0.00    +0.000 A 
ATOM     16  C   UNL     1       5.767   3.426  12.717  0.00  0.00    +0.000 A 
ATOM     17  C   UNL     1       5.550   3.930  14.003  0.00  0.00    +0.000 A 
ENDBRANCH  10  12
ENDBRANCH   5   7
BRANCH   4  18
ATOM     18  O   UNL     1       3.219   8.015  17.921  0.00  0.00    +0.000 OA
ATOM     19  C   UNL     1       2.101   8.891  17.802  0.00  0.00    +0.000 C 
ENDBRANCH   4  18
BRANCH   1  20
ATOM     20  C   UNL     1       2.431   3.398  21.185  0.00  0.00    +0.000 C 
BRANCH  20  22
ATOM     21  C   UNL     1       0.933   2.495  19.381  0.00  0.00    +0.000 C 
ATOM     22  C   UNL     1       1.328   2.524  20.662  0.00  0.00    +0.000 C 
ENDBRANCH  20  22
ENDBRANCH   1  20
TORSDOF 5
ENDMDL
MODEL 6
REMARK VINA RESULT:      -7.7      3.775      5.850
REMARK  Name = 
REMARK  6 active torsions:
REMARK  status: ('A' for Active; 'I' for Inactive)
REMARK    1  A    between atoms: C_2  and  C_3
REMARK    2  A    between atoms: C_3  and  C_4
REMARK    3  A    between atoms: C_7  and  O_8
REMARK    4  A    between atoms: O_8  and  C_9
REMARK    5  A    between atoms: C_10  and  C_11
REMARK    6  A    between atoms: N_14  and  C_15
REMARK                            x       y       z     vdW  Elec       q    Type
REMARK                         _______ _______ _______ _____ _____    ______ ____
ROOT
ATOM      1  C   UNL     1       5.882   3.813  13.322  0.00  0.00    +0.000 A 
ATOM      2  C   UNL     1       7.188   4.291  13.237  0.00  0.00    +0.000 A 
ATOM      3  C   UNL     1       7.703   5.113  14.240  0.00  0.00    +0.000 A 
ATOM      4  C   UNL     1       6.926   5.473  15.356  0.00  0.00    +0.000 A 
ATOM      5  C   UNL     1       5.581   5.049  15.438  0.00  0.00    +0.000 A 
ATOM      6  C   UNL     1       5.087   4.217  14.407  0.00  0.00    +0.000 A 
ENDROOT
BRANCH   5   7
ATOM      7  C   UNL     1       4.655   5.424  16.532  0.00  0.00    +0.000 A 
ATOM      8  C   UNL     1       4.145   6.696  16.894  0.00  0.00    +0.000 A 
ATOM      9  C   UNL     1       3.293   6.481  17.950  0.00  0.00    +0.000 A 
ATOM     10  N   UNL     1       3.299   5.129  18.192  0.00  0.00    +0.000 N 
ATOM     11  N   UNL     1       4.170   4.490  17.375  0.00  0.00    +0.000 NA
BRANCH  10  12
ATOM     12  C   UNL     1       2.519   4.409  19.143  0.00  0.00    +0.000 A 
ATOM     13  C   UNL     1       1.478   3.564  18.734  0.00  0.00    +0.000 A 
ATOM     14  C   UNL     1       0.742   2.845  19.682  0.00  0.00    +0.000 A 
ATOM     15  C   UNL     1       1.033   2.971  21.039  0.00  0.00    +0.000 A 
ATOM     16  C   UNL     1       2.062   3.814  21.454  0.00  0.00    +0.000 A 
ATOM     17  C   UNL     1       2.809   4.526  20.511  0.00  0.00    +0.000 A 
ENDBRANCH  10  12
ENDBRANCH   5   7
BRANCH   4  18
ATOM     18  O   UNL     1       7.435   6.283  16.343  0.00  0.00    +0.000 OA
ATOM     19  C   UNL     1       7.606   5.679  17.623  0.00  0.00    +0.000 C 
ENDBRANCH   4  18
BRANCH   1  20
ATOM     20  C   UNL     1       5.336   2.885  12.264  0.00  0.00    +0.000 C 
BRANCH  20  22
ATOM     21  C   UNL     1       3.337   3.137  10.763  0.00  0.00    +0.000 C 
ATOM     22  C   UNL     1       4.511   3.589  11.226  0.00  0.00    +0.000 C 
ENDBRANCH  20  22
ENDBRANCH   1  20
TORSDOF 5
ENDMDL
MODEL 7
REMARK VINA RESULT:      -7.7      3.483      8.048
REMARK  Name = 
REMARK  6 active torsions:
REMARK  status: ('A' for Active; 'I' for Inactive)
REMARK    1  A    between atoms: C_2  and  C_3
REMARK    2  A    between atoms: C_3  and  C_4
REMARK    3  A    between atoms: C_7  and  O_8
REMARK    4  A    between atoms: O_8  and  C_9
REMARK    5  A    between atoms: C_10  and  C_11
REMARK    6  A    between atoms: N_14  and  C_15
REMARK                            x       y       z     vdW  Elec       q    Type
REMARK                         _______ _______ _______ _____ _____    ______ ____
ROOT
ATOM      1  C   UNL     1       2.464   6.599  19.603  0.00  0.00    +0.000 A 
ATOM      2  C   UNL     1       1.916   5.543  20.329  0.00  0.00    +0.000 A 
ATOM      3  C   UNL     1       2.507   4.280  20.287  0.00  0.00    +0.000 A 
ATOM      4  C   UNL     1       3.663   4.042  19.523  0.00  0.00    +0.000 A 
ATOM      5  C   UNL     1       4.205   5.081  18.734  0.00  0.00    +0.000 A 
ATOM      6  C   UNL     1       3.586   6.351  18.797  0.00  0.00    +0.000 A 
ENDROOT
BRANCH   5   7
ATOM      7  C   UNL     1       5.379   4.923  17.842  0.00  0.00    +0.000 A 
ATOM      8  C   UNL     1       6.751   4.774  18.165  0.00  0.00    +0.000 A 
ATOM      9  C   UNL     1       7.410   4.619  16.970  0.00  0.00    +0.000 A 
ATOM     10  N   UNL     1       6.456   4.670  15.984  0.00  0.00    +0.000 N 
ATOM     11  N   UNL     1       5.229   4.915  16.502  0.00  0.00    +0.000 NA
BRANCH  10  12
ATOM     12  C   UNL     1       6.639   4.487  14.582  0.00  0.00    +0.000 A 
ATOM     13  C   UNL     1       5.864   3.564  13.865  0.00  0.00    +0.000 A 
ATOM     14  C   UNL     1       6.040   3.420  12.484  0.00  0.00    +0.000 A 
ATOM     15  C   UNL     1       6.993   4.186  11.815  0.00  0.00    +0.000 A 
ATOM     16  C   UNL     1       7.772   5.100  12.522  0.00  0.00    +0.000 A 
ATOM     17  C   UNL     1       7.592   5.257  13.899  0.00  0.00    +0.000 A 
ENDBRANCH  10  12
ENDBRANCH   5   7
BRANCH   4  18
ATOM     18  O   UNL     1       4.243   2.797  19.483  0.00  0.00    +0.000 OA
ATOM     19  C   UNL     1       3.529   1.798  18.758  0.00  0.00    +0.000 C 
ENDBRANCH   4  18
BRANCH   1  20
ATOM     20  C   UNL     1       1.858   7.979  19.683  0.00  0.00    +0.000 C 
BRANCH  20  22
ATOM     21  C   UNL     1       1.664   9.998  18.199  0.00  0.00    +0.000 C 
ATOM     22  C   UNL     1       1.783   8.672  18.353  0.00  0.00    +0.000 C 
ENDBRANCH  20  22
ENDBRANCH   1  20
TORSDOF 5
ENDMDL
MODEL 8
REMARK VINA RESULT:      -7.6      2.492      4.298
REMARK  Name = 
REMARK  6 active torsions:
REMARK  status: ('A' for Active; 'I' for Inactive)
REMARK    1  A    between atoms: C_2  and  C_3
REMARK    2  A    between atoms: C_3  and  C_4
REMARK    3  A    between atoms: C_7  and  O_8
REMARK    4  A    between atoms: O_8  and  C_9
REMARK    5  A    between atoms: C_10  and  C_11
REMARK    6  A    between atoms: N_14  and  C_15
REMARK                            x       y       z     vdW  Elec       q    Type
REMARK                         _______ _______ _______ _____ _____    ______ ____
ROOT
ATOM      1  C   UNL     1       5.722   4.328  15.330  0.00  0.00    +0.000 A 
ATOM      2  C   UNL     1       7.053   4.241  15.734  0.00  0.00    +0.000 A 
ATOM      3  C   UNL     1       7.399   4.468  17.066  0.00  0.00    +0.000 A 
ATOM      4  C   UNL     1       6.423   4.783  18.029  0.00  0.00    +0.000 A 
ATOM      5  C   UNL     1       5.075   4.934  17.634  0.00  0.00    +0.000 A 
ATOM      6  C   UNL     1       4.753   4.697  16.278  0.00  0.00    +0.000 A 
ENDROOT
BRANCH   5   7
ATOM      7  C   UNL     1       3.979   5.329  18.550  0.00  0.00    +0.000 A 
ATOM      8  C   UNL     1       3.346   4.589  19.579  0.00  0.00    +0.000 A 
ATOM      9  C   UNL     1       2.428   5.436  20.151  0.00  0.00    +0.000 A 
ATOM     10  N   UNL     1       2.528   6.633  19.484  0.00  0.00    +0.000 N 
ATOM     11  N   UNL     1       3.424   6.555  18.471  0.00  0.00    +0.000 NA
BRANCH  10  12
ATOM     12  C   UNL     1       1.831   7.846  19.758  0.00  0.00    +0.000 A 
ATOM     13  C   UNL     1       1.648   8.816  18.762  0.00  0.00    +0.000 A 
ATOM     14  C   UNL     1       0.938   9.988  19.046  0.00  0.00    +0.000 A 
ATOM     15  C   UNL     1       0.417  10.203  20.320  0.00  0.00    +0.000 A 
ATOM     16  C   UNL     1       0.602   9.247  21.317  0.00  0.00    +0.000 A 
ATOM     17  C   UNL     1       1.299   8.068  21.037  0.00  0.00    +0.000 A 
ENDBRANCH  10  12
ENDBRANCH   5   7
BRANCH   4  18
ATOM     18  O   UNL     1       6.768   5.008  19.340  0.00  0.00    +0.000 OA
ATOM     19  C   UNL     1       7.921   5.819  19.554  0.00  0.00    +0.000 C 
ENDBRANCH   4  18
BRANCH   1  20
ATOM     20  C   UNL     1       5.334   4.035  13.900  0.00  0.00    +0.000 C 
BRANCH  20  22
ATOM     21  C   UNL     1       6.533   3.086  11.906  0.00  0.00    +0.000 C 
ATOM     22  C   UNL     1       6.515   3.879  12.986  0.00  0.00    +0.000 C 
ENDBRANCH  20  22
ENDBRANCH   1  20
TORSDOF 5
ENDMDL
MODEL 9
REMARK VINA RESULT:      -7.6      2.468      4.318
REMARK  Name = 
REMARK  6 active torsions:
REMARK  status: ('A' for Active; 'I' for Inactive)
REMARK    1  A    between atoms: C_2  and  C_3
REMARK    2  A    between atoms: C_3  and  C_4
REMARK    3  A    between atoms: C_7  and  O_8
REMARK    4  A    between atoms: O_8  and  C_9
REMARK    5  A    between atoms: C_10  and  C_11
REMARK    6  A    between atoms: N_14  and  C_15
REMARK                            x       y       z     vdW  Elec       q    Type
REMARK                         _______ _______ _______ _____ _____    ______ ____
ROOT
ATOM      1  C   UNL     1       5.651   4.575  15.195  0.00  0.00    +0.000 A 
ATOM      2  C   UNL     1       6.979   4.423  15.589  0.00  0.00    +0.000 A 
ATOM      3  C   UNL     1       7.331   4.543  16.934  0.00  0.00    +0.000 A 
ATOM      4  C   UNL     1       6.363   4.813  17.918  0.00  0.00    +0.000 A 
ATOM      5  C   UNL     1       5.020   5.027  17.538  0.00  0.00    +0.000 A 
ATOM      6  C   UNL     1       4.692   4.898  16.168  0.00  0.00    +0.000 A 
ENDROOT
BRANCH   5   7
ATOM      7  C   UNL     1       3.934   5.382  18.481  0.00  0.00    +0.000 A 
ATOM      8  C   UNL     1       3.307   4.597  19.481  0.00  0.00    +0.000 A 
ATOM      9  C   UNL     1       2.398   5.420  20.101  0.00  0.00    +0.000 A 
ATOM     10  N   UNL     1       2.496   6.646  19.489  0.00  0.00    +0.000 N 
ATOM     11  N   UNL     1       3.383   6.613  18.465  0.00  0.00    +0.000 NA
BRANCH  10  12
ATOM     12  C   UNL     1       1.807   7.848  19.827  0.00  0.00    +0.000 A 
ATOM     13  C   UNL     1       1.276   8.041  21.111  0.00  0.00    +0.000 A 
ATOM     14  C   UNL     1       0.628   9.239  21.429  0.00  0.00    +0.000 A 
ATOM     15  C   UNL     1       0.498  10.244  20.472  0.00  0.00    +0.000 A 
ATOM     16  C   UNL     1       1.017  10.056  19.193  0.00  0.00    +0.000 A 
ATOM     17  C   UNL     1       1.676   8.866  18.871  0.00  0.00    +0.000 A 
ENDBRANCH  10  12
ENDBRANCH   5   7
BRANCH   4  18
ATOM     18  O   UNL     1       6.713   4.931  19.242  0.00  0.00    +0.000 OA
ATOM     19  C   UNL     1       7.846   5.751  19.519  0.00  0.00    +0.000 C 
ENDBRANCH   4  18
BRANCH   1  20
ATOM     20  C   UNL     1       5.257   4.398  13.748  0.00  0.00    +0.000 C 
BRANCH  20  22
ATOM     21  C   UNL     1       5.911   2.792  11.929  0.00  0.00    +0.000 C 
ATOM     22  C   UNL     1       6.241   3.581  12.961  0.00  0.00    +0.000 C 
ENDBRANCH  20  22
ENDBRANCH   1  20
TORSDOF 5
ENDMDL
