MODEL 1
REMARK VINA RESULT:      -6.7      0.000      0.000
REMARK  Name = 
REMARK  6 active torsions:
REMARK  status: ('A' for Active; 'I' for Inactive)
REMARK    1  A    between atoms: N_8  and  C_9
REMARK    2  A    between atoms: C_9  and  S_10
REMARK    3  A    between atoms: S_10  and  N_13
REMARK    4  A    between atoms: N_13  and  C_14
REMARK    5  A    between atoms: C_14  and  C_15
REMARK    6  A    between atoms: C_15  and  N_16
REMARK                            x       y       z     vdW  Elec       q    Type
REMARK                         _______ _______ _______ _____ _____    ______ ____
ROOT
ATOM      1  S   UNL     1       6.094   4.721  15.956  0.00  0.00    +0.000 S 
ATOM      2  O   UNL     1       5.465   4.946  14.667  0.00  0.00    +0.000 OA
ATOM      3  O   UNL     1       7.523   4.535  16.059  0.00  0.00    +0.000 OA
ENDROOT
BRANCH   1   4
ATOM      4  N   UNL     1       5.367   3.328  16.640  0.00  0.00    +0.000 NA
ATOM      5  H   UNL     1       5.866   2.945  17.444  0.00  0.00    +0.000 HD
BRANCH   4   6
ATOM      6  C   UNL     1       3.937   3.625  16.979  0.00  0.00    +0.000 C 
BRANCH   6   7
ATOM      7  C   UNL     1       3.139   2.475  17.622  0.00  0.00    +0.000 C 
BRANCH   7   8
ATOM      8  N   UNL     1       1.750   2.924  17.846  0.00  0.00    +0.000 NA
ATOM      9  C   UNL     1       1.607   4.358  18.104  0.00  0.00    +0.000 C 
ATOM     10  C   UNL     1       1.620   4.502  19.613  0.00  0.00    +0.000 C 
ATOM     11  C   UNL     1       0.943   3.238  20.105  0.00  0.00    +0.000 C 
ATOM     12  C   UNL     1       1.079   2.241  18.966  0.00  0.00    +0.000 C 
ENDBRANCH   7   8
ENDBRANCH   6   7
ENDBRANCH   4   6
ENDBRANCH   1   4
BRANCH   1  13
ATOM     13  C   UNL     1       5.612   6.077  17.025  0.00  0.00    +0.000 C 
BRANCH  13  21
ATOM     14  O   UNL     1       6.534   4.475  19.218  0.00  0.00    +0.000 OA
ATOM     15  N   UNL     1       7.329   5.353  19.589  0.00  0.00    +0.000 N 
ATOM     16  O   UNL     1       8.015   5.306  20.614  0.00  0.00    +0.000 OA
ATOM     17  C   UNL     1       7.495   6.495  18.723  0.00  0.00    +0.000 A 
ATOM     18  N   UNL     1       8.432   7.403  18.926  0.00  0.00    +0.000 NA
ATOM     19  C   UNL     1       8.275   8.322  17.928  0.00  0.00    +0.000 A 
ATOM     20  C   UNL     1       7.245   7.957  17.092  0.00  0.00    +0.000 A 
ATOM     21  N   UNL     1       6.753   6.774  17.596  0.00  0.00    +0.000 N 
ENDBRANCH  13  21
ENDBRANCH   1  13
TORSDOF 6
ENDMDL
MODEL 2
REMARK VINA RESULT:      -6.6      2.688      6.043
REMARK  Name = 
REMARK  6 active torsions:
REMARK  status: ('A' for Active; 'I' for Inactive)
REMARK    1  A    between atoms: N_8  and  C_9
REMARK    2  A    between atoms: C_9  and  S_10
REMARK    3  A    between atoms: S_10  and  N_13
REMARK    4  A    between atoms: N_13  and  C_14
REMARK    5  A    between atoms: C_14  and  C_15
REMARK    6  A    between atoms: C_15  and  N_16
REMARK                            x       y       z     vdW  Elec       q    Type
REMARK                         _______ _______ _______ _____ _____    ______ ____
ROOT
ATOM      1  S   UNL     1       2.567   6.198  18.758  0.00  0.00    +0.000 S 
ATOM      2  O   UNL     1       2.033   6.943  17.633  0.00  0.00    +0.000 OA
ATOM      3  O   UNL     1       2.260   6.588  20.116  0.00  0.00    +0.000 OA
ENDROOT
BRANCH   1   4
ATOM      4  N   UNL     1       4.275   6.219  18.617  0.00  0.00    +0.000 NA
ATOM      5  H   UNL     1       4.718   5.306  18.732  0.00  0.00    +0.000 HD
BRANCH   4   6
ATOM      6  C   UNL     1       4.661   6.850  17.313  0.00  0.00    +0.000 C 
BRANCH   6   7
ATOM      7  C   UNL     1       5.284   5.910  16.262  0.00  0.00    +0.000 C 
BRANCH   7   8
ATOM      8  N   UNL     1       6.754   6.042  16.315  0.00  0.00    +0.000 NA
ATOM      9  C   UNL     1       7.461   4.819  16.703  0.00  0.00    +0.000 C 
ATOM     10  C   UNL     1       7.660   4.925  18.202  0.00  0.00    +0.000 C 
ATOM     11  C   UNL     1       7.847   6.409  18.442  0.00  0.00    +0.000 C 
ATOM     12  C   UNL     1       7.223   7.091  17.235  0.00  0.00    +0.000 C 
ENDBRANCH   7   8
ENDBRANCH   6   7
ENDBRANCH   4   6
ENDBRANCH   1   4
BRANCH   1  13
ATOM     13  C   UNL     1       2.096   4.484  18.533  0.00  0.00    +0.000 C 
BRANCH  13  21
ATOM     14  O   UNL     1       4.733   3.402  18.849  0.00  0.00    +0.000 OA
ATOM     15  N   UNL     1       4.388   2.716  19.824  0.00  0.00    +0.000 N 
ATOM     16  O   UNL     1       5.102   1.893  20.405  0.00  0.00    +0.000 OA
ATOM     17  C   UNL     1       3.061   2.938  20.345  0.00  0.00    +0.000 A 
ATOM     18  N   UNL     1       2.647   2.395  21.476  0.00  0.00    +0.000 NA
ATOM     19  C   UNL     1       1.358   2.815  21.634  0.00  0.00    +0.000 A 
ATOM     20  C   UNL     1       0.988   3.645  20.601  0.00  0.00    +0.000 A 
ATOM     21  N   UNL     1       2.090   3.735  19.779  0.00  0.00    +0.000 N 
ENDBRANCH  13  21
ENDBRANCH   1  13
TORSDOF 6
ENDMDL
MODEL 3
REMARK VINA RESULT:      -6.5      2.293      3.000
REMARK  Name = 
REMARK  6 active torsions:
REMARK  status: ('A' for Active; 'I' for Inactive)
REMARK    1  A    between atoms: N_8  and  C_9
REMARK    2  A    between atoms: C_9  and  S_10
REMARK    3  A    between atoms: S_10  and  N_13
REMARK    4  A    between atoms: N_13  and  C_14
REMARK    5  A    between atoms: C_14  and  C_15
REMARK    6  A    between atoms: C_15  and  N_16
REMARK                            x       y       z     vdW  Elec       q    Type
REMARK                         _______ _______ _______ _____ _____    ______ ____
ROOT
ATOM      1  S   UNL     1       3.650   5.358  18.155  0.00  0.00    +0.000 S 
ATOM      2  O   UNL     1       4.034   4.932  19.488  0.00  0.00    +0.000 OA
ATOM      3  O   UNL     1       2.406   6.061  17.932  0.00  0.00    +0.000 OA
ENDROOT
BRANCH   1   4
ATOM      4  N   UNL     1       3.605   3.958  17.167  0.00  0.00    +0.000 NA
ATOM      5  H   UNL     1       4.492   3.457  17.105  0.00  0.00    +0.000 HD
BRANCH   4   6
ATOM      6  C   UNL     1       2.502   3.055  17.629  0.00  0.00    +0.000 C 
BRANCH   6   7
ATOM      7  C   UNL     1       2.850   2.095  18.783  0.00  0.00    +0.000 C 
BRANCH   7   8
ATOM      8  N   UNL     1       1.686   1.991  19.687  0.00  0.00    +0.000 NA
ATOM      9  C   UNL     1       0.650   3.001  19.465  0.00  0.00    +0.000 C 
ATOM     10  C   UNL     1       0.967   4.126  20.430  0.00  0.00    +0.000 C 
ATOM     11  C   UNL     1       1.551   3.418  21.635  0.00  0.00    +0.000 C 
ATOM     12  C   UNL     1       2.034   2.073  21.115  0.00  0.00    +0.000 C 
ENDBRANCH   7   8
ENDBRANCH   6   7
ENDBRANCH   4   6
ENDBRANCH   1   4
BRANCH   1  13
ATOM     13  C   UNL     1       4.994   6.349  17.505  0.00  0.00    +0.000 C 
BRANCH  13  21
ATOM     14  O   UNL     1       7.042   4.941  18.935  0.00  0.00    +0.000 OA
ATOM     15  N   UNL     1       7.618   4.613  17.886  0.00  0.00    +0.000 N 
ATOM     16  O   UNL     1       8.700   4.022  17.821  0.00  0.00    +0.000 OA
ATOM     17  C   UNL     1       6.940   4.907  16.646  0.00  0.00    +0.000 A 
ATOM     18  N   UNL     1       7.371   4.456  15.482  0.00  0.00    +0.000 NA
ATOM     19  C   UNL     1       6.496   4.941  14.554  0.00  0.00    +0.000 A 
ATOM     20  C   UNL     1       5.504   5.677  15.161  0.00  0.00    +0.000 A 
ATOM     21  N   UNL     1       5.783   5.642  16.509  0.00  0.00    +0.000 N 
ENDBRANCH  13  21
ENDBRANCH   1  13
TORSDOF 6
ENDMDL
MODEL 4
REMARK VINA RESULT:      -6.5      2.987      6.406
REMARK  Name = 
REMARK  6 active torsions:
REMARK  status: ('A' for Active; 'I' for Inactive)
REMARK    1  A    between atoms: N_8  and  C_9
REMARK    2  A    between atoms: C_9  and  S_10
REMARK    3  A    between atoms: S_10  and  N_13
REMARK    4  A    between atoms: N_13  and  C_14
REMARK    5  A    between atoms: C_14  and  C_15
REMARK    6  A    between atoms: C_15  and  N_16
REMARK                            x       y       z     vdW  Elec       q    Type
REMARK                         _______ _______ _______ _____ _____    ______ ____
ROOT
ATOM      1  S   UNL     1       5.219   4.868  19.216  0.00  0.00    +0.000 S 
ATOM      2  O   UNL     1       4.197   5.797  19.658  0.00  0.00    +0.000 OA
ATOM      3  O   UNL     1       6.554   4.917  19.768  0.00  0.00    +0.000 OA
ENDROOT
BRANCH   1   4
ATOM      4  N   UNL     1       5.383   5.061  17.520  0.00  0.00    +0.000 NA
ATOM      5  H   UNL     1       4.838   5.830  17.130  0.00  0.00    +0.000 HD
BRANCH   4   6
ATOM      6  C   UNL     1       6.834   5.188  17.170  0.00  0.00    +0.000 C 
BRANCH   6   7
ATOM      7  C   UNL     1       7.290   4.458  15.891  0.00  0.00    +0.000 C 
BRANCH   7   8
ATOM      8  N   UNL     1       6.668   5.110  14.721  0.00  0.00    +0.000 NA
ATOM      9  C   UNL     1       5.479   4.429  14.205  0.00  0.00    +0.000 C 
ATOM     10  C   UNL     1       5.980   3.518  13.102  0.00  0.00    +0.000 C 
ATOM     11  C   UNL     1       7.140   4.282  12.497  0.00  0.00    +0.000 C 
ATOM     12  C   UNL     1       7.578   5.263  13.573  0.00  0.00    +0.000 C 
ENDBRANCH   7   8
ENDBRANCH   6   7
ENDBRANCH   4   6
ENDBRANCH   1   4
BRANCH   1  13
ATOM     13  C   UNL     1       4.566   3.213  19.440  0.00  0.00    +0.000 C 
BRANCH  13  21
ATOM     14  O   UNL     1       3.057   3.653  17.042  0.00  0.00    +0.000 OA
ATOM     15  N   UNL     1       1.996   3.777  17.673  0.00  0.00    +0.000 N 
ATOM     16  O   UNL     1       0.907   4.092  17.184  0.00  0.00    +0.000 OA
ATOM     17  C   UNL     1       2.035   3.480  19.085  0.00  0.00    +0.000 A 
ATOM     18  N   UNL     1       0.941   3.411  19.822  0.00  0.00    +0.000 NA
ATOM     19  C   UNL     1       1.368   3.128  21.087  0.00  0.00    +0.000 A 
ATOM     20  C   UNL     1       2.737   2.998  21.119  0.00  0.00    +0.000 A 
ATOM     21  N   UNL     1       3.165   3.211  19.827  0.00  0.00    +0.000 N 
ENDBRANCH  13  21
ENDBRANCH   1  13
TORSDOF 6
ENDMDL
MODEL 5
REMARK VINA RESULT:      -6.3      2.393      3.282
REMARK  Name = 
REMARK  6 active torsions:
REMARK  status: ('A' for Active; 'I' for Inactive)
REMARK    1  A    between atoms: N_8  and  C_9
REMARK    2  A    between atoms: C_9  and  S_10
REMARK    3  A    between atoms: S_10  and  N_13
REMARK    4  A    between atoms: N_13  and  C_14
REMARK    5  A    between atoms: C_14  and  C_15
REMARK    6  A    between atoms: C_15  and  N_16
REMARK                            x       y       z     vdW  Elec       q    Type
REMARK                         _______ _______ _______ _____ _____    ______ ____
ROOT
ATOM      1  S   UNL     1       3.584   5.273  17.780  0.00  0.00    +0.000 S 
ATOM      2  O   UNL     1       2.367   6.060  17.716  0.00  0.00    +0.000 OA
ATOM      3  O   UNL     1       3.669   3.986  17.126  0.00  0.00    +0.000 OA
ENDROOT
BRANCH   1   4
ATOM      4  N   UNL     1       3.929   5.003  19.438  0.00  0.00    +0.000 NA
ATOM      5  H   UNL     1       4.737   5.518  19.789  0.00  0.00    +0.000 HD
BRANCH   4   6
ATOM      6  C   UNL     1       2.705   5.287  20.255  0.00  0.00    +0.000 C 
BRANCH   6   7
ATOM      7  C   UNL     1       2.471   4.368  21.470  0.00  0.00    +0.000 C 
BRANCH   7   8
ATOM      8  N   UNL     1       1.368   3.436  21.158  0.00  0.00    +0.000 NA
ATOM      9  C   UNL     1       1.786   2.052  20.929  0.00  0.00    +0.000 C 
ATOM     10  C   UNL     1       1.966   1.925  19.430  0.00  0.00    +0.000 C 
ATOM     11  C   UNL     1       0.910   2.849  18.857  0.00  0.00    +0.000 C 
ATOM     12  C   UNL     1       0.581   3.823  19.976  0.00  0.00    +0.000 C 
ENDBRANCH   7   8
ENDBRANCH   6   7
ENDBRANCH   4   6
ENDBRANCH   1   4
BRANCH   1  13
ATOM     13  C   UNL     1       4.920   6.309  17.185  0.00  0.00    +0.000 C 
BRANCH  13  21
ATOM     14  O   UNL     1       6.834   4.974  18.851  0.00  0.00    +0.000 OA
ATOM     15  N   UNL     1       7.525   4.641  17.875  0.00  0.00    +0.000 N 
ATOM     16  O   UNL     1       8.619   4.074  17.937  0.00  0.00    +0.000 OA
ATOM     17  C   UNL     1       6.975   4.897  16.565  0.00  0.00    +0.000 A 
ATOM     18  N   UNL     1       7.536   4.435  15.463  0.00  0.00    +0.000 NA
ATOM     19  C   UNL     1       6.754   4.882  14.437  0.00  0.00    +0.000 A 
ATOM     20  C   UNL     1       5.688   5.605  14.921  0.00  0.00    +0.000 A 
ATOM     21  N   UNL     1       5.824   5.602  16.292  0.00  0.00    +0.000 N 
ENDBRANCH  13  21
ENDBRANCH   1  13
TORSDOF 6
ENDMDL
MODEL 6
REMARK VINA RESULT:      -6.3      3.267      5.954
REMARK  Name = 
REMARK  6 active torsions:
REMARK  status: ('A' for Active; 'I' for Inactive)
REMARK    1  A    between atoms: N_8  and  C_9
REMARK    2  A    between atoms: C_9  and  S_10
REMARK    3  A    between atoms: S_10  and  N_13
REMARK    4  A    between atoms: N_13  and  C_14
REMARK    5  A    between atoms: C_14  and  C_15
REMARK    6  A    between atoms: C_15  and  N_16
REMARK                            x       y       z     vdW  Elec       q    Type
REMARK                         _______ _______ _______ _____ _____    ______ ____
ROOT
ATOM      1  S   UNL     1       2.606   6.435  18.699  0.00  0.00    +0.000 S 
ATOM      2  O   UNL     1       1.620   5.596  18.043  0.00  0.00    +0.000 OA
ATOM      3  O   UNL     1       2.219   7.348  19.751  0.00  0.00    +0.000 OA
ENDROOT
BRANCH   1   4
ATOM      4  N   UNL     1       3.360   7.379  17.483  0.00  0.00    +0.000 NA
ATOM      5  H   UNL     1       3.197   8.383  17.568  0.00  0.00    +0.000 HD
BRANCH   4   6
ATOM      6  C   UNL     1       4.825   7.067  17.445  0.00  0.00    +0.000 C 
BRANCH   6   7
ATOM      7  C   UNL     1       5.339   6.376  16.167  0.00  0.00    +0.000 C 
BRANCH   7   8
ATOM      8  N   UNL     1       6.803   6.208  16.270  0.00  0.00    +0.000 NA
ATOM      9  C   UNL     1       7.248   4.822  16.424  0.00  0.00    +0.000 C 
ATOM     10  C   UNL     1       7.381   4.602  17.917  0.00  0.00    +0.000 C 
ATOM     11  C   UNL     1       7.828   5.950  18.446  0.00  0.00    +0.000 C 
ATOM     12  C   UNL     1       7.409   6.955  17.385  0.00  0.00    +0.000 C 
ENDBRANCH   7   8
ENDBRANCH   6   7
ENDBRANCH   4   6
ENDBRANCH   1   4
BRANCH   1  13
ATOM     13  C   UNL     1       3.894   5.354  19.321  0.00  0.00    +0.000 C 
BRANCH  13  21
ATOM     14  O   UNL     1       2.359   4.509  21.592  0.00  0.00    +0.000 OA
ATOM     15  N   UNL     1       2.412   3.318  21.247  0.00  0.00    +0.000 N 
ATOM     16  O   UNL     1       1.984   2.366  21.905  0.00  0.00    +0.000 OA
ATOM     17  C   UNL     1       2.977   3.037  19.949  0.00  0.00    +0.000 A 
ATOM     18  N   UNL     1       2.930   1.834  19.405  0.00  0.00    +0.000 NA
ATOM     19  C   UNL     1       3.566   1.949  18.203  0.00  0.00    +0.000 A 
ATOM     20  C   UNL     1       3.984   3.244  17.999  0.00  0.00    +0.000 A 
ATOM     21  N   UNL     1       3.592   3.946  19.117  0.00  0.00    +0.000 N 
ENDBRANCH  13  21
ENDBRANCH   1  13
TORSDOF 6
ENDMDL
MODEL 7
REMARK VINA RESULT:      -6.3      2.138      3.386
REMARK  Name = 
REMARK  6 active torsions:
REMARK  status: ('A' for Active; 'I' for Inactive)
REMARK    1  A    between atoms: N_8  and  C_9
REMARK    2  A    between atoms: C_9  and  S_10
REMARK    3  A    between atoms: S_10  and  N_13
REMARK    4  A    between atoms: N_13  and  C_14
REMARK    5  A    between atoms: C_14  and  C_15
REMARK    6  A    between atoms: C_15  and  N_16
REMARK                            x       y       z     vdW  Elec       q    Type
REMARK                         _______ _______ _______ _____ _____    ______ ____
ROOT
ATOM      1  S   UNL     1       3.699   5.991  18.194  0.00  0.00    +0.000 S 
ATOM      2  O   UNL     1       3.955   5.536  19.548  0.00  0.00    +0.000 OA
ATOM      3  O   UNL     1       2.564   6.836  17.898  0.00  0.00    +0.000 OA
ENDROOT
BRANCH   1   4
ATOM      4  N   UNL     1       3.539   4.595  17.211  0.00  0.00    +0.000 NA
ATOM      5  H   UNL     1       4.410   4.084  17.061  0.00  0.00    +0.000 HD
BRANCH   4   6
ATOM      6  C   UNL     1       2.476   3.704  17.778  0.00  0.00    +0.000 C 
BRANCH   6   7
ATOM      7  C   UNL     1       2.970   2.475  18.565  0.00  0.00    +0.000 C 
BRANCH   7   8
ATOM      8  N   UNL     1       2.002   2.175  19.640  0.00  0.00    +0.000 NA
ATOM      9  C   UNL     1       0.803   3.015  19.632  0.00  0.00    +0.000 C 
ATOM     10  C   UNL     1       1.103   4.159  20.580  0.00  0.00    +0.000 C 
ATOM     11  C   UNL     1       1.980   3.531  21.644  0.00  0.00    +0.000 C 
ATOM     12  C   UNL     1       2.567   2.288  20.995  0.00  0.00    +0.000 C 
ENDBRANCH   7   8
ENDBRANCH   6   7
ENDBRANCH   4   6
ENDBRANCH   1   4
BRANCH   1  13
ATOM     13  C   UNL     1       5.188   6.805  17.616  0.00  0.00    +0.000 C 
BRANCH  13  21
ATOM     14  O   UNL     1       5.449   5.999  14.876  0.00  0.00    +0.000 OA
ATOM     15  N   UNL     1       6.320   5.160  15.154  0.00  0.00    +0.000 N 
ATOM     16  O   UNL     1       6.816   4.357  14.359  0.00  0.00    +0.000 OA
ATOM     17  C   UNL     1       6.823   5.162  16.507  0.00  0.00    +0.000 A 
ATOM     18  N   UNL     1       7.864   4.437  16.873  0.00  0.00    +0.000 NA
ATOM     19  C   UNL     1       8.034   4.684  18.205  0.00  0.00    +0.000 A 
ATOM     20  C   UNL     1       7.101   5.590  18.652  0.00  0.00    +0.000 A 
ATOM     21  N   UNL     1       6.331   5.908  17.555  0.00  0.00    +0.000 N 
ENDBRANCH  13  21
ENDBRANCH   1  13
TORSDOF 6
ENDMDL
MODEL 8
REMARK VINA RESULT:      -6.3      2.413      3.289
REMARK  Name = 
REMARK  6 active torsions:
REMARK  status: ('A' for Active; 'I' for Inactive)
REMARK    1  A    between atoms: N_8  and  C_9
REMARK    2  A    between atoms: C_9  and  S_10
REMARK    3  A    between atoms: S_10  and  N_13
REMARK    4  A    between atoms: N_13  and  C_14
REMARK    5  A    between atoms: C_14  and  C_15
REMARK    6  A    between atoms: C_15  and  N_16
REMARK                            x       y       z     vdW  Elec       q    Type
REMARK                         _______ _______ _______ _____ _____    ______ ____
ROOT
ATOM      1  S   UNL     1       3.489   6.462  18.103  0.00  0.00    +0.000 S 
ATOM      2  O   UNL     1       2.631   7.624  18.251  0.00  0.00    +0.000 OA
ATOM      3  O   UNL     1       3.011   5.269  17.443  0.00  0.00    +0.000 OA
ENDROOT
BRANCH   1   4
ATOM      4  N   UNL     1       3.979   5.989  19.677  0.00  0.00    +0.000 NA
ATOM      5  H   UNL     1       3.783   6.678  20.403  0.00  0.00    +0.000 HD
BRANCH   4   6
ATOM      6  C   UNL     1       3.373   4.660  20.010  0.00  0.00    +0.000 C 
BRANCH   6   7
ATOM      7  C   UNL     1       4.278   3.430  19.802  0.00  0.00    +0.000 C 
BRANCH   7   8
ATOM      8  N   UNL     1       3.434   2.219  19.743  0.00  0.00    +0.000 NA
ATOM      9  C   UNL     1       3.498   1.493  18.473  0.00  0.00    +0.000 C 
ATOM     10  C   UNL     1       2.341   2.021  17.647  0.00  0.00    +0.000 C 
ATOM     11  C   UNL     1       1.268   2.321  18.673  0.00  0.00    +0.000 C 
ATOM     12  C   UNL     1       2.006   2.479  19.992  0.00  0.00    +0.000 C 
ENDBRANCH   7   8
ENDBRANCH   6   7
ENDBRANCH   4   6
ENDBRANCH   1   4
BRANCH   1  13
ATOM     13  C   UNL     1       4.988   7.009  17.288  0.00  0.00    +0.000 C 
BRANCH  13  21
ATOM     14  O   UNL     1       6.816   5.737  19.095  0.00  0.00    +0.000 OA
ATOM     15  N   UNL     1       7.315   5.054  18.187  0.00  0.00    +0.000 N 
ATOM     16  O   UNL     1       8.290   4.307  18.311  0.00  0.00    +0.000 OA
ATOM     17  C   UNL     1       6.669   5.105  16.898  0.00  0.00    +0.000 A 
ATOM     18  N   UNL     1       7.004   4.295  15.909  0.00  0.00    +0.000 NA
ATOM     19  C   UNL     1       6.199   4.642  14.863  0.00  0.00    +0.000 A 
ATOM     20  C   UNL     1       5.345   5.658  15.224  0.00  0.00    +0.000 A 
ATOM     21  N   UNL     1       5.639   5.946  16.538  0.00  0.00    +0.000 N 
ENDBRANCH  13  21
ENDBRANCH   1  13
TORSDOF 6
ENDMDL
MODEL 9
REMARK VINA RESULT:      -6.3      2.477      3.659
REMARK  Name = 
REMARK  6 active torsions:
REMARK  status: ('A' for Active; 'I' for Inactive)
REMARK    1  A    between atoms: N_8  and  C_9
REMARK    2  A    between atoms: C_9  and  S_10
REMARK    3  A    between atoms: S_10  and  N_13
REMARK    4  A    between atoms: N_13  and  C_14
REMARK    5  A    between atoms: C_14  and  C_15
REMARK    6  A    between atoms: C_15  and  N_16
REMARK                            x       y       z     vdW  Elec       q    Type
REMARK                         _______ _______ _______ _____ _____    ______ ____
ROOT
ATOM      1  S   UNL     1       3.193   6.178  18.151  0.00  0.00    +0.000 S 
ATOM      2  O   UNL     1       3.847   7.330  17.559  0.00  0.00    +0.000 OA
ATOM      3  O   UNL     1       1.900   5.735  17.678  0.00  0.00    +0.000 OA
ENDROOT
BRANCH   1   4
ATOM      4  N   UNL     1       3.018   6.498  19.827  0.00  0.00    +0.000 NA
ATOM      5  H   UNL     1       2.871   7.482  20.054  0.00  0.00    +0.000 HD
BRANCH   4   6
ATOM      6  C   UNL     1       1.925   5.640  20.388  0.00  0.00    +0.000 C 
BRANCH   6   7
ATOM      7  C   UNL     1       2.375   4.457  21.268  0.00  0.00    +0.000 C 
BRANCH   7   8
ATOM      8  N   UNL     1       1.468   3.315  21.034  0.00  0.00    +0.000 NA
ATOM      9  C   UNL     1       2.146   2.044  20.768  0.00  0.00    +0.000 C 
ATOM     10  C   UNL     1       2.238   1.943  19.258  0.00  0.00    +0.000 C 
ATOM     11  C   UNL     1       0.975   2.623  18.769  0.00  0.00    +0.000 C 
ATOM     12  C   UNL     1       0.534   3.519  19.915  0.00  0.00    +0.000 C 
ENDBRANCH   7   8
ENDBRANCH   6   7
ENDBRANCH   4   6
ENDBRANCH   1   4
BRANCH   1  13
ATOM     13  C   UNL     1       4.341   4.805  18.052  0.00  0.00    +0.000 C 
BRANCH  13  21
ATOM     14  O   UNL     1       5.280   5.143  15.363  0.00  0.00    +0.000 OA
ATOM     15  N   UNL     1       6.451   5.308  15.741  0.00  0.00    +0.000 N 
ATOM     16  O   UNL     1       7.430   5.422  14.998  0.00  0.00    +0.000 OA
ATOM     17  C   UNL     1       6.671   5.423  17.162  0.00  0.00    +0.000 A 
ATOM     18  N   UNL     1       7.841   5.769  17.669  0.00  0.00    +0.000 NA
ATOM     19  C   UNL     1       7.672   5.760  19.023  0.00  0.00    +0.000 A 
ATOM     20  C   UNL     1       6.376   5.430  19.347  0.00  0.00    +0.000 A 
ATOM     21  N   UNL     1       5.730   5.227  18.148  0.00  0.00    +0.000 N 
ENDBRANCH  13  21
ENDBRANCH   1  13
TORSDOF 6
ENDMDL
