MODEL 1
REMARK VINA RESULT:      -7.7      0.000      0.000
REMARK  Name = 
REMARK  9 active torsions:
REMARK  status: ('A' for Active; 'I' for Inactive)
REMARK    1  A    between atoms: C_2  and  C_3
REMARK    2  A    between atoms: C_2  and  C_28
REMARK    3  A    between atoms: C_4  and  O_5
REMARK    4  A    between atoms: N_8  and  C_9
REMARK    5  A    between atoms: C_9  and  C_10
REMARK    6  A    between atoms: C_10  and  C_11
REMARK    7  A    between atoms: C_11  and  N_12
REMARK    8  A    between atoms: C_18  and  C_19
REMARK    9  A    between atoms: C_22  and  N_23
REMARK                            x       y       z     vdW  Elec       q    Type
REMARK                         _______ _______ _______ _____ _____    ______ ____
ROOT
ATOM      1  C   UNL     1       5.015   4.343  16.850  0.00  0.00    +0.000 C 
ATOM      2  C   UNL     1       5.809   4.507  15.786  0.00  0.00    +0.000 C 
ATOM      3  C   UNL     1       6.796   5.578  16.128  0.00  0.00    +0.000 C 
ATOM      4  O   UNL     1       7.721   5.950  15.433  0.00  0.00    +0.000 OA
ATOM      5  N   UNL     1       6.475   6.018  17.400  0.00  0.00    +0.000 N 
ATOM      6  C   UNL     1       5.293   5.371  17.900  0.00  0.00    +0.000 C 
ENDROOT
BRANCH   6   7
ATOM      7  C   UNL     1       4.181   6.369  18.155  0.00  0.00    +0.000 A 
ATOM      8  C   UNL     1       3.952   7.464  17.312  0.00  0.00    +0.000 A 
ATOM      9  C   UNL     1       2.955   8.395  17.611  0.00  0.00    +0.000 A 
ATOM     10  C   UNL     1       2.184   8.238  18.774  0.00  0.00    +0.000 A 
ATOM     11  C   UNL     1       2.398   7.148  19.623  0.00  0.00    +0.000 A 
ATOM     12  C   UNL     1       3.391   6.224  19.311  0.00  0.00    +0.000 A 
BRANCH  10  13
ATOM     13  N   UNL     1       1.164   9.234  19.105  0.00  0.00    +0.000 N 
ATOM     14  O   UNL     1       0.755   9.282  20.274  0.00  0.00    +0.000 OA
ATOM     15  O   UNL     1       0.770   9.974  18.192  0.00  0.00    +0.000 OA
ENDBRANCH  10  13
ENDBRANCH   6   7
BRANCH   1  17
ATOM     16  O   UNL     1       3.240   3.094  15.942  0.00  0.00    +0.000 OA
ATOM     17  C   UNL     1       3.940   3.315  16.928  0.00  0.00    +0.000 C 
BRANCH  17  18
ATOM     18  C   UNL     1       3.616   2.679  18.242  0.00  0.00    +0.000 A 
ATOM     19  C   UNL     1       4.618   2.250  19.144  0.00  0.00    +0.000 A 
ATOM     20  C   UNL     1       4.345   2.130  20.509  0.00  0.00    +0.000 A 
ATOM     21  C   UNL     1       3.046   2.337  20.907  0.00  0.00    +0.000 A 
ATOM     22  C   UNL     1       2.034   2.549  19.997  0.00  0.00    +0.000 A 
ATOM     23  C   UNL     1       2.279   2.705  18.652  0.00  0.00    +0.000 A 
ATOM     24  O   UNL     1       0.828   2.714  20.610  0.00  0.00    +0.000 OA
ATOM     25  C   UNL     1       1.272   2.944  21.964  0.00  0.00    +0.000 C 
ATOM     26  O   UNL     1       2.606   2.427  22.192  0.00  0.00    +0.000 OA
ENDBRANCH  17  18
ENDBRANCH   1  17
BRANCH   2  27
ATOM     27  O   UNL     1       5.780   3.837  14.595  0.00  0.00    +0.000 OA
ATOM     28  H   UNL     1       5.359   2.965  14.759  0.00  0.00    +0.000 HD
ENDBRANCH   2  27
BRANCH   5  29
ATOM     29  C   UNL     1       7.319   6.859  18.255  0.00  0.00    +0.000 C 
BRANCH  29  30
ATOM     30  C   UNL     1       7.543   8.253  17.641  0.00  0.00    +0.000 C 
BRANCH  30  31
ATOM     31  C   UNL     1       8.751   8.993  18.229  0.00  0.00    +0.000 C 
BRANCH  31  32
ATOM     32  N   UNL     1       8.409  10.340  18.726  0.00  0.00    +0.000 NA
ATOM     33  C   UNL     1       8.677  11.459  17.798  0.00  0.00    +0.000 C 
ATOM     34  C   UNL     1      10.159  11.852  17.648  0.00  0.00    +0.000 C 
ATOM     35  O   UNL     1      10.807  12.052  18.909  0.00  0.00    +0.000 OA
ATOM     36  C   UNL     1      10.622  10.930  19.781  0.00  0.00    +0.000 C 
ATOM     37  C   UNL     1       9.126  10.642  19.989  0.00  0.00    +0.000 C 
ENDBRANCH  31  32
ENDBRANCH  30  31
ENDBRANCH  29  30
ENDBRANCH   5  29
TORSDOF 9
ENDMDL
MODEL 2
REMARK VINA RESULT:      -7.5      0.508      1.096
REMARK  Name = 
REMARK  9 active torsions:
REMARK  status: ('A' for Active; 'I' for Inactive)
REMARK    1  A    between atoms: C_2  and  C_3
REMARK    2  A    between atoms: C_2  and  C_28
REMARK    3  A    between atoms: C_4  and  O_5
REMARK    4  A    between atoms: N_8  and  C_9
REMARK    5  A    between atoms: C_9  and  C_10
REMARK    6  A    between atoms: C_10  and  C_11
REMARK    7  A    between atoms: C_11  and  N_12
REMARK    8  A    between atoms: C_18  and  C_19
REMARK    9  A    between atoms: C_22  and  N_23
REMARK                            x       y       z     vdW  Elec       q    Type
REMARK                         _______ _______ _______ _____ _____    ______ ____
ROOT
ATOM      1  C   UNL     1       5.021   4.348  16.872  0.00  0.00    +0.000 C 
ATOM      2  C   UNL     1       5.814   4.495  15.804  0.00  0.00    +0.000 C 
ATOM      3  C   UNL     1       6.796   5.577  16.125  0.00  0.00    +0.000 C 
ATOM      4  O   UNL     1       7.721   5.939  15.423  0.00  0.00    +0.000 OA
ATOM      5  N   UNL     1       6.474   6.039  17.389  0.00  0.00    +0.000 N 
ATOM      6  C   UNL     1       5.295   5.398  17.901  0.00  0.00    +0.000 C 
ENDROOT
BRANCH   6   7
ATOM      7  C   UNL     1       4.178   6.396  18.137  0.00  0.00    +0.000 A 
ATOM      8  C   UNL     1       3.978   7.504  17.303  0.00  0.00    +0.000 A 
ATOM      9  C   UNL     1       2.976   8.433  17.585  0.00  0.00    +0.000 A 
ATOM     10  C   UNL     1       2.170   8.263  18.723  0.00  0.00    +0.000 A 
ATOM     11  C   UNL     1       2.356   7.161  19.563  0.00  0.00    +0.000 A 
ATOM     12  C   UNL     1       3.354   6.238  19.267  0.00  0.00    +0.000 A 
BRANCH  10  13
ATOM     13  N   UNL     1       1.144   9.258  19.037  0.00  0.00    +0.000 N 
ATOM     14  O   UNL     1       0.478   9.723  18.100  0.00  0.00    +0.000 OA
ATOM     15  O   UNL     1       1.001   9.577  20.226  0.00  0.00    +0.000 OA
ENDBRANCH  10  13
ENDBRANCH   6   7
BRANCH   1  17
ATOM     16  O   UNL     1       3.248   3.077  15.989  0.00  0.00    +0.000 OA
ATOM     17  C   UNL     1       3.950   3.318  16.970  0.00  0.00    +0.000 C 
BRANCH  17  18
ATOM     18  C   UNL     1       3.631   2.703  18.295  0.00  0.00    +0.000 A 
ATOM     19  C   UNL     1       4.636   2.329  19.217  0.00  0.00    +0.000 A 
ATOM     20  C   UNL     1       4.351   2.232  20.582  0.00  0.00    +0.000 A 
ATOM     21  C   UNL     1       3.042   2.407  20.961  0.00  0.00    +0.000 A 
ATOM     22  C   UNL     1       2.034   2.563  20.035  0.00  0.00    +0.000 A 
ATOM     23  C   UNL     1       2.289   2.696  18.690  0.00  0.00    +0.000 A 
ATOM     24  O   UNL     1       0.817   2.704  20.630  0.00  0.00    +0.000 OA
ATOM     25  C   UNL     1       1.236   2.980  21.983  0.00  0.00    +0.000 C 
ATOM     26  O   UNL     1       2.584   2.512  22.239  0.00  0.00    +0.000 OA
ENDBRANCH  17  18
ENDBRANCH   1  17
BRANCH   2  27
ATOM     27  O   UNL     1       5.788   3.802  14.627  0.00  0.00    +0.000 OA
ATOM     28  H   UNL     1       5.044   3.164  14.678  0.00  0.00    +0.000 HD
ENDBRANCH   2  27
BRANCH   5  29
ATOM     29  C   UNL     1       7.315   6.900  18.228  0.00  0.00    +0.000 C 
BRANCH  29  30
ATOM     30  C   UNL     1       7.863   8.105  17.440  0.00  0.00    +0.000 C 
BRANCH  30  31
ATOM     31  C   UNL     1       7.893   9.404  18.254  0.00  0.00    +0.000 C 
BRANCH  31  32
ATOM     32  N   UNL     1       9.265   9.850  18.565  0.00  0.00    +0.000 NA
ATOM     33  C   UNL     1       9.510  10.263  19.963  0.00  0.00    +0.000 C 
ATOM     34  C   UNL     1       8.935  11.638  20.355  0.00  0.00    +0.000 C 
ATOM     35  O   UNL     1       9.300  12.671  19.434  0.00  0.00    +0.000 OA
ATOM     36  C   UNL     1       8.984  12.310  18.084  0.00  0.00    +0.000 C 
ATOM     37  C   UNL     1       9.667  10.987  17.700  0.00  0.00    +0.000 C 
ENDBRANCH  31  32
ENDBRANCH  30  31
ENDBRANCH  29  30
ENDBRANCH   5  29
TORSDOF 9
ENDMDL
MODEL 3
REMARK VINA RESULT:      -7.2      5.238      9.776
REMARK  Name = 
REMARK  9 active torsions:
REMARK  status: ('A' for Active; 'I' for Inactive)
REMARK    1  A    between atoms: C_2  and  C_3
REMARK    2  A    between atoms: C_2  and  C_28
REMARK    3  A    between atoms: C_4  and  O_5
REMARK    4  A    between atoms: N_8  and  C_9
REMARK    5  A    between atoms: C_9  and  C_10
REMARK    6  A    between atoms: C_10  and  C_11
REMARK    7  A    between atoms: C_11  and  N_12
REMARK    8  A    between atoms: C_18  and  C_19
REMARK    9  A    between atoms: C_22  and  N_23
REMARK                            x       y       z     vdW  Elec       q    Type
REMARK                         _______ _______ _______ _____ _____    ______ ____
ROOT
ATOM      1  C   UNL     1       0.306  11.256  21.209  0.00  0.00    +0.000 C 
ATOM      2  C   UNL     1       0.332  10.230  22.066  0.00  0.00    +0.000 C 
ATOM      3  C   UNL     1       0.826   9.034  21.315  0.00  0.00    +0.000 C 
ATOM      4  O   UNL     1       1.050   7.934  21.781  0.00  0.00    +0.000 OA
ATOM      5  N   UNL     1       1.021   9.445  20.007  0.00  0.00    +0.000 N 
ATOM      6  C   UNL     1       0.616  10.810  19.816  0.00  0.00    +0.000 C 
ENDROOT
BRANCH   6   7
ATOM      7  C   UNL     1      -0.524  10.915  18.822  0.00  0.00    +0.000 A 
ATOM      8  C   UNL     1      -0.744  12.067  18.057  0.00  0.00    +0.000 A 
ATOM      9  C   UNL     1      -1.838  12.149  17.194  0.00  0.00    +0.000 A 
ATOM     10  C   UNL     1      -2.733  11.071  17.102  0.00  0.00    +0.000 A 
ATOM     11  C   UNL     1      -2.526   9.913  17.857  0.00  0.00    +0.000 A 
ATOM     12  C   UNL     1      -1.428   9.842  18.709  0.00  0.00    +0.000 A 
BRANCH  10  13
ATOM     13  N   UNL     1      -3.900  11.174  16.224  0.00  0.00    +0.000 N 
ATOM     14  O   UNL     1      -4.817  11.938  16.561  0.00  0.00    +0.000 OA
ATOM     15  O   UNL     1      -3.901  10.488  15.192  0.00  0.00    +0.000 OA
ENDBRANCH  10  13
ENDBRANCH   6   7
BRANCH   1  17
ATOM     16  O   UNL     1       0.813  13.479  21.791  0.00  0.00    +0.000 OA
ATOM     17  C   UNL     1      -0.069  12.645  21.595  0.00  0.00    +0.000 C 
BRANCH  17  18
ATOM     18  C   UNL     1      -1.497  12.972  21.897  0.00  0.00    +0.000 A 
ATOM     19  C   UNL     1      -2.519  12.868  20.925  0.00  0.00    +0.000 A 
ATOM     20  C   UNL     1      -3.851  12.690  21.307  0.00  0.00    +0.000 A 
ATOM     21  C   UNL     1      -4.126  12.731  22.653  0.00  0.00    +0.000 A 
ATOM     22  C   UNL     1      -3.158  13.042  23.581  0.00  0.00    +0.000 A 
ATOM     23  C   UNL     1      -1.833  13.189  23.237  0.00  0.00    +0.000 A 
ATOM     24  O   UNL     1      -3.653  13.041  24.850  0.00  0.00    +0.000 OA
ATOM     25  C   UNL     1      -4.901  12.353  24.625  0.00  0.00    +0.000 C 
ATOM     26  O   UNL     1      -5.316  12.422  23.238  0.00  0.00    +0.000 OA
ENDBRANCH  17  18
ENDBRANCH   1  17
BRANCH   2  27
ATOM     27  O   UNL     1       0.000  10.223  23.392  0.00  0.00    +0.000 OA
ATOM     28  H   UNL     1       0.027  11.153  23.706  0.00  0.00    +0.000 HD
ENDBRANCH   2  27
BRANCH   5  29
ATOM     29  C   UNL     1       1.749   8.700  18.974  0.00  0.00    +0.000 C 
BRANCH  29  30
ATOM     30  C   UNL     1       2.367   7.405  19.533  0.00  0.00    +0.000 C 
BRANCH  30  31
ATOM     31  C   UNL     1       2.398   6.256  18.519  0.00  0.00    +0.000 C 
BRANCH  31  32
ATOM     32  N   UNL     1       3.002   5.026  19.068  0.00  0.00    +0.000 NA
ATOM     33  C   UNL     1       2.782   3.792  18.284  0.00  0.00    +0.000 C 
ATOM     34  C   UNL     1       1.368   3.187  18.389  0.00  0.00    +0.000 C 
ATOM     35  O   UNL     1       0.935   3.030  19.744  0.00  0.00    +0.000 OA
ATOM     36  C   UNL     1       1.065   4.250  20.484  0.00  0.00    +0.000 C 
ATOM     37  C   UNL     1       2.515   4.759  20.444  0.00  0.00    +0.000 C 
ENDBRANCH  31  32
ENDBRANCH  30  31
ENDBRANCH  29  30
ENDBRANCH   5  29
TORSDOF 9
ENDMDL
MODEL 4
REMARK VINA RESULT:      -7.2      5.487     10.091
REMARK  Name = 
REMARK  9 active torsions:
REMARK  status: ('A' for Active; 'I' for Inactive)
REMARK    1  A    between atoms: C_2  and  C_3
REMARK    2  A    between atoms: C_2  and  C_28
REMARK    3  A    between atoms: C_4  and  O_5
REMARK    4  A    between atoms: N_8  and  C_9
REMARK    5  A    between atoms: C_9  and  C_10
REMARK    6  A    between atoms: C_10  and  C_11
REMARK    7  A    between atoms: C_11  and  N_12
REMARK    8  A    between atoms: C_18  and  C_19
REMARK    9  A    between atoms: C_22  and  N_23
REMARK                            x       y       z     vdW  Elec       q    Type
REMARK                         _______ _______ _______ _____ _____    ______ ____
ROOT
ATOM      1  C   UNL     1       0.131  10.355  21.421  0.00  0.00    +0.000 C 
ATOM      2  C   UNL     1      -0.709  10.670  22.413  0.00  0.00    +0.000 C 
ATOM      3  C   UNL     1      -1.669  11.686  21.878  0.00  0.00    +0.000 C 
ATOM      4  O   UNL     1      -2.622  12.155  22.469  0.00  0.00    +0.000 OA
ATOM      5  N   UNL     1      -1.285  11.940  20.572  0.00  0.00    +0.000 N 
ATOM      6  C   UNL     1      -0.089  11.225  20.225  0.00  0.00    +0.000 C 
ENDROOT
BRANCH   6   7
ATOM      7  C   UNL     1       1.044  12.174  19.884  0.00  0.00    +0.000 A 
ATOM      8  C   UNL     1       1.626  13.017  20.839  0.00  0.00    +0.000 A 
ATOM      9  C   UNL     1       2.628  13.918  20.476  0.00  0.00    +0.000 A 
ATOM     10  C   UNL     1       3.047  13.988  19.138  0.00  0.00    +0.000 A 
ATOM     11  C   UNL     1       2.478  13.151  18.173  0.00  0.00    +0.000 A 
ATOM     12  C   UNL     1       1.485  12.253  18.549  0.00  0.00    +0.000 A 
BRANCH  10  13
ATOM     13  N   UNL     1       4.072  14.960  18.752  0.00  0.00    +0.000 N 
ATOM     14  O   UNL     1       4.139  15.292  17.558  0.00  0.00    +0.000 OA
ATOM     15  O   UNL     1       4.813  15.394  19.644  0.00  0.00    +0.000 OA
ENDBRANCH  10  13
ENDBRANCH   6   7
BRANCH   1  17
ATOM     16  O   UNL     1       1.968   9.352  22.498  0.00  0.00    +0.000 OA
ATOM     17  C   UNL     1       1.198   9.322  21.539  0.00  0.00    +0.000 C 
BRANCH  17  18
ATOM     18  C   UNL     1       1.427   8.360  20.417  0.00  0.00    +0.000 A 
ATOM     19  C   UNL     1       1.600   8.784  19.079  0.00  0.00    +0.000 A 
ATOM     20  C   UNL     1       2.282   7.982  18.159  0.00  0.00    +0.000 A 
ATOM     21  C   UNL     1       2.669   6.734  18.585  0.00  0.00    +0.000 A 
ATOM     22  C   UNL     1       2.312   6.247  19.823  0.00  0.00    +0.000 A 
ATOM     23  C   UNL     1       1.672   7.026  20.760  0.00  0.00    +0.000 A 
ATOM     24  O   UNL     1       2.789   4.988  20.029  0.00  0.00    +0.000 OA
ATOM     25  C   UNL     1       3.757   4.916  18.961  0.00  0.00    +0.000 C 
ATOM     26  O   UNL     1       3.475   5.871  17.908  0.00  0.00    +0.000 OA
ENDBRANCH  17  18
ENDBRANCH   1  17
BRANCH   2  27
ATOM     27  O   UNL     1      -0.742  10.175  23.686  0.00  0.00    +0.000 OA
ATOM     28  H   UNL     1      -0.890   9.207  23.621  0.00  0.00    +0.000 HD
ENDBRANCH   2  27
BRANCH   5  29
ATOM     29  C   UNL     1      -2.081  12.655  19.569  0.00  0.00    +0.000 C 
BRANCH  29  30
ATOM     30  C   UNL     1      -2.566  11.715  18.450  0.00  0.00    +0.000 C 
BRANCH  30  31
ATOM     31  C   UNL     1      -4.070  11.422  18.507  0.00  0.00    +0.000 C 
BRANCH  31  32
ATOM     32  N   UNL     1      -4.844  12.525  19.109  0.00  0.00    +0.000 NA
ATOM     33  C   UNL     1      -5.474  12.235  20.415  0.00  0.00    +0.000 C 
ATOM     34  C   UNL     1      -6.727  11.339  20.359  0.00  0.00    +0.000 C 
ATOM     35  O   UNL     1      -7.690  11.797  19.403  0.00  0.00    +0.000 OA
ATOM     36  C   UNL     1      -7.099  11.995  18.113  0.00  0.00    +0.000 C 
ATOM     37  C   UNL     1      -5.923  12.980  18.197  0.00  0.00    +0.000 C 
ENDBRANCH  31  32
ENDBRANCH  30  31
ENDBRANCH  29  30
ENDBRANCH   5  29
TORSDOF 9
ENDMDL
MODEL 5
REMARK VINA RESULT:      -7.2      5.168      9.385
REMARK  Name = 
REMARK  9 active torsions:
REMARK  status: ('A' for Active; 'I' for Inactive)
REMARK    1  A    between atoms: C_2  and  C_3
REMARK    2  A    between atoms: C_2  and  C_28
REMARK    3  A    between atoms: C_4  and  O_5
REMARK    4  A    between atoms: N_8  and  C_9
REMARK    5  A    between atoms: C_9  and  C_10
REMARK    6  A    between atoms: C_10  and  C_11
REMARK    7  A    between atoms: C_11  and  N_12
REMARK    8  A    between atoms: C_18  and  C_19
REMARK    9  A    between atoms: C_22  and  N_23
REMARK                            x       y       z     vdW  Elec       q    Type
REMARK                         _______ _______ _______ _____ _____    ______ ____
ROOT
ATOM      1  C   UNL     1       0.301  10.844  21.063  0.00  0.00    +0.000 C 
ATOM      2  C   UNL     1       0.545   9.689  21.692  0.00  0.00    +0.000 C 
ATOM      3  C   UNL     1       1.213   8.780  20.709  0.00  0.00    +0.000 C 
ATOM      4  O   UNL     1       1.649   7.669  20.941  0.00  0.00    +0.000 OA
ATOM      5  N   UNL     1       1.278   9.473  19.513  0.00  0.00    +0.000 N 
ATOM      6  C   UNL     1       0.629  10.750  19.607  0.00  0.00    +0.000 C 
ENDROOT
BRANCH   6   7
ATOM      7  C   UNL     1      -0.552  10.843  18.659  0.00  0.00    +0.000 A 
ATOM      8  C   UNL     1      -0.814  11.991  17.902  0.00  0.00    +0.000 A 
ATOM      9  C   UNL     1      -1.943  12.061  17.084  0.00  0.00    +0.000 A 
ATOM     10  C   UNL     1      -2.830  10.974  17.030  0.00  0.00    +0.000 A 
ATOM     11  C   UNL     1      -2.580   9.818  17.777  0.00  0.00    +0.000 A 
ATOM     12  C   UNL     1      -1.448   9.760  18.584  0.00  0.00    +0.000 A 
BRANCH  10  13
ATOM     13  N   UNL     1      -4.032  11.063  16.200  0.00  0.00    +0.000 N 
ATOM     14  O   UNL     1      -4.053  10.426  15.135  0.00  0.00    +0.000 OA
ATOM     15  O   UNL     1      -4.961  11.770  16.613  0.00  0.00    +0.000 OA
ENDBRANCH  10  13
ENDBRANCH   6   7
BRANCH   1  17
ATOM     16  O   UNL     1       0.430  12.952  22.102  0.00  0.00    +0.000 OA
ATOM     17  C   UNL     1      -0.299  12.035  21.726  0.00  0.00    +0.000 C 
BRANCH  17  18
ATOM     18  C   UNL     1      -1.754  12.037  22.073  0.00  0.00    +0.000 A 
ATOM     19  C   UNL     1      -2.220  11.781  23.384  0.00  0.00    +0.000 A 
ATOM     20  C   UNL     1      -3.466  12.254  23.802  0.00  0.00    +0.000 A 
ATOM     21  C   UNL     1      -4.249  12.873  22.858  0.00  0.00    +0.000 A 
ATOM     22  C   UNL     1      -3.877  12.933  21.533  0.00  0.00    +0.000 A 
ATOM     23  C   UNL     1      -2.642  12.506  21.100  0.00  0.00    +0.000 A 
ATOM     24  O   UNL     1      -4.806  13.576  20.774  0.00  0.00    +0.000 OA
ATOM     25  C   UNL     1      -5.581  14.205  21.816  0.00  0.00    +0.000 C 
ATOM     26  O   UNL     1      -5.412  13.540  23.093  0.00  0.00    +0.000 OA
ENDBRANCH  17  18
ENDBRANCH   1  17
BRANCH   2  27
ATOM     27  O   UNL     1       0.274   9.357  22.989  0.00  0.00    +0.000 OA
ATOM     28  H   UNL     1       0.486   8.405  23.099  0.00  0.00    +0.000 HD
ENDBRANCH   2  27
BRANCH   5  29
ATOM     29  C   UNL     1       2.085   9.096  18.347  0.00  0.00    +0.000 C 
BRANCH  29  30
ATOM     30  C   UNL     1       2.047   7.578  18.093  0.00  0.00    +0.000 C 
BRANCH  30  31
ATOM     31  C   UNL     1       3.432   6.961  17.870  0.00  0.00    +0.000 C 
BRANCH  31  32
ATOM     32  N   UNL     1       3.725   5.860  18.809  0.00  0.00    +0.000 NA
ATOM     33  C   UNL     1       4.956   5.087  18.537  0.00  0.00    +0.000 C 
ATOM     34  C   UNL     1       4.870   4.103  17.355  0.00  0.00    +0.000 C 
ATOM     35  O   UNL     1       3.723   3.250  17.431  0.00  0.00    +0.000 OA
ATOM     36  C   UNL     1       2.516   4.002  17.607  0.00  0.00    +0.000 C 
ATOM     37  C   UNL     1       2.605   4.888  18.860  0.00  0.00    +0.000 C 
ENDBRANCH  31  32
ENDBRANCH  30  31
ENDBRANCH  29  30
ENDBRANCH   5  29
TORSDOF 9
ENDMDL
MODEL 6
REMARK VINA RESULT:      -7.2      2.434      5.251
REMARK  Name = 
REMARK  9 active torsions:
REMARK  status: ('A' for Active; 'I' for Inactive)
REMARK    1  A    between atoms: C_2  and  C_3
REMARK    2  A    between atoms: C_2  and  C_28
REMARK    3  A    between atoms: C_4  and  O_5
REMARK    4  A    between atoms: N_8  and  C_9
REMARK    5  A    between atoms: C_9  and  C_10
REMARK    6  A    between atoms: C_10  and  C_11
REMARK    7  A    between atoms: C_11  and  N_12
REMARK    8  A    between atoms: C_18  and  C_19
REMARK    9  A    between atoms: C_22  and  N_23
REMARK                            x       y       z     vdW  Elec       q    Type
REMARK                         _______ _______ _______ _____ _____    ______ ____
ROOT
ATOM      1  C   UNL     1       5.121   5.464  18.565  0.00  0.00    +0.000 C 
ATOM      2  C   UNL     1       5.979   5.045  19.502  0.00  0.00    +0.000 C 
ATOM      3  C   UNL     1       7.314   5.638  19.180  0.00  0.00    +0.000 C 
ATOM      4  O   UNL     1       8.324   5.539  19.849  0.00  0.00    +0.000 OA
ATOM      5  N   UNL     1       7.154   6.356  18.007  0.00  0.00    +0.000 N 
ATOM      6  C   UNL     1       5.824   6.217  17.481  0.00  0.00    +0.000 C 
ENDROOT
BRANCH   6   7
ATOM      7  C   UNL     1       5.834   5.552  16.118  0.00  0.00    +0.000 A 
ATOM      8  C   UNL     1       5.267   6.155  14.988  0.00  0.00    +0.000 A 
ATOM      9  C   UNL     1       5.243   5.488  13.763  0.00  0.00    +0.000 A 
ATOM     10  C   UNL     1       5.783   4.195  13.665  0.00  0.00    +0.000 A 
ATOM     11  C   UNL     1       6.356   3.581  14.782  0.00  0.00    +0.000 A 
ATOM     12  C   UNL     1       6.378   4.259  15.997  0.00  0.00    +0.000 A 
BRANCH  10  13
ATOM     13  N   UNL     1       5.725   3.483  12.387  0.00  0.00    +0.000 N 
ATOM     14  O   UNL     1       4.618   3.356  11.842  0.00  0.00    +0.000 OA
ATOM     15  O   UNL     1       6.789   3.049  11.925  0.00  0.00    +0.000 OA
ENDBRANCH  10  13
ENDBRANCH   6   7
BRANCH   1  17
ATOM     16  O   UNL     1       3.293   4.020  18.231  0.00  0.00    +0.000 OA
ATOM     17  C   UNL     1       3.667   5.141  18.572  0.00  0.00    +0.000 C 
BRANCH  17  18
ATOM     18  C   UNL     1       2.668   6.222  18.839  0.00  0.00    +0.000 A 
ATOM     19  C   UNL     1       2.097   6.428  20.116  0.00  0.00    +0.000 A 
ATOM     20  C   UNL     1       1.583   7.677  20.474  0.00  0.00    +0.000 A 
ATOM     21  C   UNL     1       1.559   8.645  19.500  0.00  0.00    +0.000 A 
ATOM     22  C   UNL     1       1.923   8.375  18.199  0.00  0.00    +0.000 A 
ATOM     23  C   UNL     1       2.464   7.165  17.827  0.00  0.00    +0.000 A 
ATOM     24  O   UNL     1       1.808   9.473  17.402  0.00  0.00    +0.000 OA
ATOM     25  C   UNL     1       1.694  10.497  18.412  0.00  0.00    +0.000 C 
ATOM     26  O   UNL     1       1.252   9.959  19.683  0.00  0.00    +0.000 OA
ENDBRANCH  17  18
ENDBRANCH   1  17
BRANCH   2  27
ATOM     27  O   UNL     1       5.732   4.244  20.581  0.00  0.00    +0.000 OA
ATOM     28  H   UNL     1       4.791   3.969  20.533  0.00  0.00    +0.000 HD
ENDBRANCH   2  27
BRANCH   5  29
ATOM     29  C   UNL     1       8.109   7.323  17.456  0.00  0.00    +0.000 C 
BRANCH  29  30
ATOM     30  C   UNL     1       7.789   8.761  17.904  0.00  0.00    +0.000 C 
BRANCH  30  31
ATOM     31  C   UNL     1       8.948   9.443  18.640  0.00  0.00    +0.000 C 
BRANCH  31  32
ATOM     32  N   UNL     1       8.671  10.860  18.951  0.00  0.00    +0.000 NA
ATOM     33  C   UNL     1       8.991  11.831  17.884  0.00  0.00    +0.000 C 
ATOM     34  C   UNL     1      10.490  12.130  17.692  0.00  0.00    +0.000 C 
ATOM     35  O   UNL     1      11.147  12.465  18.920  0.00  0.00    +0.000 OA
ATOM     36  C   UNL     1      10.910  11.479  19.931  0.00  0.00    +0.000 C 
ATOM     37  C   UNL     1       9.402  11.292  20.167  0.00  0.00    +0.000 C 
ENDBRANCH  31  32
ENDBRANCH  30  31
ENDBRANCH  29  30
ENDBRANCH   5  29
TORSDOF 9
ENDMDL
MODEL 7
REMARK VINA RESULT:      -7.2      5.857      8.696
REMARK  Name = 
REMARK  9 active torsions:
REMARK  status: ('A' for Active; 'I' for Inactive)
REMARK    1  A    between atoms: C_2  and  C_3
REMARK    2  A    between atoms: C_2  and  C_28
REMARK    3  A    between atoms: C_4  and  O_5
REMARK    4  A    between atoms: N_8  and  C_9
REMARK    5  A    between atoms: C_9  and  C_10
REMARK    6  A    between atoms: C_10  and  C_11
REMARK    7  A    between atoms: C_11  and  N_12
REMARK    8  A    between atoms: C_18  and  C_19
REMARK    9  A    between atoms: C_22  and  N_23
REMARK                            x       y       z     vdW  Elec       q    Type
REMARK                         _______ _______ _______ _____ _____    ______ ____
ROOT
ATOM      1  C   UNL     1      -0.506  12.284  19.371  0.00  0.00    +0.000 C 
ATOM      2  C   UNL     1      -0.611  13.176  18.379  0.00  0.00    +0.000 C 
ATOM      3  C   UNL     1      -0.313  14.522  18.958  0.00  0.00    +0.000 C 
ATOM      4  O   UNL     1      -0.241  15.569  18.343  0.00  0.00    +0.000 OA
ATOM      5  N   UNL     1      -0.089  14.329  20.310  0.00  0.00    +0.000 N 
ATOM      6  C   UNL     1      -0.295  12.959  20.689  0.00  0.00    +0.000 C 
ENDROOT
BRANCH   6   7
ATOM      7  C   UNL     1      -1.429  12.825  21.687  0.00  0.00    +0.000 A 
ATOM      8  C   UNL     1      -1.371  11.937  22.768  0.00  0.00    +0.000 A 
ATOM      9  C   UNL     1      -2.458  11.798  23.633  0.00  0.00    +0.000 A 
ATOM     10  C   UNL     1      -3.624  12.547  23.409  0.00  0.00    +0.000 A 
ATOM     11  C   UNL     1      -3.696  13.440  22.335  0.00  0.00    +0.000 A 
ATOM     12  C   UNL     1      -2.604  13.573  21.484  0.00  0.00    +0.000 A 
BRANCH  10  13
ATOM     13  N   UNL     1      -4.776  12.374  24.295  0.00  0.00    +0.000 N 
ATOM     14  O   UNL     1      -4.562  12.247  25.510  0.00  0.00    +0.000 OA
ATOM     15  O   UNL     1      -5.901  12.365  23.776  0.00  0.00    +0.000 OA
ENDBRANCH  10  13
ENDBRANCH   6   7
BRANCH   1  17
ATOM     16  O   UNL     1      -1.758  10.363  18.841  0.00  0.00    +0.000 OA
ATOM     17  C   UNL     1      -0.666  10.815  19.182  0.00  0.00    +0.000 C 
BRANCH  17  18
ATOM     18  C   UNL     1       0.448   9.893  19.561  0.00  0.00    +0.000 A 
ATOM     19  C   UNL     1       0.503   9.248  20.818  0.00  0.00    +0.000 A 
ATOM     20  C   UNL     1       1.224   8.062  20.981  0.00  0.00    +0.000 A 
ATOM     21  C   UNL     1       1.955   7.622  19.904  0.00  0.00    +0.000 A 
ATOM     22  C   UNL     1       2.065   8.367  18.750  0.00  0.00    +0.000 A 
ATOM     23  C   UNL     1       1.340   9.519  18.550  0.00  0.00    +0.000 A 
ATOM     24  O   UNL     1       2.848   7.750  17.821  0.00  0.00    +0.000 OA
ATOM     25  C   UNL     1       2.894   6.422  18.384  0.00  0.00    +0.000 C 
ATOM     26  O   UNL     1       2.589   6.422  19.801  0.00  0.00    +0.000 OA
ENDBRANCH  17  18
ENDBRANCH   1  17
BRANCH   2  27
ATOM     27  O   UNL     1      -0.911  12.951  17.065  0.00  0.00    +0.000 OA
ATOM     28  H   UNL     1      -0.820  11.987  16.904  0.00  0.00    +0.000 HD
ENDBRANCH   2  27
BRANCH   5  29
ATOM     29  C   UNL     1       0.501  15.308  21.230  0.00  0.00    +0.000 C 
BRANCH  29  30
ATOM     30  C   UNL     1       1.892  14.865  21.720  0.00  0.00    +0.000 C 
BRANCH  30  31
ATOM     31  C   UNL     1       2.895  14.636  20.583  0.00  0.00    +0.000 C 
BRANCH  31  32
ATOM     32  N   UNL     1       3.477  15.892  20.073  0.00  0.00    +0.000 NA
ATOM     33  C   UNL     1       3.085  16.276  18.700  0.00  0.00    +0.000 C 
ATOM     34  C   UNL     1       3.753  15.467  17.572  0.00  0.00    +0.000 C 
ATOM     35  O   UNL     1       5.177  15.401  17.710  0.00  0.00    +0.000 OA
ATOM     36  C   UNL     1       5.560  14.944  19.013  0.00  0.00    +0.000 C 
ATOM     37  C   UNL     1       4.960  15.846  20.104  0.00  0.00    +0.000 C 
ENDBRANCH  31  32
ENDBRANCH  30  31
ENDBRANCH  29  30
ENDBRANCH   5  29
TORSDOF 9
ENDMDL
MODEL 8
REMARK VINA RESULT:      -7.1      5.604     10.175
REMARK  Name = 
REMARK  9 active torsions:
REMARK  status: ('A' for Active; 'I' for Inactive)
REMARK    1  A    between atoms: C_2  and  C_3
REMARK    2  A    between atoms: C_2  and  C_28
REMARK    3  A    between atoms: C_4  and  O_5
REMARK    4  A    between atoms: N_8  and  C_9
REMARK    5  A    between atoms: C_9  and  C_10
REMARK    6  A    between atoms: C_10  and  C_11
REMARK    7  A    between atoms: C_11  and  N_12
REMARK    8  A    between atoms: C_18  and  C_19
REMARK    9  A    between atoms: C_22  and  N_23
REMARK                            x       y       z     vdW  Elec       q    Type
REMARK                         _______ _______ _______ _____ _____    ______ ____
ROOT
ATOM      1  C   UNL     1       0.128  10.431  21.395  0.00  0.00    +0.000 C 
ATOM      2  C   UNL     1      -0.719  10.728  22.387  0.00  0.00    +0.000 C 
ATOM      3  C   UNL     1      -1.679  11.748  21.862  0.00  0.00    +0.000 C 
ATOM      4  O   UNL     1      -2.637  12.205  22.455  0.00  0.00    +0.000 OA
ATOM      5  N   UNL     1      -1.290  12.024  20.563  0.00  0.00    +0.000 N 
ATOM      6  C   UNL     1      -0.088  11.319  20.211  0.00  0.00    +0.000 C 
ENDROOT
BRANCH   6   7
ATOM      7  C   UNL     1       1.043  12.277  19.891  0.00  0.00    +0.000 A 
ATOM      8  C   UNL     1       1.611  12.362  18.614  0.00  0.00    +0.000 A 
ATOM      9  C   UNL     1       2.689  13.215  18.371  0.00  0.00    +0.000 A 
ATOM     10  C   UNL     1       3.217  13.983  19.420  0.00  0.00    +0.000 A 
ATOM     11  C   UNL     1       2.659  13.911  20.701  0.00  0.00    +0.000 A 
ATOM     12  C   UNL     1       1.581  13.063  20.928  0.00  0.00    +0.000 A 
BRANCH  10  13
ATOM     13  N   UNL     1       4.371  14.849  19.173  0.00  0.00    +0.000 N 
ATOM     14  O   UNL     1       5.247  14.916  20.048  0.00  0.00    +0.000 OA
ATOM     15  O   UNL     1       4.404  15.465  18.098  0.00  0.00    +0.000 OA
ENDBRANCH  10  13
ENDBRANCH   6   7
BRANCH   1  17
ATOM     16  O   UNL     1       1.966   9.422  22.464  0.00  0.00    +0.000 OA
ATOM     17  C   UNL     1       1.199   9.401  21.503  0.00  0.00    +0.000 C 
BRANCH  17  18
ATOM     18  C   UNL     1       1.434   8.454  20.370  0.00  0.00    +0.000 A 
ATOM     19  C   UNL     1       1.562   8.891  19.031  0.00  0.00    +0.000 A 
ATOM     20  C   UNL     1       2.249   8.118  18.091  0.00  0.00    +0.000 A 
ATOM     21  C   UNL     1       2.688   6.882  18.499  0.00  0.00    +0.000 A 
ATOM     22  C   UNL     1       2.376   6.376  19.742  0.00  0.00    +0.000 A 
ATOM     23  C   UNL     1       1.732   7.127  20.698  0.00  0.00    +0.000 A 
ATOM     24  O   UNL     1       2.900   5.132  19.929  0.00  0.00    +0.000 OA
ATOM     25  C   UNL     1       3.845   5.098  18.838  0.00  0.00    +0.000 C 
ATOM     26  O   UNL     1       3.507   6.050  17.798  0.00  0.00    +0.000 OA
ENDBRANCH  17  18
ENDBRANCH   1  17
BRANCH   2  27
ATOM     27  O   UNL     1      -0.756  10.213  23.652  0.00  0.00    +0.000 OA
ATOM     28  H   UNL     1       0.020   9.622  23.752  0.00  0.00    +0.000 HD
ENDBRANCH   2  27
BRANCH   5  29
ATOM     29  C   UNL     1      -2.083  12.751  19.566  0.00  0.00    +0.000 C 
BRANCH  29  30
ATOM     30  C   UNL     1      -2.992  11.805  18.760  0.00  0.00    +0.000 C 
BRANCH  30  31
ATOM     31  C   UNL     1      -4.461  11.848  19.198  0.00  0.00    +0.000 C 
BRANCH  31  32
ATOM     32  N   UNL     1      -5.381  11.337  18.163  0.00  0.00    +0.000 NA
ATOM     33  C   UNL     1      -5.624  12.235  17.014  0.00  0.00    +0.000 C 
ATOM     34  C   UNL     1      -6.551  13.433  17.297  0.00  0.00    +0.000 C 
ATOM     35  O   UNL     1      -7.777  13.045  17.926  0.00  0.00    +0.000 OA
ATOM     36  C   UNL     1      -7.542  12.246  19.092  0.00  0.00    +0.000 C 
ATOM     37  C   UNL     1      -6.706  11.004  18.742  0.00  0.00    +0.000 C 
ENDBRANCH  31  32
ENDBRANCH  30  31
ENDBRANCH  29  30
ENDBRANCH   5  29
TORSDOF 9
ENDMDL
MODEL 9
REMARK VINA RESULT:      -7.1      5.261      9.506
REMARK  Name = 
REMARK  9 active torsions:
REMARK  status: ('A' for Active; 'I' for Inactive)
REMARK    1  A    between atoms: C_2  and  C_3
REMARK    2  A    between atoms: C_2  and  C_28
REMARK    3  A    between atoms: C_4  and  O_5
REMARK    4  A    between atoms: N_8  and  C_9
REMARK    5  A    between atoms: C_9  and  C_10
REMARK    6  A    between atoms: C_10  and  C_11
REMARK    7  A    between atoms: C_11  and  N_12
REMARK    8  A    between atoms: C_18  and  C_19
REMARK    9  A    between atoms: C_22  and  N_23
REMARK                            x       y       z     vdW  Elec       q    Type
REMARK                         _______ _______ _______ _____ _____    ______ ____
ROOT
ATOM      1  C   UNL     1       0.201  10.931  21.229  0.00  0.00    +0.000 C 
ATOM      2  C   UNL     1       0.443   9.803  21.906  0.00  0.00    +0.000 C 
ATOM      3  C   UNL     1       1.140   8.864  20.973  0.00  0.00    +0.000 C 
ATOM      4  O   UNL     1       1.583   7.767  21.254  0.00  0.00    +0.000 OA
ATOM      5  N   UNL     1       1.224   9.512  19.752  0.00  0.00    +0.000 N 
ATOM      6  C   UNL     1       0.559  10.785  19.785  0.00  0.00    +0.000 C 
ENDROOT
BRANCH   6   7
ATOM      7  C   UNL     1      -0.602  10.829  18.811  0.00  0.00    +0.000 A 
ATOM      8  C   UNL     1      -1.413   9.714  18.563  0.00  0.00    +0.000 A 
ATOM      9  C   UNL     1      -2.436   9.776  17.617  0.00  0.00    +0.000 A 
ATOM     10  C   UNL     1      -2.647  10.963  16.897  0.00  0.00    +0.000 A 
ATOM     11  C   UNL     1      -1.849  12.086  17.135  0.00  0.00    +0.000 A 
ATOM     12  C   UNL     1      -0.836  12.013  18.085  0.00  0.00    +0.000 A 
BRANCH  10  13
ATOM     13  N   UNL     1      -3.698  11.014  15.879  0.00  0.00    +0.000 N 
ATOM     14  O   UNL     1      -4.801  11.478  16.204  0.00  0.00    +0.000 OA
ATOM     15  O   UNL     1      -3.420  10.589  14.749  0.00  0.00    +0.000 OA
ENDBRANCH  10  13
ENDBRANCH   6   7
BRANCH   1  17
ATOM     16  O   UNL     1       0.288  13.075  22.194  0.00  0.00    +0.000 OA
ATOM     17  C   UNL     1      -0.424  12.139  21.834  0.00  0.00    +0.000 C 
BRANCH  17  18
ATOM     18  C   UNL     1      -1.887  12.140  22.147  0.00  0.00    +0.000 A 
ATOM     19  C   UNL     1      -2.381  11.947  23.458  0.00  0.00    +0.000 A 
ATOM     20  C   UNL     1      -3.643  12.425  23.822  0.00  0.00    +0.000 A 
ATOM     21  C   UNL     1      -4.410  12.984  22.829  0.00  0.00    +0.000 A 
ATOM     22  C   UNL     1      -4.006  12.980  21.512  0.00  0.00    +0.000 A 
ATOM     23  C   UNL     1      -2.757  12.547  21.130  0.00  0.00    +0.000 A 
ATOM     24  O   UNL     1      -4.925  13.571  20.698  0.00  0.00    +0.000 OA
ATOM     25  C   UNL     1      -5.732  14.243  21.688  0.00  0.00    +0.000 C 
ATOM     26  O   UNL     1      -5.586  13.648  23.002  0.00  0.00    +0.000 OA
ENDBRANCH  17  18
ENDBRANCH   1  17
BRANCH   2  27
ATOM     27  O   UNL     1       0.150   9.516  23.210  0.00  0.00    +0.000 OA
ATOM     28  H   UNL     1       0.444   8.596  23.382  0.00  0.00    +0.000 HD
ENDBRANCH   2  27
BRANCH   5  29
ATOM     29  C   UNL     1       2.057   9.100  18.618  0.00  0.00    +0.000 C 
BRANCH  29  30
ATOM     30  C   UNL     1       1.855   7.614  18.271  0.00  0.00    +0.000 C 
BRANCH  30  31
ATOM     31  C   UNL     1       3.120   6.766  18.455  0.00  0.00    +0.000 C 
BRANCH  31  32
ATOM     32  N   UNL     1       3.108   5.538  17.636  0.00  0.00    +0.000 NA
ATOM     33  C   UNL     1       2.393   4.381  18.216  0.00  0.00    +0.000 C 
ATOM     34  C   UNL     1       3.129   3.655  19.358  0.00  0.00    +0.000 C 
ATOM     35  O   UNL     1       4.479   3.319  19.018  0.00  0.00    +0.000 OA
ATOM     36  C   UNL     1       5.202   4.459  18.538  0.00  0.00    +0.000 C 
ATOM     37  C   UNL     1       4.488   5.087  17.329  0.00  0.00    +0.000 C 
ENDBRANCH  31  32
ENDBRANCH  30  31
ENDBRANCH  29  30
ENDBRANCH   5  29
TORSDOF 9
ENDMDL
