MODEL 1
REMARK VINA RESULT:      -7.9      0.000      0.000
REMARK  Name = 
REMARK  6 active torsions:
REMARK  status: ('A' for Active; 'I' for Inactive)
REMARK    1  A    between atoms: C_1  and  O_2
REMARK    2  A    between atoms: O_2  and  C_3
REMARK    3  A    between atoms: C_6  and  C_7
REMARK    4  A    between atoms: C_7  and  C_8
REMARK    5  A    between atoms: C_12  and  C_13
REMARK    6  A    between atoms: C_20  and  N_21
REMARK                            x       y       z     vdW  Elec       q    Type
REMARK                         _______ _______ _______ _____ _____    ______ ____
ROOT
ATOM      1  C   UNL     1       7.184   5.944  17.772  0.00  0.00    +0.000 A 
ATOM      2  C   UNL     1       6.786   7.026  17.004  0.00  0.00    +0.000 A 
ATOM      3  N   UNL     1       5.861   6.900  15.964  0.00  0.00    +0.000 N 
ATOM      4  N   UNL     1       7.216   8.274  17.209  0.00  0.00    +0.000 NA
ATOM      5  C   UNL     1       8.076   8.465  18.228  0.00  0.00    +0.000 A 
ATOM      6  N   UNL     1       8.459   7.495  19.079  0.00  0.00    +0.000 NA
ATOM      7  C   UNL     1       8.006   6.260  18.842  0.00  0.00    +0.000 A 
ATOM      8  H   UNL     1       6.178   6.209  15.285  0.00  0.00    +0.000 HD
ATOM      9  H   UNL     1       5.770   7.814  15.533  0.00  0.00    +0.000 HD
ENDROOT
BRANCH   5  10
ATOM     10  C   UNL     1       8.661   9.824  18.372  0.00  0.00    +0.000 A 
ATOM     11  C   UNL     1       9.631  10.099  19.345  0.00  0.00    +0.000 A 
ATOM     12  C   UNL     1      10.140  11.390  19.473  0.00  0.00    +0.000 A 
ATOM     13  C   UNL     1       9.673  12.388  18.632  0.00  0.00    +0.000 A 
ATOM     14  C   UNL     1       8.711  12.052  17.696  0.00  0.00    +0.000 A 
ATOM     15  N   UNL     1       8.202  10.810  17.548  0.00  0.00    +0.000 NA
ENDBRANCH   5  10
BRANCH   7  16
ATOM     16  N   UNL     1       8.385   5.310  19.793  0.00  0.00    +0.000 N 
ATOM     17  H   UNL     1       7.825   4.479  19.602  0.00  0.00    +0.000 HD
ATOM     18  H   UNL     1       8.240   5.643  20.737  0.00  0.00    +0.000 HD
ENDBRANCH   7  16
BRANCH   1  19
ATOM     19  C   UNL     1       6.759   4.536  17.457  0.00  0.00    +0.000 C 
BRANCH  19  23
ATOM     20  C   UNL     1       2.668   3.666  18.640  0.00  0.00    +0.000 A 
ATOM     21  C   UNL     1       3.641   3.953  19.600  0.00  0.00    +0.000 A 
ATOM     22  C   UNL     1       4.962   4.213  19.216  0.00  0.00    +0.000 A 
ATOM     23  C   UNL     1       5.339   4.194  17.867  0.00  0.00    +0.000 A 
ATOM     24  C   UNL     1       4.346   3.904  16.923  0.00  0.00    +0.000 A 
ATOM     25  F   UNL     1       4.631   3.906  15.614  0.00  0.00    +0.000 F 
ATOM     26  C   UNL     1       3.032   3.634  17.297  0.00  0.00    +0.000 A 
BRANCH  20  28
ATOM     27  C   UNL     1       0.926   3.407  20.236  0.00  0.00    +0.000 C 
ATOM     28  O   UNL     1       1.344   3.418  18.877  0.00  0.00    +0.000 OA
ENDBRANCH  20  28
ENDBRANCH  19  23
ENDBRANCH   1  19
TORSDOF 5
ENDMDL
MODEL 2
REMARK VINA RESULT:      -7.6      0.614      1.001
REMARK  Name = 
REMARK  6 active torsions:
REMARK  status: ('A' for Active; 'I' for Inactive)
REMARK    1  A    between atoms: C_1  and  O_2
REMARK    2  A    between atoms: O_2  and  C_3
REMARK    3  A    between atoms: C_6  and  C_7
REMARK    4  A    between atoms: C_7  and  C_8
REMARK    5  A    between atoms: C_12  and  C_13
REMARK    6  A    between atoms: C_20  and  N_21
REMARK                            x       y       z     vdW  Elec       q    Type
REMARK                         _______ _______ _______ _____ _____    ______ ____
ROOT
ATOM      1  C   UNL     1       7.198   5.946  17.807  0.00  0.00    +0.000 A 
ATOM      2  C   UNL     1       6.808   7.032  17.040  0.00  0.00    +0.000 A 
ATOM      3  N   UNL     1       5.884   6.914  15.999  0.00  0.00    +0.000 N 
ATOM      4  N   UNL     1       7.247   8.276  17.247  0.00  0.00    +0.000 NA
ATOM      5  C   UNL     1       8.107   8.460  18.267  0.00  0.00    +0.000 A 
ATOM      6  N   UNL     1       8.482   7.486  19.118  0.00  0.00    +0.000 NA
ATOM      7  C   UNL     1       8.020   6.254  18.879  0.00  0.00    +0.000 A 
ATOM      8  H   UNL     1       6.197   6.221  15.319  0.00  0.00    +0.000 HD
ATOM      9  H   UNL     1       5.801   7.829  15.569  0.00  0.00    +0.000 HD
ENDROOT
BRANCH   5  10
ATOM     10  C   UNL     1       8.702   9.814  18.414  0.00  0.00    +0.000 A 
ATOM     11  C   UNL     1       8.323  10.871  17.576  0.00  0.00    +0.000 A 
ATOM     12  C   UNL     1       8.920  12.121  17.721  0.00  0.00    +0.000 A 
ATOM     13  C   UNL     1       9.887  12.300  18.698  0.00  0.00    +0.000 A 
ATOM     14  C   UNL     1      10.220  11.216  19.490  0.00  0.00    +0.000 A 
ATOM     15  N   UNL     1       9.657   9.993  19.373  0.00  0.00    +0.000 NA
ENDBRANCH   5  10
BRANCH   7  16
ATOM     16  N   UNL     1       8.391   5.301  19.829  0.00  0.00    +0.000 N 
ATOM     17  H   UNL     1       7.875   5.532  20.678  0.00  0.00    +0.000 HD
ATOM     18  H   UNL     1       9.389   5.302  19.994  0.00  0.00    +0.000 HD
ENDBRANCH   7  16
BRANCH   1  19
ATOM     19  C   UNL     1       6.763   4.541  17.490  0.00  0.00    +0.000 C 
BRANCH  19  23
ATOM     20  C   UNL     1       2.607   3.755  18.494  0.00  0.00    +0.000 A 
ATOM     21  C   UNL     1       3.537   4.055  19.493  0.00  0.00    +0.000 A 
ATOM     22  C   UNL     1       4.879   4.288  19.167  0.00  0.00    +0.000 A 
ATOM     23  C   UNL     1       5.320   4.229  17.839  0.00  0.00    +0.000 A 
ATOM     24  C   UNL     1       4.370   3.926  16.855  0.00  0.00    +0.000 A 
ATOM     25  F   UNL     1       4.718   3.890  15.562  0.00  0.00    +0.000 F 
ATOM     26  C   UNL     1       3.036   3.683  17.172  0.00  0.00    +0.000 A 
BRANCH  20  28
ATOM     27  C   UNL     1       0.905   2.593  19.678  0.00  0.00    +0.000 C 
ATOM     28  O   UNL     1       1.270   3.530  18.673  0.00  0.00    +0.000 OA
ENDBRANCH  20  28
ENDBRANCH  19  23
ENDBRANCH   1  19
TORSDOF 5
ENDMDL
MODEL 3
REMARK VINA RESULT:      -7.6      0.434      1.748
REMARK  Name = 
REMARK  6 active torsions:
REMARK  status: ('A' for Active; 'I' for Inactive)
REMARK    1  A    between atoms: C_1  and  O_2
REMARK    2  A    between atoms: O_2  and  C_3
REMARK    3  A    between atoms: C_6  and  C_7
REMARK    4  A    between atoms: C_7  and  C_8
REMARK    5  A    between atoms: C_12  and  C_13
REMARK    6  A    between atoms: C_20  and  N_21
REMARK                            x       y       z     vdW  Elec       q    Type
REMARK                         _______ _______ _______ _____ _____    ______ ____
ROOT
ATOM      1  C   UNL     1       7.209   5.800  17.861  0.00  0.00    +0.000 A 
ATOM      2  C   UNL     1       8.033   6.175  18.910  0.00  0.00    +0.000 A 
ATOM      3  N   UNL     1       8.467   5.266  19.877  0.00  0.00    +0.000 N 
ATOM      4  N   UNL     1       8.508   7.413  19.067  0.00  0.00    +0.000 NA
ATOM      5  C   UNL     1       8.160   8.325  18.139  0.00  0.00    +0.000 A 
ATOM      6  N   UNL     1       7.432   8.040  17.043  0.00  0.00    +0.000 NA
ATOM      7  C   UNL     1       6.976   6.789  16.920  0.00  0.00    +0.000 A 
ATOM      8  H   UNL     1       7.671   4.815  20.328  0.00  0.00    +0.000 HD
ATOM      9  H   UNL     1       9.016   5.787  20.553  0.00  0.00    +0.000 HD
ENDROOT
BRANCH   5  10
ATOM     10  C   UNL     1       8.573   9.732  18.384  0.00  0.00    +0.000 A 
ATOM     11  C   UNL     1       9.349  10.079  19.498  0.00  0.00    +0.000 A 
ATOM     12  C   UNL     1       9.697  11.410  19.715  0.00  0.00    +0.000 A 
ATOM     13  C   UNL     1       9.263  12.377  18.821  0.00  0.00    +0.000 A 
ATOM     14  C   UNL     1       8.495  11.970  17.744  0.00  0.00    +0.000 A 
ATOM     15  N   UNL     1       8.145  10.687  17.508  0.00  0.00    +0.000 NA
ENDBRANCH   5  10
BRANCH   7  16
ATOM     16  N   UNL     1       6.283   6.538  15.734  0.00  0.00    +0.000 N 
ATOM     17  H   UNL     1       6.972   6.601  14.984  0.00  0.00    +0.000 HD
ATOM     18  H   UNL     1       5.526   7.195  15.594  0.00  0.00    +0.000 HD
ENDBRANCH   7  16
BRANCH   1  19
ATOM     19  C   UNL     1       6.610   4.423  17.763  0.00  0.00    +0.000 C 
BRANCH  19  23
ATOM     20  C   UNL     1       2.438   4.270  18.975  0.00  0.00    +0.000 A 
ATOM     21  C   UNL     1       3.441   4.536  19.910  0.00  0.00    +0.000 A 
ATOM     22  C   UNL     1       4.786   4.565  19.519  0.00  0.00    +0.000 A 
ATOM     23  C   UNL     1       5.156   4.331  18.188  0.00  0.00    +0.000 A 
ATOM     24  C   UNL     1       4.132   4.067  17.269  0.00  0.00    +0.000 A 
ATOM     25  F   UNL     1       4.414   3.872  15.975  0.00  0.00    +0.000 F 
ATOM     26  C   UNL     1       2.794   4.027  17.651  0.00  0.00    +0.000 A 
BRANCH  20  28
ATOM     27  C   UNL     1       0.653   3.399  20.280  0.00  0.00    +0.000 C 
ATOM     28  O   UNL     1       1.092   4.236  19.218  0.00  0.00    +0.000 OA
ENDBRANCH  20  28
ENDBRANCH  19  23
ENDBRANCH   1  19
TORSDOF 5
ENDMDL
MODEL 4
REMARK VINA RESULT:      -7.5      1.117      2.217
REMARK  Name = 
REMARK  6 active torsions:
REMARK  status: ('A' for Active; 'I' for Inactive)
REMARK    1  A    between atoms: C_1  and  O_2
REMARK    2  A    between atoms: O_2  and  C_3
REMARK    3  A    between atoms: C_6  and  C_7
REMARK    4  A    between atoms: C_7  and  C_8
REMARK    5  A    between atoms: C_12  and  C_13
REMARK    6  A    between atoms: C_20  and  N_21
REMARK                            x       y       z     vdW  Elec       q    Type
REMARK                         _______ _______ _______ _____ _____    ______ ____
ROOT
ATOM      1  C   UNL     1       6.721   5.857  17.606  0.00  0.00    +0.000 A 
ATOM      2  C   UNL     1       7.703   6.071  18.559  0.00  0.00    +0.000 A 
ATOM      3  N   UNL     1       8.191   5.042  19.368  0.00  0.00    +0.000 N 
ATOM      4  N   UNL     1       8.289   7.254  18.761  0.00  0.00    +0.000 NA
ATOM      5  C   UNL     1       7.891   8.276  17.979  0.00  0.00    +0.000 A 
ATOM      6  N   UNL     1       7.004   8.151  16.974  0.00  0.00    +0.000 NA
ATOM      7  C   UNL     1       6.441   6.950  16.801  0.00  0.00    +0.000 A 
ATOM      8  H   UNL     1       7.431   4.600  19.882  0.00  0.00    +0.000 HD
ATOM      9  H   UNL     1       8.864   5.457  20.005  0.00  0.00    +0.000 HD
ENDROOT
BRANCH   5  10
ATOM     10  C   UNL     1       8.439   9.621  18.293  0.00  0.00    +0.000 A 
ATOM     11  C   UNL     1       8.148  10.732  17.489  0.00  0.00    +0.000 A 
ATOM     12  C   UNL     1       8.701  11.974  17.794  0.00  0.00    +0.000 A 
ATOM     13  C   UNL     1       9.537  12.091  18.893  0.00  0.00    +0.000 A 
ATOM     14  C   UNL     1       9.789  10.956  19.643  0.00  0.00    +0.000 A 
ATOM     15  N   UNL     1       9.266   9.740  19.372  0.00  0.00    +0.000 NA
ENDBRANCH   5  10
BRANCH   7  16
ATOM     16  N   UNL     1       5.579   6.865  15.707  0.00  0.00    +0.000 N 
ATOM     17  H   UNL     1       5.977   6.159  15.087  0.00  0.00    +0.000 HD
ATOM     18  H   UNL     1       5.480   7.755  15.235  0.00  0.00    +0.000 HD
ENDBRANCH   7  16
BRANCH   1  19
ATOM     19  C   UNL     1       6.011   4.538  17.467  0.00  0.00    +0.000 C 
BRANCH  19  23
ATOM     20  C   UNL     1       2.440   4.149  19.916  0.00  0.00    +0.000 A 
ATOM     21  C   UNL     1       3.244   5.287  20.006  0.00  0.00    +0.000 A 
ATOM     22  C   UNL     1       4.404   5.400  19.230  0.00  0.00    +0.000 A 
ATOM     23  C   UNL     1       4.785   4.381  18.346  0.00  0.00    +0.000 A 
ATOM     24  C   UNL     1       3.962   3.249  18.274  0.00  0.00    +0.000 A 
ATOM     25  F   UNL     1       4.247   2.255  17.423  0.00  0.00    +0.000 F 
ATOM     26  C   UNL     1       2.812   3.125  19.049  0.00  0.00    +0.000 A 
BRANCH  20  28
ATOM     27  C   UNL     1       1.247   2.799  21.466  0.00  0.00    +0.000 C 
ATOM     28  O   UNL     1       1.275   3.924  20.597  0.00  0.00    +0.000 OA
ENDBRANCH  20  28
ENDBRANCH  19  23
ENDBRANCH   1  19
TORSDOF 5
ENDMDL
MODEL 5
REMARK VINA RESULT:      -7.5      0.982      1.357
REMARK  Name = 
REMARK  6 active torsions:
REMARK  status: ('A' for Active; 'I' for Inactive)
REMARK    1  A    between atoms: C_1  and  O_2
REMARK    2  A    between atoms: O_2  and  C_3
REMARK    3  A    between atoms: C_6  and  C_7
REMARK    4  A    between atoms: C_7  and  C_8
REMARK    5  A    between atoms: C_12  and  C_13
REMARK    6  A    between atoms: C_20  and  N_21
REMARK                            x       y       z     vdW  Elec       q    Type
REMARK                         _______ _______ _______ _____ _____    ______ ____
ROOT
ATOM      1  C   UNL     1       7.138   6.011  17.806  0.00  0.00    +0.000 A 
ATOM      2  C   UNL     1       6.740   7.093  17.038  0.00  0.00    +0.000 A 
ATOM      3  N   UNL     1       5.790   6.973  16.020  0.00  0.00    +0.000 N 
ATOM      4  N   UNL     1       7.195   8.334  17.222  0.00  0.00    +0.000 NA
ATOM      5  C   UNL     1       8.081   8.520  18.219  0.00  0.00    +0.000 A 
ATOM      6  N   UNL     1       8.467   7.552  19.070  0.00  0.00    +0.000 NA
ATOM      7  C   UNL     1       7.989   6.322  18.855  0.00  0.00    +0.000 A 
ATOM      8  H   UNL     1       6.080   6.271  15.341  0.00  0.00    +0.000 HD
ATOM      9  H   UNL     1       5.705   7.885  15.583  0.00  0.00    +0.000 HD
ENDROOT
BRANCH   5  10
ATOM     10  C   UNL     1       8.692   9.870  18.338  0.00  0.00    +0.000 A 
ATOM     11  C   UNL     1       9.710  10.130  19.265  0.00  0.00    +0.000 A 
ATOM     12  C   UNL     1      10.243  11.413  19.371  0.00  0.00    +0.000 A 
ATOM     13  C   UNL     1       9.751  12.419  18.554  0.00  0.00    +0.000 A 
ATOM     14  C   UNL     1       8.742  12.099  17.664  0.00  0.00    +0.000 A 
ATOM     15  N   UNL     1       8.208  10.865  17.538  0.00  0.00    +0.000 NA
ENDBRANCH   5  10
BRANCH   7  16
ATOM     16  N   UNL     1       8.374   5.375  19.806  0.00  0.00    +0.000 N 
ATOM     17  H   UNL     1       9.160   4.868  19.398  0.00  0.00    +0.000 HD
ATOM     18  H   UNL     1       7.615   4.749  20.042  0.00  0.00    +0.000 HD
ENDBRANCH   7  16
BRANCH   1  19
ATOM     19  C   UNL     1       6.683   4.607  17.514  0.00  0.00    +0.000 C 
BRANCH  19  23
ATOM     20  C   UNL     1       2.465   3.797  18.188  0.00  0.00    +0.000 A 
ATOM     21  C   UNL     1       3.096   3.361  17.021  0.00  0.00    +0.000 A 
ATOM     22  C   UNL     1       4.450   3.641  16.799  0.00  0.00    +0.000 A 
ATOM     23  C   UNL     1       5.203   4.360  17.737  0.00  0.00    +0.000 A 
ATOM     24  C   UNL     1       4.547   4.787  18.900  0.00  0.00    +0.000 A 
ATOM     25  F   UNL     1       5.217   5.446  19.854  0.00  0.00    +0.000 F 
ATOM     26  C   UNL     1       3.199   4.521  19.124  0.00  0.00    +0.000 A 
BRANCH  20  28
ATOM     27  C   UNL     1       0.924   3.094  19.855  0.00  0.00    +0.000 C 
ATOM     28  O   UNL     1       1.162   3.572  18.537  0.00  0.00    +0.000 OA
ENDBRANCH  20  28
ENDBRANCH  19  23
ENDBRANCH   1  19
TORSDOF 5
ENDMDL
MODEL 6
REMARK VINA RESULT:      -7.4      1.218      2.216
REMARK  Name = 
REMARK  6 active torsions:
REMARK  status: ('A' for Active; 'I' for Inactive)
REMARK    1  A    between atoms: C_1  and  O_2
REMARK    2  A    between atoms: O_2  and  C_3
REMARK    3  A    between atoms: C_6  and  C_7
REMARK    4  A    between atoms: C_7  and  C_8
REMARK    5  A    between atoms: C_12  and  C_13
REMARK    6  A    between atoms: C_20  and  N_21
REMARK                            x       y       z     vdW  Elec       q    Type
REMARK                         _______ _______ _______ _____ _____    ______ ____
ROOT
ATOM      1  C   UNL     1       6.835   5.844  17.800  0.00  0.00    +0.000 A 
ATOM      2  C   UNL     1       7.760   6.127  18.792  0.00  0.00    +0.000 A 
ATOM      3  N   UNL     1       8.191   5.161  19.704  0.00  0.00    +0.000 N 
ATOM      4  N   UNL     1       8.338   7.322  18.941  0.00  0.00    +0.000 NA
ATOM      5  C   UNL     1       7.994   8.282  18.063  0.00  0.00    +0.000 A 
ATOM      6  N   UNL     1       7.170   8.084  17.018  0.00  0.00    +0.000 NA
ATOM      7  C   UNL     1       6.612   6.874  16.901  0.00  0.00    +0.000 A 
ATOM      8  H   UNL     1       7.398   4.759  20.203  0.00  0.00    +0.000 HD
ATOM      9  H   UNL     1       8.826   5.621  20.349  0.00  0.00    +0.000 HD
ENDROOT
BRANCH   5  10
ATOM     10  C   UNL     1       8.531   9.647  18.309  0.00  0.00    +0.000 A 
ATOM     11  C   UNL     1       9.417   9.901  19.363  0.00  0.00    +0.000 A 
ATOM     12  C   UNL     1       9.880  11.197  19.584  0.00  0.00    +0.000 A 
ATOM     13  C   UNL     1       9.451  12.220  18.753  0.00  0.00    +0.000 A 
ATOM     14  C   UNL     1       8.571  11.904  17.733  0.00  0.00    +0.000 A 
ATOM     15  N   UNL     1       8.108  10.657  17.495  0.00  0.00    +0.000 NA
ENDBRANCH   5  10
BRANCH   7  16
ATOM     16  N   UNL     1       5.817   6.709  15.764  0.00  0.00    +0.000 N 
ATOM     17  H   UNL     1       6.264   7.253  15.026  0.00  0.00    +0.000 HD
ATOM     18  H   UNL     1       4.866   7.014  15.922  0.00  0.00    +0.000 HD
ENDBRANCH   7  16
BRANCH   1  19
ATOM     19  C   UNL     1       6.128   4.519  17.716  0.00  0.00    +0.000 C 
BRANCH  19  23
ATOM     20  C   UNL     1       2.276   4.301  19.719  0.00  0.00    +0.000 A 
ATOM     21  C   UNL     1       2.534   5.302  18.779  0.00  0.00    +0.000 A 
ATOM     22  C   UNL     1       3.783   5.381  18.151  0.00  0.00    +0.000 A 
ATOM     23  C   UNL     1       4.799   4.462  18.445  0.00  0.00    +0.000 A 
ATOM     24  C   UNL     1       4.516   3.467  19.391  0.00  0.00    +0.000 A 
ATOM     25  F   UNL     1       5.430   2.535  19.691  0.00  0.00    +0.000 F 
ATOM     26  C   UNL     1       3.280   3.388  20.028  0.00  0.00    +0.000 A 
BRANCH  20  28
ATOM     27  C   UNL     1       1.043   2.986  21.268  0.00  0.00    +0.000 C 
ATOM     28  O   UNL     1       1.098   4.099  20.385  0.00  0.00    +0.000 OA
ENDBRANCH  20  28
ENDBRANCH  19  23
ENDBRANCH   1  19
TORSDOF 5
ENDMDL
MODEL 7
REMARK VINA RESULT:      -7.4      1.184      2.400
REMARK  Name = 
REMARK  6 active torsions:
REMARK  status: ('A' for Active; 'I' for Inactive)
REMARK    1  A    between atoms: C_1  and  O_2
REMARK    2  A    between atoms: O_2  and  C_3
REMARK    3  A    between atoms: C_6  and  C_7
REMARK    4  A    between atoms: C_7  and  C_8
REMARK    5  A    between atoms: C_12  and  C_13
REMARK    6  A    between atoms: C_20  and  N_21
REMARK                            x       y       z     vdW  Elec       q    Type
REMARK                         _______ _______ _______ _____ _____    ______ ____
ROOT
ATOM      1  C   UNL     1       7.225   5.720  17.842  0.00  0.00    +0.000 A 
ATOM      2  C   UNL     1       8.041   6.106  18.893  0.00  0.00    +0.000 A 
ATOM      3  N   UNL     1       8.483   5.201  19.862  0.00  0.00    +0.000 N 
ATOM      4  N   UNL     1       8.500   7.350  19.052  0.00  0.00    +0.000 NA
ATOM      5  C   UNL     1       8.143   8.257  18.123  0.00  0.00    +0.000 A 
ATOM      6  N   UNL     1       7.423   7.963  17.025  0.00  0.00    +0.000 NA
ATOM      7  C   UNL     1       6.983   6.707  16.900  0.00  0.00    +0.000 A 
ATOM      8  H   UNL     1       7.692   4.741  20.310  0.00  0.00    +0.000 HD
ATOM      9  H   UNL     1       9.024   5.730  20.539  0.00  0.00    +0.000 HD
ENDROOT
BRANCH   5  10
ATOM     10  C   UNL     1       8.538   9.669  18.370  0.00  0.00    +0.000 A 
ATOM     11  C   UNL     1       8.155  10.695  17.497  0.00  0.00    +0.000 A 
ATOM     12  C   UNL     1       8.565  12.004  17.742  0.00  0.00    +0.000 A 
ATOM     13  C   UNL     1       9.351  12.271  18.851  0.00  0.00    +0.000 A 
ATOM     14  C   UNL     1       9.699  11.213  19.672  0.00  0.00    +0.000 A 
ATOM     15  N   UNL     1       9.315   9.935  19.460  0.00  0.00    +0.000 NA
ENDBRANCH   5  10
BRANCH   7  16
ATOM     16  N   UNL     1       6.297   6.447  15.712  0.00  0.00    +0.000 N 
ATOM     17  H   UNL     1       6.153   5.438  15.683  0.00  0.00    +0.000 HD
ATOM     18  H   UNL     1       6.811   6.769  14.902  0.00  0.00    +0.000 HD
ENDBRANCH   7  16
BRANCH   1  19
ATOM     19  C   UNL     1       6.644   4.336  17.742  0.00  0.00    +0.000 C 
BRANCH  19  23
ATOM     20  C   UNL     1       2.360   4.018  18.403  0.00  0.00    +0.000 A 
ATOM     21  C   UNL     1       2.956   3.412  17.294  0.00  0.00    +0.000 A 
ATOM     22  C   UNL     1       4.333   3.533  17.074  0.00  0.00    +0.000 A 
ATOM     23  C   UNL     1       5.144   4.260  17.956  0.00  0.00    +0.000 A 
ATOM     24  C   UNL     1       4.523   4.858  19.061  0.00  0.00    +0.000 A 
ATOM     25  F   UNL     1       5.246   5.535  19.962  0.00  0.00    +0.000 F 
ATOM     26  C   UNL     1       3.153   4.750  19.281  0.00  0.00    +0.000 A 
BRANCH  20  28
ATOM     27  C   UNL     1       0.738   3.685  20.108  0.00  0.00    +0.000 C 
ATOM     28  O   UNL     1       1.037   3.957  18.745  0.00  0.00    +0.000 OA
ENDBRANCH  20  28
ENDBRANCH  19  23
ENDBRANCH   1  19
TORSDOF 5
ENDMDL
MODEL 8
REMARK VINA RESULT:      -7.3      4.452      6.113
REMARK  Name = 
REMARK  6 active torsions:
REMARK  status: ('A' for Active; 'I' for Inactive)
REMARK    1  A    between atoms: C_1  and  O_2
REMARK    2  A    between atoms: O_2  and  C_3
REMARK    3  A    between atoms: C_6  and  C_7
REMARK    4  A    between atoms: C_7  and  C_8
REMARK    5  A    between atoms: C_12  and  C_13
REMARK    6  A    between atoms: C_20  and  N_21
REMARK                            x       y       z     vdW  Elec       q    Type
REMARK                         _______ _______ _______ _____ _____    ______ ____
ROOT
ATOM      1  C   UNL     1       4.627   4.284  18.148  0.00  0.00    +0.000 A 
ATOM      2  C   UNL     1       5.946   4.664  17.961  0.00  0.00    +0.000 A 
ATOM      3  N   UNL     1       6.770   5.039  19.025  0.00  0.00    +0.000 N 
ATOM      4  N   UNL     1       6.549   4.670  16.770  0.00  0.00    +0.000 NA
ATOM      5  C   UNL     1       5.817   4.275  15.711  0.00  0.00    +0.000 A 
ATOM      6  N   UNL     1       4.557   3.812  15.800  0.00  0.00    +0.000 NA
ATOM      7  C   UNL     1       3.987   3.819  17.010  0.00  0.00    +0.000 A 
ATOM      8  H   UNL     1       6.354   5.812  19.545  0.00  0.00    +0.000 HD
ATOM      9  H   UNL     1       7.663   5.311  18.629  0.00  0.00    +0.000 HD
ENDROOT
BRANCH   5  10
ATOM     10  C   UNL     1       6.441   4.411  14.368  0.00  0.00    +0.000 A 
ATOM     11  C   UNL     1       6.015   3.632  13.285  0.00  0.00    +0.000 A 
ATOM     12  C   UNL     1       6.639   3.764  12.046  0.00  0.00    +0.000 A 
ATOM     13  C   UNL     1       7.680   4.668  11.906  0.00  0.00    +0.000 A 
ATOM     14  C   UNL     1       8.057   5.404  13.016  0.00  0.00    +0.000 A 
ATOM     15  N   UNL     1       7.469   5.298  14.227  0.00  0.00    +0.000 NA
ENDBRANCH   5  10
BRANCH   7  16
ATOM     16  N   UNL     1       2.704   3.269  17.052  0.00  0.00    +0.000 N 
ATOM     17  H   UNL     1       2.784   2.335  16.650  0.00  0.00    +0.000 HD
ATOM     18  H   UNL     1       2.037   3.832  16.542  0.00  0.00    +0.000 HD
ENDBRANCH   7  16
BRANCH   1  19
ATOM     19  C   UNL     1       3.945   4.380  19.486  0.00  0.00    +0.000 C 
BRANCH  19  23
ATOM     20  C   UNL     1       1.511   7.945  20.001  0.00  0.00    +0.000 A 
ATOM     21  C   UNL     1       2.391   7.833  18.921  0.00  0.00    +0.000 A 
ATOM     22  C   UNL     1       3.187   6.691  18.770  0.00  0.00    +0.000 A 
ATOM     23  C   UNL     1       3.122   5.637  19.691  0.00  0.00    +0.000 A 
ATOM     24  C   UNL     1       2.232   5.773  20.765  0.00  0.00    +0.000 A 
ATOM     25  F   UNL     1       2.094   4.787  21.661  0.00  0.00    +0.000 F 
ATOM     26  C   UNL     1       1.444   6.909  20.928  0.00  0.00    +0.000 A 
BRANCH  20  28
ATOM     27  C   UNL     1      -0.042   8.961  21.485  0.00  0.00    +0.000 C 
ATOM     28  O   UNL     1       0.665   8.990  20.252  0.00  0.00    +0.000 OA
ENDBRANCH  20  28
ENDBRANCH  19  23
ENDBRANCH   1  19
TORSDOF 5
ENDMDL
MODEL 9
REMARK VINA RESULT:      -7.2      1.126      2.077
REMARK  Name = 
REMARK  6 active torsions:
REMARK  status: ('A' for Active; 'I' for Inactive)
REMARK    1  A    between atoms: C_1  and  O_2
REMARK    2  A    between atoms: O_2  and  C_3
REMARK    3  A    between atoms: C_6  and  C_7
REMARK    4  A    between atoms: C_7  and  C_8
REMARK    5  A    between atoms: C_12  and  C_13
REMARK    6  A    between atoms: C_20  and  N_21
REMARK                            x       y       z     vdW  Elec       q    Type
REMARK                         _______ _______ _______ _____ _____    ______ ____
ROOT
ATOM      1  C   UNL     1       6.592   5.827  17.437  0.00  0.00    +0.000 A 
ATOM      2  C   UNL     1       7.578   5.982  18.397  0.00  0.00    +0.000 A 
ATOM      3  N   UNL     1       8.036   4.913  19.172  0.00  0.00    +0.000 N 
ATOM      4  N   UNL     1       8.195   7.141  18.640  0.00  0.00    +0.000 NA
ATOM      5  C   UNL     1       7.826   8.199  17.893  0.00  0.00    +0.000 A 
ATOM      6  N   UNL     1       6.939   8.132  16.883  0.00  0.00    +0.000 NA
ATOM      7  C   UNL     1       6.344   6.953  16.669  0.00  0.00    +0.000 A 
ATOM      8  H   UNL     1       7.262   4.474  19.670  0.00  0.00    +0.000 HD
ATOM      9  H   UNL     1       8.718   5.288  19.824  0.00  0.00    +0.000 HD
ENDROOT
BRANCH   5  10
ATOM     10  C   UNL     1       8.410   9.518  18.253  0.00  0.00    +0.000 A 
ATOM     11  C   UNL     1       9.227   9.668  19.381  0.00  0.00    +0.000 A 
ATOM     12  C   UNL     1       9.737  10.924  19.707  0.00  0.00    +0.000 A 
ATOM     13  C   UNL     1       9.423  12.010  18.906  0.00  0.00    +0.000 A 
ATOM     14  C   UNL     1       8.607  11.796  17.809  0.00  0.00    +0.000 A 
ATOM     15  N   UNL     1       8.101  10.591  17.468  0.00  0.00    +0.000 NA
ENDBRANCH   5  10
BRANCH   7  16
ATOM     16  N   UNL     1       5.482   6.929  15.571  0.00  0.00    +0.000 N 
ATOM     17  H   UNL     1       6.014   6.520  14.803  0.00  0.00    +0.000 HD
ATOM     18  H   UNL     1       5.147   7.854  15.334  0.00  0.00    +0.000 HD
ENDBRANCH   7  16
BRANCH   1  19
ATOM     19  C   UNL     1       5.847   4.533  17.252  0.00  0.00    +0.000 C 
BRANCH  19  23
ATOM     20  C   UNL     1       2.615   3.976  20.105  0.00  0.00    +0.000 A 
ATOM     21  C   UNL     1       3.778   3.206  20.188  0.00  0.00    +0.000 A 
ATOM     22  C   UNL     1       4.808   3.375  19.254  0.00  0.00    +0.000 A 
ATOM     23  C   UNL     1       4.701   4.316  18.222  0.00  0.00    +0.000 A 
ATOM     24  C   UNL     1       3.525   5.076  18.161  0.00  0.00    +0.000 A 
ATOM     25  F   UNL     1       3.373   6.018  17.221  0.00  0.00    +0.000 F 
ATOM     26  C   UNL     1       2.492   4.907  19.078  0.00  0.00    +0.000 A 
BRANCH  20  28
ATOM     27  C   UNL     1       1.378   2.728  21.706  0.00  0.00    +0.000 C 
ATOM     28  O   UNL     1       1.549   3.927  20.961  0.00  0.00    +0.000 OA
ENDBRANCH  20  28
ENDBRANCH  19  23
ENDBRANCH   1  19
TORSDOF 5
ENDMDL
