MODEL 1
REMARK VINA RESULT:      -7.8      0.000      0.000
REMARK  Name = 
REMARK  4 active torsions:
REMARK  status: ('A' for Active; 'I' for Inactive)
REMARK    1  A    between atoms: C_1  and  N_2
REMARK    2  A    between atoms: N_2  and  C_3
REMARK    3  A    between atoms: C_16  and  C_17
REMARK    4  A    between atoms: C_17  and  O_18
REMARK                            x       y       z     vdW  Elec       q    Type
REMARK                         _______ _______ _______ _____ _____    ______ ____
ROOT
ATOM      1  C   UNL     1       3.325   3.818  19.155  0.00  0.00    +0.000 A 
ATOM      2  C   UNL     1       3.595   4.210  17.842  0.00  0.00    +0.000 A 
ATOM      3  C   UNL     1       3.353   5.509  17.422  0.00  0.00    +0.000 A 
ATOM      4  C   UNL     1       2.785   6.430  18.299  0.00  0.00    +0.000 A 
ATOM      5  C   UNL     1       2.563   7.737  17.861  0.00  0.00    +0.000 A 
ATOM      6  C   UNL     1       1.967   8.669  18.702  0.00  0.00    +0.000 A 
ATOM      7  C   UNL     1       1.757   9.978  18.250  0.00  0.00    +0.000 A 
ATOM      8  C   UNL     1       1.115  10.901  19.063  0.00  0.00    +0.000 A 
ATOM      9  C   UNL     1       0.685  10.524  20.331  0.00  0.00    +0.000 A 
ATOM     10  C   UNL     1       0.957   9.225  20.800  0.00  0.00    +0.000 A 
ATOM     11  C   UNL     1       1.580   8.260  19.990  0.00  0.00    +0.000 A 
ATOM     12  N   UNL     1       1.806   6.988  20.414  0.00  0.00    +0.000 NA
ATOM     13  C   UNL     1       2.412   6.074  19.606  0.00  0.00    +0.000 A 
ATOM     14  C   UNL     1       2.693   4.750  20.028  0.00  0.00    +0.000 A 
ATOM     15  C   UNL     1       0.543   8.890  22.205  0.00  0.00    +0.000 C 
ATOM     16  O   UNL     1       0.354  10.079  22.982  0.00  0.00    +0.000 OA
ATOM     17  C   UNL     1      -0.571  10.939  22.343  0.00  0.00    +0.000 C 
ATOM     18  N   UNL     1      -0.031  11.453  21.102  0.00  0.00    +0.000 N 
ATOM     19  H   UNL     1       0.519  12.297  21.244  0.00  0.00    +0.000 HD
ENDROOT
BRANCH   1  21
ATOM     20  C   UNL     1       3.572   1.442  18.556  0.00  0.00    +0.000 C 
ATOM     21  N   UNL     1       3.554   2.487  19.570  0.00  0.00    +0.000 N 
ATOM     22  H   UNL     1       4.430   2.487  20.108  0.00  0.00    +0.000 HD
ENDBRANCH   1  21
BRANCH  14  23
ATOM     23  C   UNL     1       2.219   4.363  21.418  0.00  0.00    +0.000 C 
BRANCH  23  24
ATOM     24  O   UNL     1       1.351   3.223  21.430  0.00  0.00    +0.000 OA
ATOM     25  H   UNL     1       1.854   2.519  21.879  0.00  0.00    +0.000 HD
ENDBRANCH  23  24
ENDBRANCH  14  23
TORSDOF 3
ENDMDL
MODEL 2
REMARK VINA RESULT:      -7.6      1.261      6.404
REMARK  Name = 
REMARK  4 active torsions:
REMARK  status: ('A' for Active; 'I' for Inactive)
REMARK    1  A    between atoms: C_1  and  N_2
REMARK    2  A    between atoms: N_2  and  C_3
REMARK    3  A    between atoms: C_16  and  C_17
REMARK    4  A    between atoms: C_17  and  O_18
REMARK                            x       y       z     vdW  Elec       q    Type
REMARK                         _______ _______ _______ _____ _____    ______ ____
ROOT
ATOM      1  C   UNL     1       0.722  10.079  19.808  0.00  0.00    +0.000 A 
ATOM      2  C   UNL     1       1.293  10.548  18.622  0.00  0.00    +0.000 A 
ATOM      3  C   UNL     1       2.099   9.728  17.847  0.00  0.00    +0.000 A 
ATOM      4  C   UNL     1       2.392   8.435  18.273  0.00  0.00    +0.000 A 
ATOM      5  C   UNL     1       3.193   7.621  17.470  0.00  0.00    +0.000 A 
ATOM      6  C   UNL     1       3.530   6.338  17.883  0.00  0.00    +0.000 A 
ATOM      7  C   UNL     1       4.329   5.531  17.064  0.00  0.00    +0.000 A 
ATOM      8  C   UNL     1       4.714   4.268  17.491  0.00  0.00    +0.000 A 
ATOM      9  C   UNL     1       4.299   3.804  18.735  0.00  0.00    +0.000 A 
ATOM     10  C   UNL     1       3.444   4.597  19.524  0.00  0.00    +0.000 A 
ATOM     11  C   UNL     1       3.060   5.890  19.130  0.00  0.00    +0.000 A 
ATOM     12  N   UNL     1       2.273   6.685  19.905  0.00  0.00    +0.000 NA
ATOM     13  C   UNL     1       1.917   7.934  19.497  0.00  0.00    +0.000 A 
ATOM     14  C   UNL     1       1.071   8.775  20.263  0.00  0.00    +0.000 A 
ATOM     15  C   UNL     1       2.960   4.018  20.824  0.00  0.00    +0.000 C 
ATOM     16  O   UNL     1       3.080   2.591  20.827  0.00  0.00    +0.000 OA
ATOM     17  C   UNL     1       4.413   2.212  20.538  0.00  0.00    +0.000 C 
ATOM     18  N   UNL     1       4.767   2.556  19.177  0.00  0.00    +0.000 N 
ATOM     19  H   UNL     1       4.511   1.826  18.518  0.00  0.00    +0.000 HD
ENDROOT
BRANCH   1  21
ATOM     20  C   UNL     1      -1.283  11.494  20.011  0.00  0.00    +0.000 C 
ATOM     21  N   UNL     1      -0.080  10.926  20.604  0.00  0.00    +0.000 N 
ATOM     22  H   UNL     1      -0.308  10.406  21.461  0.00  0.00    +0.000 HD
ENDBRANCH   1  21
BRANCH  14  23
ATOM     23  C   UNL     1       0.627   8.244  21.615  0.00  0.00    +0.000 C 
BRANCH  23  24
ATOM     24  O   UNL     1      -0.794   8.100  21.733  0.00  0.00    +0.000 OA
ATOM     25  H   UNL     1      -1.084   7.686  20.899  0.00  0.00    +0.000 HD
ENDBRANCH  23  24
ENDBRANCH  14  23
TORSDOF 3
ENDMDL
MODEL 3
REMARK VINA RESULT:      -7.5      0.807      6.413
REMARK  Name = 
REMARK  4 active torsions:
REMARK  status: ('A' for Active; 'I' for Inactive)
REMARK    1  A    between atoms: C_1  and  N_2
REMARK    2  A    between atoms: N_2  and  C_3
REMARK    3  A    between atoms: C_16  and  C_17
REMARK    4  A    between atoms: C_17  and  O_18
REMARK                            x       y       z     vdW  Elec       q    Type
REMARK                         _______ _______ _______ _____ _____    ______ ____
ROOT
ATOM      1  C   UNL     1       0.534  10.658  20.102  0.00  0.00    +0.000 A 
ATOM      2  C   UNL     1       1.123  11.025  18.890  0.00  0.00    +0.000 A 
ATOM      3  C   UNL     1       1.826  10.102  18.131  0.00  0.00    +0.000 A 
ATOM      4  C   UNL     1       1.998   8.802  18.600  0.00  0.00    +0.000 A 
ATOM      5  C   UNL     1       2.696   7.884  17.813  0.00  0.00    +0.000 A 
ATOM      6  C   UNL     1       2.914   6.589  18.268  0.00  0.00    +0.000 A 
ATOM      7  C   UNL     1       3.610   5.677  17.465  0.00  0.00    +0.000 A 
ATOM      8  C   UNL     1       3.878   4.399  17.932  0.00  0.00    +0.000 A 
ATOM      9  C   UNL     1       3.447   4.023  19.200  0.00  0.00    +0.000 A 
ATOM     10  C   UNL     1       2.692   4.924  19.974  0.00  0.00    +0.000 A 
ATOM     11  C   UNL     1       2.429   6.235  19.539  0.00  0.00    +0.000 A 
ATOM     12  N   UNL     1       1.743   7.131  20.298  0.00  0.00    +0.000 NA
ATOM     13  C   UNL     1       1.503   8.394  19.850  0.00  0.00    +0.000 A 
ATOM     14  C   UNL     1       0.762   9.342  20.600  0.00  0.00    +0.000 A 
ATOM     15  C   UNL     1       2.182   4.444  21.303  0.00  0.00    +0.000 C 
ATOM     16  O   UNL     1       2.160   3.012  21.358  0.00  0.00    +0.000 OA
ATOM     17  C   UNL     1       3.441   2.492  21.059  0.00  0.00    +0.000 C 
ATOM     18  N   UNL     1       3.798   2.751  19.680  0.00  0.00    +0.000 N 
ATOM     19  H   UNL     1       3.456   2.027  19.053  0.00  0.00    +0.000 HD
ENDROOT
BRANCH   1  21
ATOM     20  C   UNL     1       0.478  12.890  21.142  0.00  0.00    +0.000 C 
ATOM     21  N   UNL     1      -0.163  11.609  20.881  0.00  0.00    +0.000 N 
ATOM     22  H   UNL     1      -1.081  11.745  20.438  0.00  0.00    +0.000 HD
ENDBRANCH   1  21
BRANCH  14  23
ATOM     23  C   UNL     1       0.297   8.906  21.978  0.00  0.00    +0.000 C 
BRANCH  23  24
ATOM     24  O   UNL     1       0.823   9.712  23.040  0.00  0.00    +0.000 OA
ATOM     25  H   UNL     1       0.070   9.882  23.635  0.00  0.00    +0.000 HD
ENDBRANCH  23  24
ENDBRANCH  14  23
TORSDOF 3
ENDMDL
MODEL 4
REMARK VINA RESULT:      -7.4      2.726      7.174
REMARK  Name = 
REMARK  4 active torsions:
REMARK  status: ('A' for Active; 'I' for Inactive)
REMARK    1  A    between atoms: C_1  and  N_2
REMARK    2  A    between atoms: N_2  and  C_3
REMARK    3  A    between atoms: C_16  and  C_17
REMARK    4  A    between atoms: C_17  and  O_18
REMARK                            x       y       z     vdW  Elec       q    Type
REMARK                         _______ _______ _______ _____ _____    ______ ____
ROOT
ATOM      1  C   UNL     1       0.754   9.635  19.940  0.00  0.00    +0.000 A 
ATOM      2  C   UNL     1       0.416   8.777  20.989  0.00  0.00    +0.000 A 
ATOM      3  C   UNL     1       1.013   7.532  21.112  0.00  0.00    +0.000 A 
ATOM      4  C   UNL     1       1.926   7.100  20.155  0.00  0.00    +0.000 A 
ATOM      5  C   UNL     1       2.528   5.849  20.306  0.00  0.00    +0.000 A 
ATOM      6  C   UNL     1       3.418   5.376  19.349  0.00  0.00    +0.000 A 
ATOM      7  C   UNL     1       4.018   4.122  19.518  0.00  0.00    +0.000 A 
ATOM      8  C   UNL     1       4.867   3.618  18.543  0.00  0.00    +0.000 A 
ATOM      9  C   UNL     1       5.125   4.365  17.399  0.00  0.00    +0.000 A 
ATOM     10  C   UNL     1       4.567   5.652  17.267  0.00  0.00    +0.000 A 
ATOM     11  C   UNL     1       3.682   6.177  18.225  0.00  0.00    +0.000 A 
ATOM     12  N   UNL     1       3.099   7.398  18.086  0.00  0.00    +0.000 NA
ATOM     13  C   UNL     1       2.246   7.881  19.031  0.00  0.00    +0.000 A 
ATOM     14  C   UNL     1       1.647   9.163  18.935  0.00  0.00    +0.000 A 
ATOM     15  C   UNL     1       4.938   6.451  16.050  0.00  0.00    +0.000 C 
ATOM     16  O   UNL     1       6.147   5.957  15.460  0.00  0.00    +0.000 OA
ATOM     17  C   UNL     1       6.022   4.577  15.174  0.00  0.00    +0.000 C 
ATOM     18  N   UNL     1       5.924   3.800  16.392  0.00  0.00    +0.000 N 
ATOM     19  H   UNL     1       6.837   3.550  16.762  0.00  0.00    +0.000 HD
ENDROOT
BRANCH   1  21
ATOM     20  C   UNL     1      -1.232  10.935  19.285  0.00  0.00    +0.000 C 
ATOM     21  N   UNL     1       0.126  10.893  19.808  0.00  0.00    +0.000 N 
ATOM     22  H   UNL     1       0.176  11.352  20.727  0.00  0.00    +0.000 HD
ENDBRANCH   1  21
BRANCH  14  23
ATOM     23  C   UNL     1       1.948   9.962  17.679  0.00  0.00    +0.000 C 
BRANCH  23  24
ATOM     24  O   UNL     1       2.257  11.337  17.937  0.00  0.00    +0.000 OA
ATOM     25  H   UNL     1       1.442  11.830  17.728  0.00  0.00    +0.000 HD
ENDBRANCH  23  24
ENDBRANCH  14  23
TORSDOF 3
ENDMDL
MODEL 5
REMARK VINA RESULT:      -7.1      1.112      6.499
REMARK  Name = 
REMARK  4 active torsions:
REMARK  status: ('A' for Active; 'I' for Inactive)
REMARK    1  A    between atoms: C_1  and  N_2
REMARK    2  A    between atoms: N_2  and  C_3
REMARK    3  A    between atoms: C_16  and  C_17
REMARK    4  A    between atoms: C_17  and  O_18
REMARK                            x       y       z     vdW  Elec       q    Type
REMARK                         _______ _______ _______ _____ _____    ______ ____
ROOT
ATOM      1  C   UNL     1      -0.143  11.105  20.988  0.00  0.00    +0.000 A 
ATOM      2  C   UNL     1       0.348  11.751  19.850  0.00  0.00    +0.000 A 
ATOM      3  C   UNL     1       1.105  11.065  18.913  0.00  0.00    +0.000 A 
ATOM      4  C   UNL     1       1.429   9.728  19.123  0.00  0.00    +0.000 A 
ATOM      5  C   UNL     1       2.180   9.051  18.159  0.00  0.00    +0.000 A 
ATOM      6  C   UNL     1       2.548   7.726  18.356  0.00  0.00    +0.000 A 
ATOM      7  C   UNL     1       3.296   7.059  17.377  0.00  0.00    +0.000 A 
ATOM      8  C   UNL     1       3.713   5.753  17.588  0.00  0.00    +0.000 A 
ATOM      9  C   UNL     1       3.382   5.105  18.773  0.00  0.00    +0.000 A 
ATOM     10  C   UNL     1       2.577   5.761  19.723  0.00  0.00    +0.000 A 
ATOM     11  C   UNL     1       2.162   7.093  19.550  0.00  0.00    +0.000 A 
ATOM     12  N   UNL     1       1.425   7.754  20.482  0.00  0.00    +0.000 NA
ATOM     13  C   UNL     1       1.038   9.045  20.287  0.00  0.00    +0.000 A 
ATOM     14  C   UNL     1       0.240   9.753  21.222  0.00  0.00    +0.000 A 
ATOM     15  C   UNL     1       2.181   4.991  20.951  0.00  0.00    +0.000 C 
ATOM     16  O   UNL     1       2.306   3.580  20.736  0.00  0.00    +0.000 OA
ATOM     17  C   UNL     1       3.619   3.266  20.310  0.00  0.00    +0.000 C 
ATOM     18  N   UNL     1       3.882   3.812  18.995  0.00  0.00    +0.000 N 
ATOM     19  H   UNL     1       3.587   3.184  18.253  0.00  0.00    +0.000 HD
ENDROOT
BRANCH   1  21
ATOM     20  C   UNL     1      -0.499  13.180  22.266  0.00  0.00    +0.000 C 
ATOM     21  N   UNL     1      -0.895  11.814  21.950  0.00  0.00    +0.000 N 
ATOM     22  H   UNL     1      -1.877  11.782  21.647  0.00  0.00    +0.000 HD
ENDBRANCH   1  21
BRANCH  14  23
ATOM     23  C   UNL     1      -0.113   9.022  22.506  0.00  0.00    +0.000 C 
BRANCH  23  24
ATOM     24  O   UNL     1       0.327   9.700  23.689  0.00  0.00    +0.000 OA
ATOM     25  H   UNL     1       0.511  10.616  23.410  0.00  0.00    +0.000 HD
ENDBRANCH  23  24
ENDBRANCH  14  23
TORSDOF 3
ENDMDL
MODEL 6
REMARK VINA RESULT:      -6.9      2.239      7.118
REMARK  Name = 
REMARK  4 active torsions:
REMARK  status: ('A' for Active; 'I' for Inactive)
REMARK    1  A    between atoms: C_1  and  N_2
REMARK    2  A    between atoms: N_2  and  C_3
REMARK    3  A    between atoms: C_16  and  C_17
REMARK    4  A    between atoms: C_17  and  O_18
REMARK                            x       y       z     vdW  Elec       q    Type
REMARK                         _______ _______ _______ _____ _____    ______ ____
ROOT
ATOM      1  C   UNL     1       0.513  10.570  19.935  0.00  0.00    +0.000 A 
ATOM      2  C   UNL     1      -0.099   9.966  21.037  0.00  0.00    +0.000 A 
ATOM      3  C   UNL     1       0.207   8.663  21.396  0.00  0.00    +0.000 A 
ATOM      4  C   UNL     1       1.096   7.918  20.625  0.00  0.00    +0.000 A 
ATOM      5  C   UNL     1       1.402   6.613  21.013  0.00  0.00    +0.000 A 
ATOM      6  C   UNL     1       2.259   5.833  20.245  0.00  0.00    +0.000 A 
ATOM      7  C   UNL     1       2.562   4.527  20.651  0.00  0.00    +0.000 A 
ATOM      8  C   UNL     1       3.375   3.723  19.865  0.00  0.00    +0.000 A 
ATOM      9  C   UNL     1       3.893   4.221  18.674  0.00  0.00    +0.000 A 
ATOM     10  C   UNL     1       3.635   5.555  18.306  0.00  0.00    +0.000 A 
ATOM     11  C   UNL     1       2.794   6.384  19.068  0.00  0.00    +0.000 A 
ATOM     12  N   UNL     1       2.498   7.659  18.699  0.00  0.00    +0.000 NA
ATOM     13  C   UNL     1       1.680   8.439  19.458  0.00  0.00    +0.000 A 
ATOM     14  C   UNL     1       1.378   9.783  19.121  0.00  0.00    +0.000 A 
ATOM     15  C   UNL     1       4.282   6.070  17.051  0.00  0.00    +0.000 C 
ATOM     16  O   UNL     1       5.410   5.264  16.687  0.00  0.00    +0.000 OA
ATOM     17  C   UNL     1       5.024   3.908  16.571  0.00  0.00    +0.000 C 
ATOM     18  N   UNL     1       4.648   3.362  17.858  0.00  0.00    +0.000 N 
ATOM     19  H   UNL     1       5.447   2.998  18.369  0.00  0.00    +0.000 HD
ENDROOT
BRANCH   1  21
ATOM     20  C   UNL     1      -1.110  12.125  18.929  0.00  0.00    +0.000 C 
ATOM     21  N   UNL     1       0.180  11.891  19.562  0.00  0.00    +0.000 N 
ATOM     22  H   UNL     1       0.285  12.476  20.401  0.00  0.00    +0.000 HD
ENDBRANCH   1  21
BRANCH  14  23
ATOM     23  C   UNL     1       1.960  10.305  17.819  0.00  0.00    +0.000 C 
BRANCH  23  24
ATOM     24  O   UNL     1       2.449  11.649  17.910  0.00  0.00    +0.000 OA
ATOM     25  H   UNL     1       3.267  11.664  17.380  0.00  0.00    +0.000 HD
ENDBRANCH  23  24
ENDBRANCH  14  23
TORSDOF 3
ENDMDL
MODEL 7
REMARK VINA RESULT:      -6.6      2.596      3.573
REMARK  Name = 
REMARK  4 active torsions:
REMARK  status: ('A' for Active; 'I' for Inactive)
REMARK    1  A    between atoms: C_1  and  N_2
REMARK    2  A    between atoms: N_2  and  C_3
REMARK    3  A    between atoms: C_16  and  C_17
REMARK    4  A    between atoms: C_17  and  O_18
REMARK                            x       y       z     vdW  Elec       q    Type
REMARK                         _______ _______ _______ _____ _____    ______ ____
ROOT
ATOM      1  C   UNL     1       5.082   4.595  17.731  0.00  0.00    +0.000 A 
ATOM      2  C   UNL     1       4.723   3.775  18.803  0.00  0.00    +0.000 A 
ATOM      3  C   UNL     1       3.750   4.171  19.707  0.00  0.00    +0.000 A 
ATOM      4  C   UNL     1       3.151   5.422  19.584  0.00  0.00    +0.000 A 
ATOM      5  C   UNL     1       2.162   5.795  20.496  0.00  0.00    +0.000 A 
ATOM      6  C   UNL     1       1.570   7.049  20.419  0.00  0.00    +0.000 A 
ATOM      7  C   UNL     1       0.575   7.406  21.337  0.00  0.00    +0.000 A 
ATOM      8  C   UNL     1       0.015   8.675  21.301  0.00  0.00    +0.000 A 
ATOM      9  C   UNL     1       0.443   9.591  20.346  0.00  0.00    +0.000 A 
ATOM     10  C   UNL     1       1.398   9.203  19.387  0.00  0.00    +0.000 A 
ATOM     11  C   UNL     1       2.002   7.934  19.415  0.00  0.00    +0.000 A 
ATOM     12  N   UNL     1       2.960   7.563  18.525  0.00  0.00    +0.000 NA
ATOM     13  C   UNL     1       3.528   6.326  18.577  0.00  0.00    +0.000 A 
ATOM     14  C   UNL     1       4.505   5.895  17.644  0.00  0.00    +0.000 A 
ATOM     15  C   UNL     1       1.769  10.202  18.328  0.00  0.00    +0.000 C 
ATOM     16  O   UNL     1       0.760  11.212  18.199  0.00  0.00    +0.000 OA
ATOM     17  C   UNL     1       0.521  11.826  19.451  0.00  0.00    +0.000 C 
ATOM     18  N   UNL     1      -0.082  10.893  20.380  0.00  0.00    +0.000 N 
ATOM     19  H   UNL     1      -1.095  10.871  20.298  0.00  0.00    +0.000 HD
ENDROOT
BRANCH   1  21
ATOM     20  C   UNL     1       7.477   4.471  17.172  0.00  0.00    +0.000 C 
ATOM     21  N   UNL     1       6.090   4.195  16.825  0.00  0.00    +0.000 N 
ATOM     22  H   UNL     1       5.952   3.192  16.646  0.00  0.00    +0.000 HD
ENDBRANCH   1  21
BRANCH  14  23
ATOM     23  C   UNL     1       4.951   6.911  16.607  0.00  0.00    +0.000 C 
BRANCH  23  24
ATOM     24  O   UNL     1       5.145   6.349  15.303  0.00  0.00    +0.000 OA
ATOM     25  H   UNL     1       4.277   6.409  14.862  0.00  0.00    +0.000 HD
ENDBRANCH  23  24
ENDBRANCH  14  23
TORSDOF 3
ENDMDL
MODEL 8
REMARK VINA RESULT:      -6.3      7.167      8.849
REMARK  Name = 
REMARK  4 active torsions:
REMARK  status: ('A' for Active; 'I' for Inactive)
REMARK    1  A    between atoms: C_1  and  N_2
REMARK    2  A    between atoms: N_2  and  C_3
REMARK    3  A    between atoms: C_16  and  C_17
REMARK    4  A    between atoms: C_17  and  O_18
REMARK                            x       y       z     vdW  Elec       q    Type
REMARK                         _______ _______ _______ _____ _____    ______ ____
ROOT
ATOM      1  C   UNL     1      -2.508  11.437  17.200  0.00  0.00    +0.000 A 
ATOM      2  C   UNL     1      -1.247  11.500  17.798  0.00  0.00    +0.000 A 
ATOM      3  C   UNL     1      -1.114  11.756  19.154  0.00  0.00    +0.000 A 
ATOM      4  C   UNL     1      -2.242  12.005  19.930  0.00  0.00    +0.000 A 
ATOM      5  C   UNL     1      -2.087  12.245  21.297  0.00  0.00    +0.000 A 
ATOM      6  C   UNL     1      -3.191  12.530  22.091  0.00  0.00    +0.000 A 
ATOM      7  C   UNL     1      -3.020  12.761  23.462  0.00  0.00    +0.000 A 
ATOM      8  C   UNL     1      -4.108  13.098  24.253  0.00  0.00    +0.000 A 
ATOM      9  C   UNL     1      -5.372  13.200  23.682  0.00  0.00    +0.000 A 
ATOM     10  C   UNL     1      -5.545  12.903  22.316  0.00  0.00    +0.000 A 
ATOM     11  C   UNL     1      -4.457  12.586  21.484  0.00  0.00    +0.000 A 
ATOM     12  N   UNL     1      -4.604  12.344  20.154  0.00  0.00    +0.000 NA
ATOM     13  C   UNL     1      -3.531  12.039  19.372  0.00  0.00    +0.000 A 
ATOM     14  C   UNL     1      -3.652  11.748  17.990  0.00  0.00    +0.000 A 
ATOM     15  C   UNL     1      -6.941  12.950  21.764  0.00  0.00    +0.000 C 
ATOM     16  O   UNL     1      -7.912  12.842  22.812  0.00  0.00    +0.000 OA
ATOM     17  C   UNL     1      -7.690  13.843  23.788  0.00  0.00    +0.000 C 
ATOM     18  N   UNL     1      -6.443  13.619  24.488  0.00  0.00    +0.000 N 
ATOM     19  H   UNL     1      -6.556  12.995  25.282  0.00  0.00    +0.000 HD
ENDROOT
BRANCH   1  21
ATOM     20  C   UNL     1      -2.657   9.818  15.351  0.00  0.00    +0.000 C 
ATOM     21  N   UNL     1      -2.636  11.198  15.814  0.00  0.00    +0.000 N 
ATOM     22  H   UNL     1      -3.476  11.700  15.498  0.00  0.00    +0.000 HD
ENDBRANCH   1  21
BRANCH  14  23
ATOM     23  C   UNL     1      -5.043  11.860  17.390  0.00  0.00    +0.000 C 
BRANCH  23  24
ATOM     24  O   UNL     1      -5.705  13.091  17.707  0.00  0.00    +0.000 OA
ATOM     25  H   UNL     1      -5.187  13.786  17.261  0.00  0.00    +0.000 HD
ENDBRANCH  23  24
ENDBRANCH  14  23
TORSDOF 3
ENDMDL
MODEL 9
REMARK VINA RESULT:      -6.3      7.244      8.877
REMARK  Name = 
REMARK  4 active torsions:
REMARK  status: ('A' for Active; 'I' for Inactive)
REMARK    1  A    between atoms: C_1  and  N_2
REMARK    2  A    between atoms: N_2  and  C_3
REMARK    3  A    between atoms: C_16  and  C_17
REMARK    4  A    between atoms: C_17  and  O_18
REMARK                            x       y       z     vdW  Elec       q    Type
REMARK                         _______ _______ _______ _____ _____    ______ ____
ROOT
ATOM      1  C   UNL     1      -3.295  11.210  17.076  0.00  0.00    +0.000 A 
ATOM      2  C   UNL     1      -4.635  10.818  17.020  0.00  0.00    +0.000 A 
ATOM      3  C   UNL     1      -5.516  11.146  18.038  0.00  0.00    +0.000 A 
ATOM      4  C   UNL     1      -5.060  11.832  19.161  0.00  0.00    +0.000 A 
ATOM      5  C   UNL     1      -5.967  12.166  20.168  0.00  0.00    +0.000 A 
ATOM      6  C   UNL     1      -5.535  12.820  21.315  0.00  0.00    +0.000 A 
ATOM      7  C   UNL     1      -6.459  13.154  22.314  0.00  0.00    +0.000 A 
ATOM      8  C   UNL     1      -6.029  13.760  23.486  0.00  0.00    +0.000 A 
ATOM      9  C   UNL     1      -4.679  14.039  23.664  0.00  0.00    +0.000 A 
ATOM     10  C   UNL     1      -3.767  13.757  22.629  0.00  0.00    +0.000 A 
ATOM     11  C   UNL     1      -4.168  13.119  21.442  0.00  0.00    +0.000 A 
ATOM     12  N   UNL     1      -3.290  12.798  20.455  0.00  0.00    +0.000 NA
ATOM     13  C   UNL     1      -3.707  12.180  19.316  0.00  0.00    +0.000 A 
ATOM     14  C   UNL     1      -2.825  11.862  18.252  0.00  0.00    +0.000 A 
ATOM     15  C   UNL     1      -2.332  14.150  22.838  0.00  0.00    +0.000 C 
ATOM     16  O   UNL     1      -2.216  15.150  23.857  0.00  0.00    +0.000 OA
ATOM     17  C   UNL     1      -2.826  14.702  25.053  0.00  0.00    +0.000 C 
ATOM     18  N   UNL     1      -4.260  14.580  24.890  0.00  0.00    +0.000 N 
ATOM     19  H   UNL     1      -4.743  15.455  25.077  0.00  0.00    +0.000 HD
ENDROOT
BRANCH   1  21
ATOM     20  C   UNL     1      -2.939  10.246  14.838  0.00  0.00    +0.000 C 
ATOM     21  N   UNL     1      -2.397  10.853  16.045  0.00  0.00    +0.000 N 
ATOM     22  H   UNL     1      -1.853  11.695  15.816  0.00  0.00    +0.000 HD
ENDBRANCH   1  21
BRANCH  14  23
ATOM     23  C   UNL     1      -1.356  12.181  18.468  0.00  0.00    +0.000 C 
BRANCH  23  24
ATOM     24  O   UNL     1      -0.816  13.076  17.488  0.00  0.00    +0.000 OA
ATOM     25  H   UNL     1      -0.827  13.957  17.906  0.00  0.00    +0.000 HD
ENDBRANCH  23  24
ENDBRANCH  14  23
TORSDOF 3
ENDMDL
