MODEL 1
REMARK VINA RESULT:      -8.3      0.000      0.000
REMARK  Name = 
REMARK  4 active torsions:
REMARK  status: ('A' for Active; 'I' for Inactive)
REMARK    1  A    between atoms: C_1  and  C_2
REMARK    2  A    between atoms: C_13  and  O_14
REMARK    3  A    between atoms: C_15  and  C_16
REMARK    4  A    between atoms: N_18  and  C_19
REMARK                            x       y       z     vdW  Elec       q    Type
REMARK                         _______ _______ _______ _____ _____    ______ ____
ROOT
ATOM      1  C   UNL     1       1.853  10.332  17.858  0.00  0.00    +0.000 C 
ATOM      2  C   UNL     1       1.629   9.316  18.939  0.00  0.00    +0.000 A 
ATOM      3  C   UNL     1       0.813   9.635  20.047  0.00  0.00    +0.000 A 
ATOM      4  C   UNL     1       0.579   8.722  21.075  0.00  0.00    +0.000 A 
ATOM      5  C   UNL     1       1.147   7.449  21.047  0.00  0.00    +0.000 A 
ATOM      6  C   UNL     1       1.955   7.141  19.947  0.00  0.00    +0.000 A 
ATOM      7  C   UNL     1       2.207   8.029  18.908  0.00  0.00    +0.000 A 
ATOM      8  N   UNL     1       3.040   7.447  17.969  0.00  0.00    +0.000 NA
ATOM      9  C   UNL     1       3.317   6.232  18.417  0.00  0.00    +0.000 A 
ATOM     10  N   UNL     1       2.660   6.015  19.606  0.00  0.00    +0.000 N 
ATOM     11  C   UNL     1       2.696   4.807  20.393  0.00  0.00    +0.000 C 
ATOM     12  C   UNL     1       3.526   3.684  19.793  0.00  0.00    +0.000 C 
ATOM     13  C   UNL     1       4.198   3.994  18.485  0.00  0.00    +0.000 C 
ATOM     14  C   UNL     1       4.131   5.197  17.865  0.00  0.00    +0.000 C 
ENDROOT
BRANCH  14  15
ATOM     15  C   UNL     1       4.955   5.430  16.610  0.00  0.00    +0.000 C 
ATOM     16  O   UNL     1       5.543   6.494  16.440  0.00  0.00    +0.000 OA
ATOM     17  N   UNL     1       4.927   4.409  15.675  0.00  0.00    +0.000 N 
ATOM     18  H   UNL     1       4.235   3.676  15.821  0.00  0.00    +0.000 HD
BRANCH  17  19
ATOM     19  C   UNL     1       5.691   4.359  14.486  0.00  0.00    +0.000 A 
ATOM     20  C   UNL     1       6.922   5.011  14.340  0.00  0.00    +0.000 A 
ATOM     21  C   UNL     1       7.650   4.917  13.152  0.00  0.00    +0.000 A 
ATOM     22  C   UNL     1       7.154   4.171  12.089  0.00  0.00    +0.000 A 
ATOM     23  C   UNL     1       5.932   3.515  12.218  0.00  0.00    +0.000 A 
ATOM     24  C   UNL     1       5.207   3.600  13.415  0.00  0.00    +0.000 A 
ENDBRANCH  17  19
ENDBRANCH  14  15
BRANCH  13  25
ATOM     25  O   UNL     1       4.889   2.923  17.947  0.00  0.00    +0.000 OA
ATOM     26  H   UNL     1       4.662   2.099  18.407  0.00  0.00    +0.000 HD
ENDBRANCH  13  25
TORSDOF 3
ENDMDL
MODEL 2
REMARK VINA RESULT:      -8.1      1.117      1.555
REMARK  Name = 
REMARK  4 active torsions:
REMARK  status: ('A' for Active; 'I' for Inactive)
REMARK    1  A    between atoms: C_1  and  C_2
REMARK    2  A    between atoms: C_13  and  O_14
REMARK    3  A    between atoms: C_15  and  C_16
REMARK    4  A    between atoms: N_18  and  C_19
REMARK                            x       y       z     vdW  Elec       q    Type
REMARK                         _______ _______ _______ _____ _____    ______ ____
ROOT
ATOM      1  C   UNL     1       2.417   9.515  17.830  0.00  0.00    +0.000 C 
ATOM      2  C   UNL     1       1.907   8.693  18.976  0.00  0.00    +0.000 A 
ATOM      3  C   UNL     1       0.948   9.236  19.860  0.00  0.00    +0.000 A 
ATOM      4  C   UNL     1       0.448   8.507  20.939  0.00  0.00    +0.000 A 
ATOM      5  C   UNL     1       0.878   7.205  21.187  0.00  0.00    +0.000 A 
ATOM      6  C   UNL     1       1.829   6.675  20.308  0.00  0.00    +0.000 A 
ATOM      7  C   UNL     1       2.347   7.375  19.225  0.00  0.00    +0.000 A 
ATOM      8  N   UNL     1       3.265   6.598  18.543  0.00  0.00    +0.000 NA
ATOM      9  C   UNL     1       3.335   5.445  19.193  0.00  0.00    +0.000 A 
ATOM     10  N   UNL     1       2.463   5.459  20.257  0.00  0.00    +0.000 N 
ATOM     11  C   UNL     1       2.239   4.383  21.191  0.00  0.00    +0.000 C 
ATOM     12  C   UNL     1       3.040   3.123  20.910  0.00  0.00    +0.000 C 
ATOM     13  C   UNL     1       3.957   3.182  19.720  0.00  0.00    +0.000 C 
ATOM     14  C   UNL     1       4.122   4.280  18.944  0.00  0.00    +0.000 C 
ENDROOT
BRANCH  14  15
ATOM     15  C   UNL     1       5.170   4.259  17.845  0.00  0.00    +0.000 C 
ATOM     16  O   UNL     1       6.353   4.069  18.116  0.00  0.00    +0.000 OA
ATOM     17  N   UNL     1       4.708   4.535  16.569  0.00  0.00    +0.000 N 
ATOM     18  H   UNL     1       3.758   4.894  16.496  0.00  0.00    +0.000 HD
BRANCH  17  19
ATOM     19  C   UNL     1       5.476   4.473  15.383  0.00  0.00    +0.000 A 
ATOM     20  C   UNL     1       5.123   3.681  14.285  0.00  0.00    +0.000 A 
ATOM     21  C   UNL     1       5.903   3.666  13.126  0.00  0.00    +0.000 A 
ATOM     22  C   UNL     1       7.053   4.444  13.052  0.00  0.00    +0.000 A 
ATOM     23  C   UNL     1       7.417   5.241  14.135  0.00  0.00    +0.000 A 
ATOM     24  C   UNL     1       6.627   5.264  15.293  0.00  0.00    +0.000 A 
ENDBRANCH  17  19
ENDBRANCH  14  15
BRANCH  13  25
ATOM     25  O   UNL     1       4.617   1.992  19.468  0.00  0.00    +0.000 OA
ATOM     26  H   UNL     1       4.394   1.324  20.136  0.00  0.00    +0.000 HD
ENDBRANCH  13  25
TORSDOF 3
ENDMDL
MODEL 3
REMARK VINA RESULT:      -8.0      2.362      7.110
REMARK  Name = 
REMARK  4 active torsions:
REMARK  status: ('A' for Active; 'I' for Inactive)
REMARK    1  A    between atoms: C_1  and  C_2
REMARK    2  A    between atoms: C_13  and  O_14
REMARK    3  A    between atoms: C_15  and  C_16
REMARK    4  A    between atoms: N_18  and  C_19
REMARK                            x       y       z     vdW  Elec       q    Type
REMARK                         _______ _______ _______ _____ _____    ______ ____
ROOT
ATOM      1  C   UNL     1       6.847   7.564  17.423  0.00  0.00    +0.000 C 
ATOM      2  C   UNL     1       6.457   6.208  16.916  0.00  0.00    +0.000 A 
ATOM      3  C   UNL     1       7.238   5.577  15.923  0.00  0.00    +0.000 A 
ATOM      4  C   UNL     1       6.911   4.316  15.422  0.00  0.00    +0.000 A 
ATOM      5  C   UNL     1       5.792   3.627  15.888  0.00  0.00    +0.000 A 
ATOM      6  C   UNL     1       5.023   4.260  16.870  0.00  0.00    +0.000 A 
ATOM      7  C   UNL     1       5.322   5.514  17.389  0.00  0.00    +0.000 A 
ATOM      8  N   UNL     1       4.385   5.878  18.339  0.00  0.00    +0.000 NA
ATOM      9  C   UNL     1       3.511   4.885  18.401  0.00  0.00    +0.000 A 
ATOM     10  N   UNL     1       3.882   3.885  17.533  0.00  0.00    +0.000 N 
ATOM     11  C   UNL     1       3.194   2.634  17.328  0.00  0.00    +0.000 C 
ATOM     12  C   UNL     1       1.966   2.435  18.202  0.00  0.00    +0.000 C 
ATOM     13  C   UNL     1       1.637   3.566  19.135  0.00  0.00    +0.000 C 
ATOM     14  C   UNL     1       2.336   4.725  19.197  0.00  0.00    +0.000 C 
ENDROOT
BRANCH  14  15
ATOM     15  C   UNL     1       1.833   5.846  20.091  0.00  0.00    +0.000 C 
ATOM     16  O   UNL     1       1.457   5.609  21.235  0.00  0.00    +0.000 OA
ATOM     17  N   UNL     1       1.765   7.098  19.503  0.00  0.00    +0.000 N 
ATOM     18  H   UNL     1       1.889   7.135  18.493  0.00  0.00    +0.000 HD
BRANCH  17  19
ATOM     19  C   UNL     1       1.425   8.301  20.165  0.00  0.00    +0.000 A 
ATOM     20  C   UNL     1       1.384   8.422  21.559  0.00  0.00    +0.000 A 
ATOM     21  C   UNL     1       1.062   9.637  22.167  0.00  0.00    +0.000 A 
ATOM     22  C   UNL     1       0.772  10.751  21.387  0.00  0.00    +0.000 A 
ATOM     23  C   UNL     1       0.810  10.648  19.998  0.00  0.00    +0.000 A 
ATOM     24  C   UNL     1       1.146   9.432  19.389  0.00  0.00    +0.000 A 
ENDBRANCH  17  19
ENDBRANCH  14  15
BRANCH  13  25
ATOM     25  O   UNL     1       0.550   3.313  19.952  0.00  0.00    +0.000 OA
ATOM     26  H   UNL     1       0.249   4.126  20.389  0.00  0.00    +0.000 HD
ENDBRANCH  13  25
TORSDOF 3
ENDMDL
MODEL 4
REMARK VINA RESULT:      -8.0      3.702      5.789
REMARK  Name = 
REMARK  4 active torsions:
REMARK  status: ('A' for Active; 'I' for Inactive)
REMARK    1  A    between atoms: C_1  and  C_2
REMARK    2  A    between atoms: C_13  and  O_14
REMARK    3  A    between atoms: C_15  and  C_16
REMARK    4  A    between atoms: N_18  and  C_19
REMARK                            x       y       z     vdW  Elec       q    Type
REMARK                         _______ _______ _______ _____ _____    ______ ____
ROOT
ATOM      1  C   UNL     1       2.389   5.250  21.043  0.00  0.00    +0.000 C 
ATOM      2  C   UNL     1       2.435   4.428  19.788  0.00  0.00    +0.000 A 
ATOM      3  C   UNL     1       1.437   3.459  19.546  0.00  0.00    +0.000 A 
ATOM      4  C   UNL     1       1.442   2.672  18.394  0.00  0.00    +0.000 A 
ATOM      5  C   UNL     1       2.440   2.815  17.431  0.00  0.00    +0.000 A 
ATOM      6  C   UNL     1       3.426   3.776  17.680  0.00  0.00    +0.000 A 
ATOM      7  C   UNL     1       3.449   4.575  18.817  0.00  0.00    +0.000 A 
ATOM      8  N   UNL     1       4.540   5.424  18.787  0.00  0.00    +0.000 NA
ATOM      9  C   UNL     1       5.194   5.153  17.668  0.00  0.00    +0.000 A 
ATOM     10  N   UNL     1       4.532   4.169  16.970  0.00  0.00    +0.000 N 
ATOM     11  C   UNL     1       4.923   3.615  15.697  0.00  0.00    +0.000 C 
ATOM     12  C   UNL     1       6.173   4.234  15.093  0.00  0.00    +0.000 C 
ATOM     13  C   UNL     1       6.827   5.314  15.909  0.00  0.00    +0.000 C 
ATOM     14  C   UNL     1       6.391   5.713  17.128  0.00  0.00    +0.000 C 
ENDROOT
BRANCH  14  15
ATOM     15  C   UNL     1       7.209   6.725  17.911  0.00  0.00    +0.000 C 
ATOM     16  O   UNL     1       7.780   6.397  18.947  0.00  0.00    +0.000 OA
ATOM     17  N   UNL     1       7.194   8.019  17.419  0.00  0.00    +0.000 N 
ATOM     18  H   UNL     1       6.514   8.222  16.689  0.00  0.00    +0.000 HD
BRANCH  17  19
ATOM     19  C   UNL     1       7.956   9.101  17.919  0.00  0.00    +0.000 A 
ATOM     20  C   UNL     1       8.859   8.972  18.981  0.00  0.00    +0.000 A 
ATOM     21  C   UNL     1       9.604  10.065  19.429  0.00  0.00    +0.000 A 
ATOM     22  C   UNL     1       9.453  11.307  18.822  0.00  0.00    +0.000 A 
ATOM     23  C   UNL     1       8.560  11.451  17.762  0.00  0.00    +0.000 A 
ATOM     24  C   UNL     1       7.822  10.351  17.305  0.00  0.00    +0.000 A 
ENDBRANCH  17  19
ENDBRANCH  14  15
BRANCH  13  25
ATOM     25  O   UNL     1       7.923   5.889  15.290  0.00  0.00    +0.000 OA
ATOM     26  H   UNL     1       8.467   5.216  14.853  0.00  0.00    +0.000 HD
ENDBRANCH  13  25
TORSDOF 3
ENDMDL
MODEL 5
REMARK VINA RESULT:      -7.9      3.795      7.315
REMARK  Name = 
REMARK  4 active torsions:
REMARK  status: ('A' for Active; 'I' for Inactive)
REMARK    1  A    between atoms: C_1  and  C_2
REMARK    2  A    between atoms: C_13  and  O_14
REMARK    3  A    between atoms: C_15  and  C_16
REMARK    4  A    between atoms: N_18  and  C_19
REMARK                            x       y       z     vdW  Elec       q    Type
REMARK                         _______ _______ _______ _____ _____    ______ ____
ROOT
ATOM      1  C   UNL     1       8.932   6.000  12.493  0.00  0.00    +0.000 C 
ATOM      2  C   UNL     1       7.767   5.125  12.848  0.00  0.00    +0.000 A 
ATOM      3  C   UNL     1       7.168   4.315  11.858  0.00  0.00    +0.000 A 
ATOM      4  C   UNL     1       6.082   3.487  12.143  0.00  0.00    +0.000 A 
ATOM      5  C   UNL     1       5.543   3.428  13.428  0.00  0.00    +0.000 A 
ATOM      6  C   UNL     1       6.140   4.236  14.402  0.00  0.00    +0.000 A 
ATOM      7  C   UNL     1       7.223   5.070  14.149  0.00  0.00    +0.000 A 
ATOM      8  N   UNL     1       7.592   5.743  15.299  0.00  0.00    +0.000 NA
ATOM      9  C   UNL     1       6.751   5.353  16.246  0.00  0.00    +0.000 A 
ATOM     10  N   UNL     1       5.871   4.428  15.733  0.00  0.00    +0.000 N 
ATOM     11  C   UNL     1       4.819   3.759  16.457  0.00  0.00    +0.000 C 
ATOM     12  C   UNL     1       4.736   4.118  17.932  0.00  0.00    +0.000 C 
ATOM     13  C   UNL     1       5.742   5.122  18.418  0.00  0.00    +0.000 C 
ATOM     14  C   UNL     1       6.656   5.727  17.621  0.00  0.00    +0.000 C 
ENDROOT
BRANCH  14  15
ATOM     15  C   UNL     1       7.537   6.819  18.202  0.00  0.00    +0.000 C 
ATOM     16  O   UNL     1       8.341   6.561  19.094  0.00  0.00    +0.000 OA
ATOM     17  N   UNL     1       7.315   8.095  17.713  0.00  0.00    +0.000 N 
ATOM     18  H   UNL     1       6.480   8.226  17.144  0.00  0.00    +0.000 HD
BRANCH  17  19
ATOM     19  C   UNL     1       8.077   9.243  18.029  0.00  0.00    +0.000 A 
ATOM     20  C   UNL     1       7.964  10.452  17.332  0.00  0.00    +0.000 A 
ATOM     21  C   UNL     1       8.724  11.566  17.693  0.00  0.00    +0.000 A 
ATOM     22  C   UNL     1       9.614  11.486  18.758  0.00  0.00    +0.000 A 
ATOM     23  C   UNL     1       9.738  10.291  19.464  0.00  0.00    +0.000 A 
ATOM     24  C   UNL     1       8.966   9.177  19.108  0.00  0.00    +0.000 A 
ENDBRANCH  17  19
ENDBRANCH  14  15
BRANCH  13  25
ATOM     25  O   UNL     1       5.668   5.369  19.777  0.00  0.00    +0.000 OA
ATOM     26  H   UNL     1       5.136   4.692  20.224  0.00  0.00    +0.000 HD
ENDBRANCH  13  25
TORSDOF 3
ENDMDL
MODEL 6
REMARK VINA RESULT:      -7.9      3.718      5.743
REMARK  Name = 
REMARK  4 active torsions:
REMARK  status: ('A' for Active; 'I' for Inactive)
REMARK    1  A    between atoms: C_1  and  C_2
REMARK    2  A    between atoms: C_13  and  O_14
REMARK    3  A    between atoms: C_15  and  C_16
REMARK    4  A    between atoms: N_18  and  C_19
REMARK                            x       y       z     vdW  Elec       q    Type
REMARK                         _______ _______ _______ _____ _____    ______ ____
ROOT
ATOM      1  C   UNL     1       2.322   5.593  20.940  0.00  0.00    +0.000 C 
ATOM      2  C   UNL     1       2.353   4.735  19.710  0.00  0.00    +0.000 A 
ATOM      3  C   UNL     1       1.324   3.794  19.482  0.00  0.00    +0.000 A 
ATOM      4  C   UNL     1       1.314   2.975  18.353  0.00  0.00    +0.000 A 
ATOM      5  C   UNL     1       2.327   3.057  17.398  0.00  0.00    +0.000 A 
ATOM      6  C   UNL     1       3.343   3.990  17.632  0.00  0.00    +0.000 A 
ATOM      7  C   UNL     1       3.381   4.819  18.747  0.00  0.00    +0.000 A 
ATOM      8  N   UNL     1       4.501   5.630  18.706  0.00  0.00    +0.000 NA
ATOM      9  C   UNL     1       5.158   5.305  17.602  0.00  0.00    +0.000 A 
ATOM     10  N   UNL     1       4.470   4.325  16.925  0.00  0.00    +0.000 N 
ATOM     11  C   UNL     1       4.855   3.722  15.672  0.00  0.00    +0.000 C 
ATOM     12  C   UNL     1       6.132   4.281  15.066  0.00  0.00    +0.000 C 
ATOM     13  C   UNL     1       6.815   5.360  15.859  0.00  0.00    +0.000 C 
ATOM     14  C   UNL     1       6.380   5.808  17.062  0.00  0.00    +0.000 C 
ENDROOT
BRANCH  14  15
ATOM     15  C   UNL     1       7.223   6.813  17.826  0.00  0.00    +0.000 C 
ATOM     16  O   UNL     1       7.843   6.471  18.829  0.00  0.00    +0.000 OA
ATOM     17  N   UNL     1       7.176   8.116  17.358  0.00  0.00    +0.000 N 
ATOM     18  H   UNL     1       6.461   8.325  16.664  0.00  0.00    +0.000 HD
BRANCH  17  19
ATOM     19  C   UNL     1       7.950   9.195  17.844  0.00  0.00    +0.000 A 
ATOM     20  C   UNL     1       7.879  10.488  17.312  0.00  0.00    +0.000 A 
ATOM     21  C   UNL     1       8.650  11.527  17.838  0.00  0.00    +0.000 A 
ATOM     22  C   UNL     1       9.509  11.286  18.904  0.00  0.00    +0.000 A 
ATOM     23  C   UNL     1       9.590  10.005  19.447  0.00  0.00    +0.000 A 
ATOM     24  C   UNL     1       8.807   8.966  18.927  0.00  0.00    +0.000 A 
ENDBRANCH  17  19
ENDBRANCH  14  15
BRANCH  13  25
ATOM     25  O   UNL     1       7.936   5.880  15.238  0.00  0.00    +0.000 OA
ATOM     26  H   UNL     1       8.304   5.248  14.600  0.00  0.00    +0.000 HD
ENDBRANCH  13  25
TORSDOF 3
ENDMDL
MODEL 7
REMARK VINA RESULT:      -7.6      1.345      1.621
REMARK  Name = 
REMARK  4 active torsions:
REMARK  status: ('A' for Active; 'I' for Inactive)
REMARK    1  A    between atoms: C_1  and  C_2
REMARK    2  A    between atoms: C_13  and  O_14
REMARK    3  A    between atoms: C_15  and  C_16
REMARK    4  A    between atoms: N_18  and  C_19
REMARK                            x       y       z     vdW  Elec       q    Type
REMARK                         _______ _______ _______ _____ _____    ______ ____
ROOT
ATOM      1  C   UNL     1       2.183   9.184  17.482  0.00  0.00    +0.000 C 
ATOM      2  C   UNL     1       1.835   8.558  18.800  0.00  0.00    +0.000 A 
ATOM      3  C   UNL     1       1.164   9.318  19.784  0.00  0.00    +0.000 A 
ATOM      4  C   UNL     1       0.822   8.776  21.024  0.00  0.00    +0.000 A 
ATOM      5  C   UNL     1       1.131   7.454  21.339  0.00  0.00    +0.000 A 
ATOM      6  C   UNL     1       1.797   6.709  20.360  0.00  0.00    +0.000 A 
ATOM      7  C   UNL     1       2.151   7.219  19.116  0.00  0.00    +0.000 A 
ATOM      8  N   UNL     1       2.797   6.254  18.366  0.00  0.00    +0.000 NA
ATOM      9  C   UNL     1       2.862   5.171  19.125  0.00  0.00    +0.000 A 
ATOM     10  N   UNL     1       2.249   5.414  20.333  0.00  0.00    +0.000 N 
ATOM     11  C   UNL     1       2.100   4.476  21.419  0.00  0.00    +0.000 C 
ATOM     12  C   UNL     1       2.659   3.091  21.141  0.00  0.00    +0.000 C 
ATOM     13  C   UNL     1       3.297   2.901  19.793  0.00  0.00    +0.000 C 
ATOM     14  C   UNL     1       3.426   3.885  18.870  0.00  0.00    +0.000 C 
ENDROOT
BRANCH  14  15
ATOM     15  C   UNL     1       4.201   3.605  17.594  0.00  0.00    +0.000 C 
ATOM     16  O   UNL     1       4.174   2.490  17.081  0.00  0.00    +0.000 OA
ATOM     17  N   UNL     1       4.972   4.652  17.118  0.00  0.00    +0.000 N 
ATOM     18  H   UNL     1       5.093   5.449  17.740  0.00  0.00    +0.000 HD
BRANCH  17  19
ATOM     19  C   UNL     1       5.694   4.658  15.902  0.00  0.00    +0.000 A 
ATOM     20  C   UNL     1       6.974   5.212  15.775  0.00  0.00    +0.000 A 
ATOM     21  C   UNL     1       7.656   5.177  14.557  0.00  0.00    +0.000 A 
ATOM     22  C   UNL     1       7.065   4.589  13.444  0.00  0.00    +0.000 A 
ATOM     23  C   UNL     1       5.793   4.030  13.554  0.00  0.00    +0.000 A 
ATOM     24  C   UNL     1       5.114   4.055  14.780  0.00  0.00    +0.000 A 
ENDBRANCH  17  19
ENDBRANCH  14  15
BRANCH  13  25
ATOM     25  O   UNL     1       3.735   1.609  19.563  0.00  0.00    +0.000 OA
ATOM     26  H   UNL     1       3.386   1.270  18.724  0.00  0.00    +0.000 HD
ENDBRANCH  13  25
TORSDOF 3
ENDMDL
MODEL 8
REMARK VINA RESULT:      -7.6      2.382      7.097
REMARK  Name = 
REMARK  4 active torsions:
REMARK  status: ('A' for Active; 'I' for Inactive)
REMARK    1  A    between atoms: C_1  and  C_2
REMARK    2  A    between atoms: C_13  and  O_14
REMARK    3  A    between atoms: C_15  and  C_16
REMARK    4  A    between atoms: N_18  and  C_19
REMARK                            x       y       z     vdW  Elec       q    Type
REMARK                         _______ _______ _______ _____ _____    ______ ____
ROOT
ATOM      1  C   UNL     1       4.662   7.342  15.440  0.00  0.00    +0.000 C 
ATOM      2  C   UNL     1       5.063   5.951  15.836  0.00  0.00    +0.000 A 
ATOM      3  C   UNL     1       5.969   5.224  15.032  0.00  0.00    +0.000 A 
ATOM      4  C   UNL     1       6.367   3.928  15.361  0.00  0.00    +0.000 A 
ATOM      5  C   UNL     1       5.881   3.297  16.505  0.00  0.00    +0.000 A 
ATOM      6  C   UNL     1       4.983   4.023  17.295  0.00  0.00    +0.000 A 
ATOM      7  C   UNL     1       4.567   5.315  16.994  0.00  0.00    +0.000 A 
ATOM      8  N   UNL     1       3.679   5.770  17.952  0.00  0.00    +0.000 NA
ATOM      9  C   UNL     1       3.529   4.783  18.821  0.00  0.00    +0.000 A 
ATOM     10  N   UNL     1       4.319   3.718  18.456  0.00  0.00    +0.000 N 
ATOM     11  C   UNL     1       4.443   2.465  19.160  0.00  0.00    +0.000 C 
ATOM     12  C   UNL     1       3.628   2.374  20.440  0.00  0.00    +0.000 C 
ATOM     13  C   UNL     1       2.804   3.585  20.778  0.00  0.00    +0.000 C 
ATOM     14  C   UNL     1       2.728   4.692  20.000  0.00  0.00    +0.000 C 
ENDROOT
BRANCH  14  15
ATOM     15  C   UNL     1       1.764   5.801  20.383  0.00  0.00    +0.000 C 
ATOM     16  O   UNL     1       0.631   5.534  20.775  0.00  0.00    +0.000 OA
ATOM     17  N   UNL     1       2.225   7.092  20.190  0.00  0.00    +0.000 N 
ATOM     18  H   UNL     1       3.087   7.193  19.656  0.00  0.00    +0.000 HD
BRANCH  17  19
ATOM     19  C   UNL     1       1.548   8.275  20.566  0.00  0.00    +0.000 A 
ATOM     20  C   UNL     1       1.219   8.578  21.893  0.00  0.00    +0.000 A 
ATOM     21  C   UNL     1       0.566   9.769  22.219  0.00  0.00    +0.000 A 
ATOM     22  C   UNL     1       0.228  10.674  21.219  0.00  0.00    +0.000 A 
ATOM     23  C   UNL     1       0.549  10.388  19.893  0.00  0.00    +0.000 A 
ATOM     24  C   UNL     1       1.216   9.198  19.569  0.00  0.00    +0.000 A 
ENDBRANCH  17  19
ENDBRANCH  14  15
BRANCH  13  25
ATOM     25  O   UNL     1       2.130   3.479  21.981  0.00  0.00    +0.000 OA
ATOM     26  H   UNL     1       1.236   3.125  21.848  0.00  0.00    +0.000 HD
ENDBRANCH  13  25
TORSDOF 3
ENDMDL
MODEL 9
REMARK VINA RESULT:      -7.5      4.124      6.686
REMARK  Name = 
REMARK  4 active torsions:
REMARK  status: ('A' for Active; 'I' for Inactive)
REMARK    1  A    between atoms: C_1  and  C_2
REMARK    2  A    between atoms: C_13  and  O_14
REMARK    3  A    between atoms: C_15  and  C_16
REMARK    4  A    between atoms: N_18  and  C_19
REMARK                            x       y       z     vdW  Elec       q    Type
REMARK                         _______ _______ _______ _____ _____    ______ ____
ROOT
ATOM      1  C   UNL     1      -3.018   9.832  14.979  0.00  0.00    +0.000 C 
ATOM      2  C   UNL     1      -3.359  10.582  16.232  0.00  0.00    +0.000 A 
ATOM      3  C   UNL     1      -4.586  11.277  16.324  0.00  0.00    +0.000 A 
ATOM      4  C   UNL     1      -4.943  11.989  17.469  0.00  0.00    +0.000 A 
ATOM      5  C   UNL     1      -4.097  12.040  18.575  0.00  0.00    +0.000 A 
ATOM      6  C   UNL     1      -2.883  11.351  18.476  0.00  0.00    +0.000 A 
ATOM      7  C   UNL     1      -2.499  10.633  17.350  0.00  0.00    +0.000 A 
ATOM      8  N   UNL     1      -1.253  10.064  17.543  0.00  0.00    +0.000 NA
ATOM      9  C   UNL     1      -0.860  10.429  18.754  0.00  0.00    +0.000 A 
ATOM     10  N   UNL     1      -1.835  11.197  19.348  0.00  0.00    +0.000 N 
ATOM     11  C   UNL     1      -1.785  11.767  20.671  0.00  0.00    +0.000 C 
ATOM     12  C   UNL     1      -0.529  11.432  21.459  0.00  0.00    +0.000 C 
ATOM     13  C   UNL     1       0.480  10.576  20.747  0.00  0.00    +0.000 C 
ATOM     14  C   UNL     1       0.342  10.142  19.470  0.00  0.00    +0.000 C 
ENDROOT
BRANCH  14  15
ATOM     15  C   UNL     1       1.486   9.388  18.817  0.00  0.00    +0.000 C 
ATOM     16  O   UNL     1       2.153   9.914  17.930  0.00  0.00    +0.000 OA
ATOM     17  N   UNL     1       1.660   8.080  19.235  0.00  0.00    +0.000 N 
ATOM     18  H   UNL     1       0.917   7.681  19.806  0.00  0.00    +0.000 HD
BRANCH  17  19
ATOM     19  C   UNL     1       2.715   7.222  18.844  0.00  0.00    +0.000 A 
ATOM     20  C   UNL     1       3.493   7.440  17.700  0.00  0.00    +0.000 A 
ATOM     21  C   UNL     1       4.537   6.575  17.364  0.00  0.00    +0.000 A 
ATOM     22  C   UNL     1       4.816   5.475  18.167  0.00  0.00    +0.000 A 
ATOM     23  C   UNL     1       4.052   5.245  19.310  0.00  0.00    +0.000 A 
ATOM     24  C   UNL     1       3.013   6.120  19.653  0.00  0.00    +0.000 A 
ENDBRANCH  17  19
ENDBRANCH  14  15
BRANCH  13  25
ATOM     25  O   UNL     1       1.576  10.246  21.525  0.00  0.00    +0.000 OA
ATOM     26  H   UNL     1       1.703   9.284  21.553  0.00  0.00    +0.000 HD
ENDBRANCH  13  25
TORSDOF 3
ENDMDL
