MODEL 1
REMARK VINA RESULT:      -8.2      0.000      0.000
REMARK  Name = 
REMARK  9 active torsions:
REMARK  status: ('A' for Active; 'I' for Inactive)
REMARK    1  A    between atoms: C_1  and  C_2
REMARK    2  A    between atoms: C_2  and  C_3
REMARK    3  A    between atoms: C_8  and  S_9
REMARK    4  A    between atoms: S_9  and  C_10
REMARK    5  A    between atoms: C_10  and  C_11
REMARK    6  A    between atoms: N_13  and  C_14
REMARK    7  A    between atoms: C_14  and  C_15
REMARK    8  A    between atoms: N_24  and  C_25
REMARK    9  A    between atoms: N_28  and  C_29
REMARK                            x       y       z     vdW  Elec       q    Type
REMARK                         _______ _______ _______ _____ _____    ______ ____
ROOT
ATOM      1  C   UNL     1       5.107   4.744  16.164  0.00  0.00    +0.000 A 
ATOM      2  C   UNL     1       4.676   3.438  16.369  0.00  0.00    +0.000 A 
ATOM      3  N   UNL     1       3.789   3.069  17.306  0.00  0.00    +0.000 NA
ATOM      4  C   UNL     1       3.274   4.026  18.111  0.00  0.00    +0.000 A 
ATOM      5  C   UNL     1       3.623   5.369  18.000  0.00  0.00    +0.000 A 
ATOM      6  C   UNL     1       4.582   5.747  17.015  0.00  0.00    +0.000 A 
ATOM      7  C   UNL     1       2.944   6.304  18.929  0.00  0.00    +0.000 A 
ATOM      8  O   UNL     1       3.032   7.519  18.773  0.00  0.00    +0.000 OA
ATOM      9  N   UNL     1       2.146   5.756  19.930  0.00  0.00    +0.000 N 
ATOM     10  C   UNL     1       1.496   6.648  20.875  0.00  0.00    +0.000 C 
ATOM     11  C   UNL     1       1.794   4.420  20.016  0.00  0.00    +0.000 A 
ATOM     12  O   UNL     1       1.002   4.018  20.871  0.00  0.00    +0.000 OA
ATOM     13  N   UNL     1       2.362   3.578  19.091  0.00  0.00    +0.000 N 
ATOM     14  C   UNL     1       2.059   2.154  19.130  0.00  0.00    +0.000 C 
ENDROOT
BRANCH   1  16
ATOM     15  C   UNL     1       6.201   3.783  14.090  0.00  0.00    +0.000 C 
ATOM     16  C   UNL     1       6.121   4.951  15.062  0.00  0.00    +0.000 C 
ENDBRANCH   1  16
BRANCH   6  17
ATOM     17  S   UNL     1       5.354   7.384  16.948  0.00  0.00    +0.000 S 
BRANCH  17  18
ATOM     18  C   UNL     1       7.146   7.000  16.825  0.00  0.00    +0.000 C 
BRANCH  18  19
ATOM     19  C   UNL     1       7.921   7.557  18.033  0.00  0.00    +0.000 C 
ATOM     20  O   UNL     1       8.274   6.892  19.004  0.00  0.00    +0.000 OA
ATOM     21  N   UNL     1       8.225   8.909  17.936  0.00  0.00    +0.000 N 
ATOM     22  H   UNL     1       7.752   9.472  17.243  0.00  0.00    +0.000 HD
BRANCH  21  23
ATOM     23  C   UNL     1       8.878   9.604  19.030  0.00  0.00    +0.000 C 
BRANCH  23  24
ATOM     24  C   UNL     1       9.492  10.909  18.582  0.00  0.00    +0.000 A 
ATOM     25  C   UNL     1       8.742  11.867  17.879  0.00  0.00    +0.000 A 
ATOM     26  C   UNL     1       9.325  13.077  17.491  0.00  0.00    +0.000 A 
ATOM     27  C   UNL     1      10.657  13.330  17.799  0.00  0.00    +0.000 A 
ATOM     28  F   UNL     1      11.212  14.491  17.429  0.00  0.00    +0.000 F 
ATOM     29  C   UNL     1      11.419  12.396  18.489  0.00  0.00    +0.000 A 
ATOM     30  C   UNL     1      10.839  11.185  18.876  0.00  0.00    +0.000 A 
ENDBRANCH  23  24
ENDBRANCH  21  23
ENDBRANCH  18  19
ENDBRANCH  17  18
ENDBRANCH   6  17
TORSDOF 6
ENDMDL
MODEL 2
REMARK VINA RESULT:      -8.1      4.819      7.570
REMARK  Name = 
REMARK  9 active torsions:
REMARK  status: ('A' for Active; 'I' for Inactive)
REMARK    1  A    between atoms: C_1  and  C_2
REMARK    2  A    between atoms: C_2  and  C_3
REMARK    3  A    between atoms: C_8  and  S_9
REMARK    4  A    between atoms: S_9  and  C_10
REMARK    5  A    between atoms: C_10  and  C_11
REMARK    6  A    between atoms: N_13  and  C_14
REMARK    7  A    between atoms: C_14  and  C_15
REMARK    8  A    between atoms: N_24  and  C_25
REMARK    9  A    between atoms: N_28  and  C_29
REMARK                            x       y       z     vdW  Elec       q    Type
REMARK                         _______ _______ _______ _____ _____    ______ ____
ROOT
ATOM      1  C   UNL     1       5.686   6.071  17.929  0.00  0.00    +0.000 A 
ATOM      2  C   UNL     1       6.379   5.108  18.652  0.00  0.00    +0.000 A 
ATOM      3  N   UNL     1       5.814   4.039  19.234  0.00  0.00    +0.000 NA
ATOM      4  C   UNL     1       4.476   3.879  19.112  0.00  0.00    +0.000 A 
ATOM      5  C   UNL     1       3.673   4.772  18.408  0.00  0.00    +0.000 A 
ATOM      6  C   UNL     1       4.283   5.915  17.812  0.00  0.00    +0.000 A 
ATOM      7  C   UNL     1       2.231   4.440  18.330  0.00  0.00    +0.000 A 
ATOM      8  O   UNL     1       1.485   5.050  17.568  0.00  0.00    +0.000 OA
ATOM      9  N   UNL     1       1.772   3.368  19.092  0.00  0.00    +0.000 N 
ATOM     10  C   UNL     1       0.356   3.042  19.062  0.00  0.00    +0.000 C 
ATOM     11  C   UNL     1       2.586   2.478  19.773  0.00  0.00    +0.000 A 
ATOM     12  O   UNL     1       2.119   1.491  20.346  0.00  0.00    +0.000 OA
ATOM     13  N   UNL     1       3.932   2.749  19.760  0.00  0.00    +0.000 N 
ATOM     14  C   UNL     1       4.851   1.873  20.473  0.00  0.00    +0.000 C 
ENDROOT
BRANCH   1  16
ATOM     15  C   UNL     1       7.842   7.395  18.067  0.00  0.00    +0.000 C 
ATOM     16  C   UNL     1       6.506   7.206  17.361  0.00  0.00    +0.000 C 
ENDBRANCH   1  16
BRANCH   6  17
ATOM     17  S   UNL     1       3.344   7.307  17.130  0.00  0.00    +0.000 S 
BRANCH  17  18
ATOM     18  C   UNL     1       2.422   7.946  18.584  0.00  0.00    +0.000 C 
BRANCH  18  19
ATOM     19  C   UNL     1       1.831   9.339  18.302  0.00  0.00    +0.000 C 
ATOM     20  O   UNL     1       2.206  10.090  17.405  0.00  0.00    +0.000 OA
ATOM     21  N   UNL     1       0.788   9.693  19.149  0.00  0.00    +0.000 N 
ATOM     22  H   UNL     1       0.638   9.162  19.995  0.00  0.00    +0.000 HD
BRANCH  21  23
ATOM     23  C   UNL     1       0.179  11.008  19.068  0.00  0.00    +0.000 C 
BRANCH  23  24
ATOM     24  C   UNL     1      -1.239  10.941  18.551  0.00  0.00    +0.000 A 
ATOM     25  C   UNL     1      -2.242  11.786  19.057  0.00  0.00    +0.000 A 
ATOM     26  C   UNL     1      -3.543  11.721  18.551  0.00  0.00    +0.000 A 
ATOM     27  C   UNL     1      -3.846  10.811  17.544  0.00  0.00    +0.000 A 
ATOM     28  F   UNL     1      -5.093  10.754  17.058  0.00  0.00    +0.000 F 
ATOM     29  C   UNL     1      -2.872   9.963  17.033  0.00  0.00    +0.000 A 
ATOM     30  C   UNL     1      -1.572  10.025  17.538  0.00  0.00    +0.000 A 
ENDBRANCH  23  24
ENDBRANCH  21  23
ENDBRANCH  18  19
ENDBRANCH  17  18
ENDBRANCH   6  17
TORSDOF 6
ENDMDL
MODEL 3
REMARK VINA RESULT:      -8.1      7.104     10.515
REMARK  Name = 
REMARK  9 active torsions:
REMARK  status: ('A' for Active; 'I' for Inactive)
REMARK    1  A    between atoms: C_1  and  C_2
REMARK    2  A    between atoms: C_2  and  C_3
REMARK    3  A    between atoms: C_8  and  S_9
REMARK    4  A    between atoms: S_9  and  C_10
REMARK    5  A    between atoms: C_10  and  C_11
REMARK    6  A    between atoms: N_13  and  C_14
REMARK    7  A    between atoms: C_14  and  C_15
REMARK    8  A    between atoms: N_24  and  C_25
REMARK    9  A    between atoms: N_28  and  C_29
REMARK                            x       y       z     vdW  Elec       q    Type
REMARK                         _______ _______ _______ _____ _____    ______ ____
ROOT
ATOM      1  C   UNL     1      -2.844  11.597  17.997  0.00  0.00    +0.000 A 
ATOM      2  C   UNL     1      -4.199  11.699  18.288  0.00  0.00    +0.000 A 
ATOM      3  N   UNL     1      -4.696  12.157  19.447  0.00  0.00    +0.000 NA
ATOM      4  C   UNL     1      -3.826  12.548  20.405  0.00  0.00    +0.000 A 
ATOM      5  C   UNL     1      -2.445  12.498  20.232  0.00  0.00    +0.000 A 
ATOM      6  C   UNL     1      -1.929  11.991  19.004  0.00  0.00    +0.000 A 
ATOM      7  C   UNL     1      -1.623  12.999  21.359  0.00  0.00    +0.000 A 
ATOM      8  O   UNL     1      -0.416  13.184  21.223  0.00  0.00    +0.000 OA
ATOM      9  N   UNL     1      -2.277  13.321  22.545  0.00  0.00    +0.000 N 
ATOM     10  C   UNL     1      -1.491  13.781  23.678  0.00  0.00    +0.000 C 
ATOM     11  C   UNL     1      -3.653  13.382  22.696  0.00  0.00    +0.000 A 
ATOM     12  O   UNL     1      -4.167  13.772  23.747  0.00  0.00    +0.000 OA
ATOM     13  N   UNL     1      -4.403  13.001  21.611  0.00  0.00    +0.000 N 
ATOM     14  C   UNL     1      -5.858  13.016  21.698  0.00  0.00    +0.000 C 
ENDROOT
BRANCH   1  16
ATOM     15  C   UNL     1      -2.533   9.524  16.572  0.00  0.00    +0.000 C 
ATOM     16  C   UNL     1      -2.487  11.045  16.636  0.00  0.00    +0.000 C 
ENDBRANCH   1  16
BRANCH   6  17
ATOM     17  S   UNL     1      -0.181  11.587  18.746  0.00  0.00    +0.000 S 
BRANCH  17  18
ATOM     18  C   UNL     1       0.033  10.025  19.688  0.00  0.00    +0.000 C 
BRANCH  18  19
ATOM     19  C   UNL     1       1.190   9.183  19.119  0.00  0.00    +0.000 C 
ATOM     20  O   UNL     1       1.727   9.378  18.032  0.00  0.00    +0.000 OA
ATOM     21  N   UNL     1       1.616   8.164  19.961  0.00  0.00    +0.000 N 
ATOM     22  H   UNL     1       1.035   7.894  20.742  0.00  0.00    +0.000 HD
BRANCH  21  23
ATOM     23  C   UNL     1       2.641   7.229  19.536  0.00  0.00    +0.000 C 
BRANCH  23  24
ATOM     24  C   UNL     1       2.089   5.836  19.345  0.00  0.00    +0.000 A 
ATOM     25  C   UNL     1       2.099   5.211  18.086  0.00  0.00    +0.000 A 
ATOM     26  C   UNL     1       1.601   3.914  17.936  0.00  0.00    +0.000 A 
ATOM     27  C   UNL     1       1.088   3.241  19.039  0.00  0.00    +0.000 A 
ATOM     28  F   UNL     1       0.615   1.997  18.892  0.00  0.00    +0.000 F 
ATOM     29  C   UNL     1       1.064   3.840  20.291  0.00  0.00    +0.000 A 
ATOM     30  C   UNL     1       1.559   5.137  20.443  0.00  0.00    +0.000 A 
ENDBRANCH  23  24
ENDBRANCH  21  23
ENDBRANCH  18  19
ENDBRANCH  17  18
ENDBRANCH   6  17
TORSDOF 6
ENDMDL
MODEL 4
REMARK VINA RESULT:      -8.1      4.883      7.370
REMARK  Name = 
REMARK  9 active torsions:
REMARK  status: ('A' for Active; 'I' for Inactive)
REMARK    1  A    between atoms: C_1  and  C_2
REMARK    2  A    between atoms: C_2  and  C_3
REMARK    3  A    between atoms: C_8  and  S_9
REMARK    4  A    between atoms: S_9  and  C_10
REMARK    5  A    between atoms: C_10  and  C_11
REMARK    6  A    between atoms: N_13  and  C_14
REMARK    7  A    between atoms: C_14  and  C_15
REMARK    8  A    between atoms: N_24  and  C_25
REMARK    9  A    between atoms: N_28  and  C_29
REMARK                            x       y       z     vdW  Elec       q    Type
REMARK                         _______ _______ _______ _____ _____    ______ ____
ROOT
ATOM      1  C   UNL     1       2.214   7.987  18.519  0.00  0.00    +0.000 A 
ATOM      2  C   UNL     1       1.734   8.943  17.632  0.00  0.00    +0.000 A 
ATOM      3  N   UNL     1       0.907   9.945  17.968  0.00  0.00    +0.000 NA
ATOM      4  C   UNL     1       0.509  10.039  19.257  0.00  0.00    +0.000 A 
ATOM      5  C   UNL     1       0.925   9.146  20.240  0.00  0.00    +0.000 A 
ATOM      6  C   UNL     1       1.787   8.073  19.867  0.00  0.00    +0.000 A 
ATOM      7  C   UNL     1       0.434   9.404  21.614  0.00  0.00    +0.000 A 
ATOM      8  O   UNL     1       0.905   8.799  22.574  0.00  0.00    +0.000 OA
ATOM      9  N   UNL     1      -0.519  10.404  21.784  0.00  0.00    +0.000 N 
ATOM     10  C   UNL     1      -1.043  10.655  23.116  0.00  0.00    +0.000 C 
ATOM     11  C   UNL     1      -0.910  11.296  20.799  0.00  0.00    +0.000 A 
ATOM     12  O   UNL     1      -1.686  12.223  21.044  0.00  0.00    +0.000 OA
ATOM     13  N   UNL     1      -0.376  11.100  19.550  0.00  0.00    +0.000 N 
ATOM     14  C   UNL     1      -0.756  11.983  18.455  0.00  0.00    +0.000 C 
ENDROOT
BRANCH   1  16
ATOM     15  C   UNL     1       4.266   7.509  17.111  0.00  0.00    +0.000 C 
ATOM     16  C   UNL     1       3.128   6.931  17.940  0.00  0.00    +0.000 C 
ENDBRANCH   1  16
BRANCH   6  17
ATOM     17  S   UNL     1       2.169   6.674  20.953  0.00  0.00    +0.000 S 
BRANCH  17  18
ATOM     18  C   UNL     1       1.026   5.361  20.366  0.00  0.00    +0.000 C 
BRANCH  18  19
ATOM     19  C   UNL     1       1.784   4.267  19.591  0.00  0.00    +0.000 C 
ATOM     20  O   UNL     1       1.273   3.511  18.769  0.00  0.00    +0.000 OA
ATOM     21  N   UNL     1       3.141   4.207  19.881  0.00  0.00    +0.000 N 
ATOM     22  H   UNL     1       3.494   4.686  20.697  0.00  0.00    +0.000 HD
BRANCH  21  23
ATOM     23  C   UNL     1       3.980   3.176  19.297  0.00  0.00    +0.000 C 
BRANCH  23  24
ATOM     24  C   UNL     1       4.869   3.723  18.205  0.00  0.00    +0.000 A 
ATOM     25  C   UNL     1       4.527   3.591  16.849  0.00  0.00    +0.000 A 
ATOM     26  C   UNL     1       5.354   4.122  15.855  0.00  0.00    +0.000 A 
ATOM     27  C   UNL     1       6.525   4.781  16.214  0.00  0.00    +0.000 A 
ATOM     28  F   UNL     1       7.314   5.292  15.260  0.00  0.00    +0.000 F 
ATOM     29  C   UNL     1       6.885   4.919  17.548  0.00  0.00    +0.000 A 
ATOM     30  C   UNL     1       6.061   4.387  18.542  0.00  0.00    +0.000 A 
ENDBRANCH  23  24
ENDBRANCH  21  23
ENDBRANCH  18  19
ENDBRANCH  17  18
ENDBRANCH   6  17
TORSDOF 6
ENDMDL
MODEL 5
REMARK VINA RESULT:      -8.0      7.076     10.567
REMARK  Name = 
REMARK  9 active torsions:
REMARK  status: ('A' for Active; 'I' for Inactive)
REMARK    1  A    between atoms: C_1  and  C_2
REMARK    2  A    between atoms: C_2  and  C_3
REMARK    3  A    between atoms: C_8  and  S_9
REMARK    4  A    between atoms: S_9  and  C_10
REMARK    5  A    between atoms: C_10  and  C_11
REMARK    6  A    between atoms: N_13  and  C_14
REMARK    7  A    between atoms: C_14  and  C_15
REMARK    8  A    between atoms: N_24  and  C_25
REMARK    9  A    between atoms: N_28  and  C_29
REMARK                            x       y       z     vdW  Elec       q    Type
REMARK                         _______ _______ _______ _____ _____    ______ ____
ROOT
ATOM      1  C   UNL     1      -2.476  10.970  18.272  0.00  0.00    +0.000 A 
ATOM      2  C   UNL     1      -3.808  11.366  18.298  0.00  0.00    +0.000 A 
ATOM      3  N   UNL     1      -4.332  12.215  19.196  0.00  0.00    +0.000 NA
ATOM      4  C   UNL     1      -3.514  12.727  20.144  0.00  0.00    +0.000 A 
ATOM      5  C   UNL     1      -2.160  12.411  20.219  0.00  0.00    +0.000 A 
ATOM      6  C   UNL     1      -1.620  11.492  19.273  0.00  0.00    +0.000 A 
ATOM      7  C   UNL     1      -1.386  13.082  21.290  0.00  0.00    +0.000 A 
ATOM      8  O   UNL     1      -0.159  13.026  21.309  0.00  0.00    +0.000 OA
ATOM      9  N   UNL     1      -2.093  13.836  22.223  0.00  0.00    +0.000 N 
ATOM     10  C   UNL     1      -1.363  14.477  23.305  0.00  0.00    +0.000 C 
ATOM     11  C   UNL     1      -3.437  14.156  22.125  0.00  0.00    +0.000 A 
ATOM     12  O   UNL     1      -3.978  14.912  22.935  0.00  0.00    +0.000 OA
ATOM     13  N   UNL     1      -4.122  13.598  21.074  0.00  0.00    +0.000 N 
ATOM     14  C   UNL     1      -5.545  13.868  20.915  0.00  0.00    +0.000 C 
ENDROOT
BRANCH   1  16
ATOM     15  C   UNL     1      -2.633  10.371  15.814  0.00  0.00    +0.000 C 
ATOM     16  C   UNL     1      -2.086   9.995  17.185  0.00  0.00    +0.000 C 
ENDBRANCH   1  16
BRANCH   6  17
ATOM     17  S   UNL     1       0.031  10.758  19.422  0.00  0.00    +0.000 S 
BRANCH  17  18
ATOM     18  C   UNL     1      -0.123   9.670  20.893  0.00  0.00    +0.000 C 
BRANCH  18  19
ATOM     19  C   UNL     1       1.048   8.675  20.976  0.00  0.00    +0.000 C 
ATOM     20  O   UNL     1       1.677   8.417  21.999  0.00  0.00    +0.000 OA
ATOM     21  N   UNL     1       1.343   8.047  19.772  0.00  0.00    +0.000 N 
ATOM     22  H   UNL     1       0.961   8.420  18.914  0.00  0.00    +0.000 HD
BRANCH  21  23
ATOM     23  C   UNL     1       2.474   7.143  19.663  0.00  0.00    +0.000 C 
BRANCH  23  24
ATOM     24  C   UNL     1       2.035   5.718  19.422  0.00  0.00    +0.000 A 
ATOM     25  C   UNL     1       1.518   4.926  20.460  0.00  0.00    +0.000 A 
ATOM     26  C   UNL     1       1.100   3.616  20.211  0.00  0.00    +0.000 A 
ATOM     27  C   UNL     1       1.202   3.093  18.927  0.00  0.00    +0.000 A 
ATOM     28  F   UNL     1       0.797   1.839  18.689  0.00  0.00    +0.000 F 
ATOM     29  C   UNL     1       1.715   3.856  17.885  0.00  0.00    +0.000 A 
ATOM     30  C   UNL     1       2.135   5.165  18.133  0.00  0.00    +0.000 A 
ENDBRANCH  23  24
ENDBRANCH  21  23
ENDBRANCH  18  19
ENDBRANCH  17  18
ENDBRANCH   6  17
TORSDOF 6
ENDMDL
MODEL 6
REMARK VINA RESULT:      -7.9      6.672      9.955
REMARK  Name = 
REMARK  9 active torsions:
REMARK  status: ('A' for Active; 'I' for Inactive)
REMARK    1  A    between atoms: C_1  and  C_2
REMARK    2  A    between atoms: C_2  and  C_3
REMARK    3  A    between atoms: C_8  and  S_9
REMARK    4  A    between atoms: S_9  and  C_10
REMARK    5  A    between atoms: C_10  and  C_11
REMARK    6  A    between atoms: N_13  and  C_14
REMARK    7  A    between atoms: C_14  and  C_15
REMARK    8  A    between atoms: N_24  and  C_25
REMARK    9  A    between atoms: N_28  and  C_29
REMARK                            x       y       z     vdW  Elec       q    Type
REMARK                         _______ _______ _______ _____ _____    ______ ____
ROOT
ATOM      1  C   UNL     1      -0.262  10.706  18.711  0.00  0.00    +0.000 A 
ATOM      2  C   UNL     1      -0.964  10.390  17.554  0.00  0.00    +0.000 A 
ATOM      3  N   UNL     1      -2.243  10.722  17.326  0.00  0.00    +0.000 NA
ATOM      4  C   UNL     1      -2.904  11.412  18.284  0.00  0.00    +0.000 A 
ATOM      5  C   UNL     1      -2.309  11.791  19.484  0.00  0.00    +0.000 A 
ATOM      6  C   UNL     1      -0.955  11.415  19.723  0.00  0.00    +0.000 A 
ATOM      7  C   UNL     1      -3.151  12.577  20.417  0.00  0.00    +0.000 A 
ATOM      8  O   UNL     1      -2.657  13.125  21.399  0.00  0.00    +0.000 OA
ATOM      9  N   UNL     1      -4.497  12.733  20.099  0.00  0.00    +0.000 N 
ATOM     10  C   UNL     1      -5.353  13.470  21.013  0.00  0.00    +0.000 C 
ATOM     11  C   UNL     1      -5.071  12.365  18.893  0.00  0.00    +0.000 A 
ATOM     12  O   UNL     1      -6.249  12.624  18.638  0.00  0.00    +0.000 OA
ATOM     13  N   UNL     1      -4.253  11.717  18.000  0.00  0.00    +0.000 N 
ATOM     14  C   UNL     1      -4.789  11.279  16.718  0.00  0.00    +0.000 C 
ENDROOT
BRANCH   1  16
ATOM     15  C   UNL     1       1.536   9.256  17.667  0.00  0.00    +0.000 C 
ATOM     16  C   UNL     1       1.172  10.230  18.779  0.00  0.00    +0.000 C 
ENDBRANCH   1  16
BRANCH   6  17
ATOM     17  S   UNL     1      -0.145  11.568  21.337  0.00  0.00    +0.000 S 
BRANCH  17  18
ATOM     18  C   UNL     1      -0.358   9.900  22.075  0.00  0.00    +0.000 C 
BRANCH  18  19
ATOM     19  C   UNL     1       0.966   9.113  22.068  0.00  0.00    +0.000 C 
ATOM     20  O   UNL     1       1.946   9.386  22.756  0.00  0.00    +0.000 OA
ATOM     21  N   UNL     1       0.967   8.018  21.214  0.00  0.00    +0.000 N 
ATOM     22  H   UNL     1       0.242   7.936  20.515  0.00  0.00    +0.000 HD
BRANCH  21  23
ATOM     23  C   UNL     1       2.166   7.222  21.028  0.00  0.00    +0.000 C 
BRANCH  23  24
ATOM     24  C   UNL     1       1.907   6.001  20.177  0.00  0.00    +0.000 A 
ATOM     25  C   UNL     1       2.319   5.944  18.835  0.00  0.00    +0.000 A 
ATOM     26  C   UNL     1       2.086   4.797  18.071  0.00  0.00    +0.000 A 
ATOM     27  C   UNL     1       1.438   3.708  18.643  0.00  0.00    +0.000 A 
ATOM     28  F   UNL     1       1.219   2.609  17.910  0.00  0.00    +0.000 F 
ATOM     29  C   UNL     1       1.018   3.744  19.966  0.00  0.00    +0.000 A 
ATOM     30  C   UNL     1       1.248   4.890  20.731  0.00  0.00    +0.000 A 
ENDBRANCH  23  24
ENDBRANCH  21  23
ENDBRANCH  18  19
ENDBRANCH  17  18
ENDBRANCH   6  17
TORSDOF 6
ENDMDL
MODEL 7
REMARK VINA RESULT:      -7.9      6.886     10.267
REMARK  Name = 
REMARK  9 active torsions:
REMARK  status: ('A' for Active; 'I' for Inactive)
REMARK    1  A    between atoms: C_1  and  C_2
REMARK    2  A    between atoms: C_2  and  C_3
REMARK    3  A    between atoms: C_8  and  S_9
REMARK    4  A    between atoms: S_9  and  C_10
REMARK    5  A    between atoms: C_10  and  C_11
REMARK    6  A    between atoms: N_13  and  C_14
REMARK    7  A    between atoms: C_14  and  C_15
REMARK    8  A    between atoms: N_24  and  C_25
REMARK    9  A    between atoms: N_28  and  C_29
REMARK                            x       y       z     vdW  Elec       q    Type
REMARK                         _______ _______ _______ _____ _____    ______ ____
ROOT
ATOM      1  C   UNL     1      -2.482  10.646  18.155  0.00  0.00    +0.000 A 
ATOM      2  C   UNL     1      -3.645  11.394  18.021  0.00  0.00    +0.000 A 
ATOM      3  N   UNL     1      -4.038  12.349  18.878  0.00  0.00    +0.000 NA
ATOM      4  C   UNL     1      -3.253  12.609  19.948  0.00  0.00    +0.000 A 
ATOM      5  C   UNL     1      -2.062  11.931  20.189  0.00  0.00    +0.000 A 
ATOM      6  C   UNL     1      -1.666  10.904  19.283  0.00  0.00    +0.000 A 
ATOM      7  C   UNL     1      -1.293  12.355  21.383  0.00  0.00    +0.000 A 
ATOM      8  O   UNL     1      -0.143  11.962  21.563  0.00  0.00    +0.000 OA
ATOM      9  N   UNL     1      -1.891  13.270  22.247  0.00  0.00    +0.000 N 
ATOM     10  C   UNL     1      -1.173  13.677  23.443  0.00  0.00    +0.000 C 
ATOM     11  C   UNL     1      -3.069  13.949  21.984  0.00  0.00    +0.000 A 
ATOM     12  O   UNL     1      -3.491  14.821  22.747  0.00  0.00    +0.000 OA
ATOM     13  N   UNL     1      -3.725  13.609  20.827  0.00  0.00    +0.000 N 
ATOM     14  C   UNL     1      -4.983  14.263  20.492  0.00  0.00    +0.000 C 
ENDROOT
BRANCH   1  16
ATOM     15  C   UNL     1      -2.688  10.039  15.703  0.00  0.00    +0.000 C 
ATOM     16  C   UNL     1      -2.224   9.607  17.088  0.00  0.00    +0.000 C 
ENDBRANCH   1  16
BRANCH   6  17
ATOM     17  S   UNL     1      -0.316   9.742  19.619  0.00  0.00    +0.000 S 
BRANCH  17  18
ATOM     18  C   UNL     1       0.864  10.060  18.248  0.00  0.00    +0.000 C 
BRANCH  18  19
ATOM     19  C   UNL     1       1.942   8.962  18.173  0.00  0.00    +0.000 C 
ATOM     20  O   UNL     1       2.666   8.758  17.203  0.00  0.00    +0.000 OA
ATOM     21  N   UNL     1       2.057   8.204  19.332  0.00  0.00    +0.000 N 
ATOM     22  H   UNL     1       1.325   8.248  20.026  0.00  0.00    +0.000 HD
BRANCH  21  23
ATOM     23  C   UNL     1       2.968   7.075  19.393  0.00  0.00    +0.000 C 
BRANCH  23  24
ATOM     24  C   UNL     1       2.242   5.757  19.265  0.00  0.00    +0.000 A 
ATOM     25  C   UNL     1       1.643   5.141  20.376  0.00  0.00    +0.000 A 
ATOM     26  C   UNL     1       0.959   3.931  20.232  0.00  0.00    +0.000 A 
ATOM     27  C   UNL     1       0.876   3.332  18.980  0.00  0.00    +0.000 A 
ATOM     28  F   UNL     1       0.217   2.174  18.843  0.00  0.00    +0.000 F 
ATOM     29  C   UNL     1       1.465   3.920  17.868  0.00  0.00    +0.000 A 
ATOM     30  C   UNL     1       2.151   5.128  18.011  0.00  0.00    +0.000 A 
ENDBRANCH  23  24
ENDBRANCH  21  23
ENDBRANCH  18  19
ENDBRANCH  17  18
ENDBRANCH   6  17
TORSDOF 6
ENDMDL
MODEL 8
REMARK VINA RESULT:      -7.8      4.535      7.946
REMARK  Name = 
REMARK  9 active torsions:
REMARK  status: ('A' for Active; 'I' for Inactive)
REMARK    1  A    between atoms: C_1  and  C_2
REMARK    2  A    between atoms: C_2  and  C_3
REMARK    3  A    between atoms: C_8  and  S_9
REMARK    4  A    between atoms: S_9  and  C_10
REMARK    5  A    between atoms: C_10  and  C_11
REMARK    6  A    between atoms: N_13  and  C_14
REMARK    7  A    between atoms: C_14  and  C_15
REMARK    8  A    between atoms: N_24  and  C_25
REMARK    9  A    between atoms: N_28  and  C_29
REMARK                            x       y       z     vdW  Elec       q    Type
REMARK                         _______ _______ _______ _____ _____    ______ ____
ROOT
ATOM      1  C   UNL     1       2.369   3.733  18.234  0.00  0.00    +0.000 A 
ATOM      2  C   UNL     1       2.615   3.084  17.030  0.00  0.00    +0.000 A 
ATOM      3  N   UNL     1       3.699   3.286  16.264  0.00  0.00    +0.000 NA
ATOM      4  C   UNL     1       4.621   4.180  16.686  0.00  0.00    +0.000 A 
ATOM      5  C   UNL     1       4.490   4.890  17.877  0.00  0.00    +0.000 A 
ATOM      6  C   UNL     1       3.325   4.682  18.671  0.00  0.00    +0.000 A 
ATOM      7  C   UNL     1       5.604   5.806  18.222  0.00  0.00    +0.000 A 
ATOM      8  O   UNL     1       5.675   6.315  19.338  0.00  0.00    +0.000 OA
ATOM      9  N   UNL     1       6.597   6.005  17.268  0.00  0.00    +0.000 N 
ATOM     10  C   UNL     1       7.682   6.925  17.567  0.00  0.00    +0.000 C 
ATOM     11  C   UNL     1       6.723   5.279  16.095  0.00  0.00    +0.000 A 
ATOM     12  O   UNL     1       7.686   5.438  15.341  0.00  0.00    +0.000 OA
ATOM     13  N   UNL     1       5.730   4.368  15.832  0.00  0.00    +0.000 N 
ATOM     14  C   UNL     1       5.778   3.581  14.607  0.00  0.00    +0.000 C 
ENDROOT
BRANCH   1  16
ATOM     15  C   UNL     1       1.293   2.482  20.157  0.00  0.00    +0.000 C 
ATOM     16  C   UNL     1       1.082   3.374  18.941  0.00  0.00    +0.000 C 
ENDBRANCH   1  16
BRANCH   6  17
ATOM     17  S   UNL     1       2.871   5.736  20.074  0.00  0.00    +0.000 S 
BRANCH  17  18
ATOM     18  C   UNL     1       2.485   7.348  19.283  0.00  0.00    +0.000 C 
BRANCH  18  19
ATOM     19  C   UNL     1       1.503   8.169  20.139  0.00  0.00    +0.000 C 
ATOM     20  O   UNL     1       1.111   7.846  21.257  0.00  0.00    +0.000 OA
ATOM     21  N   UNL     1       1.093   9.356  19.546  0.00  0.00    +0.000 N 
ATOM     22  H   UNL     1       1.258   9.499  18.560  0.00  0.00    +0.000 HD
BRANCH  21  23
ATOM     23  C   UNL     1       0.104  10.204  20.187  0.00  0.00    +0.000 C 
BRANCH  23  24
ATOM     24  C   UNL     1      -1.002  10.598  19.236  0.00  0.00    +0.000 A 
ATOM     25  C   UNL     1      -1.952  11.573  19.583  0.00  0.00    +0.000 A 
ATOM     26  C   UNL     1      -2.955  11.937  18.681  0.00  0.00    +0.000 A 
ATOM     27  C   UNL     1      -3.014  11.325  17.434  0.00  0.00    +0.000 A 
ATOM     28  F   UNL     1      -3.974  11.678  16.569  0.00  0.00    +0.000 F 
ATOM     29  C   UNL     1      -2.089  10.355  17.071  0.00  0.00    +0.000 A 
ATOM     30  C   UNL     1      -1.086   9.989  17.972  0.00  0.00    +0.000 A 
ENDBRANCH  23  24
ENDBRANCH  21  23
ENDBRANCH  18  19
ENDBRANCH  17  18
ENDBRANCH   6  17
TORSDOF 6
ENDMDL
MODEL 9
REMARK VINA RESULT:      -7.8      6.824     10.621
REMARK  Name = 
REMARK  9 active torsions:
REMARK  status: ('A' for Active; 'I' for Inactive)
REMARK    1  A    between atoms: C_1  and  C_2
REMARK    2  A    between atoms: C_2  and  C_3
REMARK    3  A    between atoms: C_8  and  S_9
REMARK    4  A    between atoms: S_9  and  C_10
REMARK    5  A    between atoms: C_10  and  C_11
REMARK    6  A    between atoms: N_13  and  C_14
REMARK    7  A    between atoms: C_14  and  C_15
REMARK    8  A    between atoms: N_24  and  C_25
REMARK    9  A    between atoms: N_28  and  C_29
REMARK                            x       y       z     vdW  Elec       q    Type
REMARK                         _______ _______ _______ _____ _____    ______ ____
ROOT
ATOM      1  C   UNL     1      -0.509  10.767  22.337  0.00  0.00    +0.000 A 
ATOM      2  C   UNL     1      -1.478  11.229  23.219  0.00  0.00    +0.000 A 
ATOM      3  N   UNL     1      -2.076  12.427  23.133  0.00  0.00    +0.000 NA
ATOM      4  C   UNL     1      -1.718  13.248  22.120  0.00  0.00    +0.000 A 
ATOM      5  C   UNL     1      -0.763  12.897  21.169  0.00  0.00    +0.000 A 
ATOM      6  C   UNL     1      -0.120  11.630  21.284  0.00  0.00    +0.000 A 
ATOM      7  C   UNL     1      -0.507  13.888  20.097  0.00  0.00    +0.000 A 
ATOM      8  O   UNL     1       0.161  13.587  19.110  0.00  0.00    +0.000 OA
ATOM      9  N   UNL     1      -1.109  15.138  20.213  0.00  0.00    +0.000 N 
ATOM     10  C   UNL     1      -0.847  16.140  19.194  0.00  0.00    +0.000 C 
ATOM     11  C   UNL     1      -2.070  15.466  21.155  0.00  0.00    +0.000 A 
ATOM     12  O   UNL     1      -2.637  16.561  21.139  0.00  0.00    +0.000 OA
ATOM     13  N   UNL     1      -2.363  14.504  22.089  0.00  0.00    +0.000 N 
ATOM     14  C   UNL     1      -3.347  14.781  23.127  0.00  0.00    +0.000 C 
ENDROOT
BRANCH   1  16
ATOM     15  C   UNL     1      -0.586   8.299  21.765  0.00  0.00    +0.000 C 
ATOM     16  C   UNL     1       0.051   9.390  22.614  0.00  0.00    +0.000 C 
ENDBRANCH   1  16
BRANCH   6  17
ATOM     17  S   UNL     1       1.338  11.158  20.316  0.00  0.00    +0.000 S 
BRANCH  17  18
ATOM     18  C   UNL     1       0.633  10.138  18.961  0.00  0.00    +0.000 C 
BRANCH  18  19
ATOM     19  C   UNL     1       1.651   9.098  18.458  0.00  0.00    +0.000 C 
ATOM     20  O   UNL     1       2.097   9.052  17.315  0.00  0.00    +0.000 OA
ATOM     21  N   UNL     1       2.062   8.195  19.430  0.00  0.00    +0.000 N 
ATOM     22  H   UNL     1       1.537   8.120  20.289  0.00  0.00    +0.000 HD
BRANCH  21  23
ATOM     23  C   UNL     1       2.955   7.100  19.096  0.00  0.00    +0.000 C 
BRANCH  23  24
ATOM     24  C   UNL     1       2.243   5.768  19.108  0.00  0.00    +0.000 A 
ATOM     25  C   UNL     1       2.116   4.995  17.942  0.00  0.00    +0.000 A 
ATOM     26  C   UNL     1       1.470   3.756  17.980  0.00  0.00    +0.000 A 
ATOM     27  C   UNL     1       0.946   3.289  19.181  0.00  0.00    +0.000 A 
ATOM     28  F   UNL     1       0.331   2.100  19.215  0.00  0.00    +0.000 F 
ATOM     29  C   UNL     1       1.055   4.039  20.345  0.00  0.00    +0.000 A 
ATOM     30  C   UNL     1       1.699   5.278  20.308  0.00  0.00    +0.000 A 
ENDBRANCH  23  24
ENDBRANCH  21  23
ENDBRANCH  18  19
ENDBRANCH  17  18
ENDBRANCH   6  17
TORSDOF 6
ENDMDL
