MODEL 1
REMARK VINA RESULT:      -9.5      0.000      0.000
REMARK  Name = 
REMARK  6 active torsions:
REMARK  status: ('A' for Active; 'I' for Inactive)
REMARK    1  A    between atoms: C_5  and  C_6
REMARK    2  A    between atoms: C_6  and  N_7
REMARK    3  A    between atoms: N_9  and  C_10
REMARK    4  A    between atoms: N_13  and  C_14
REMARK    5  A    between atoms: C_14  and  C_15
REMARK    6  A    between atoms: C_15  and  C_16
REMARK                            x       y       z     vdW  Elec       q    Type
REMARK                         _______ _______ _______ _____ _____    ______ ____
ROOT
ATOM      1  N   UNL     1       5.571   5.075  16.857  0.00  0.00    +0.000 N 
ATOM      2  C   UNL     1       5.357   4.053  17.771  0.00  0.00    +0.000 A 
ATOM      3  N   UNL     1       4.378   3.122  17.587  0.00  0.00    +0.000 N 
ATOM      4  N   UNL     1       6.211   4.154  18.773  0.00  0.00    +0.000 NA
ATOM      5  C   UNL     1       6.896   5.329  18.570  0.00  0.00    +0.000 A 
ATOM      6  C   UNL     1       7.887   5.985  19.318  0.00  0.00    +0.000 A 
ATOM      7  C   UNL     1       8.324   7.231  18.854  0.00  0.00    +0.000 A 
ATOM      8  C   UNL     1       7.771   7.759  17.692  0.00  0.00    +0.000 A 
ATOM      9  N   UNL     1       6.846   7.149  16.916  0.00  0.00    +0.000 NA
ATOM     10  C   UNL     1       6.469   5.952  17.410  0.00  0.00    +0.000 A 
ATOM     11  H   UNL     1       3.525   3.491  17.173  0.00  0.00    +0.000 HD
ENDROOT
BRANCH   3  12
ATOM     12  C   UNL     1       4.036   2.120  18.627  0.00  0.00    +0.000 C 
ATOM     13  C   UNL     1       2.588   1.639  18.646  0.00  0.00    +0.000 C 
ATOM     14  C   UNL     1       1.590   2.759  18.968  0.00  0.00    +0.000 C 
ATOM     15  N   UNL     1       1.899   3.571  20.158  0.00  0.00    +0.000 NA
ATOM     16  C   UNL     1       3.335   3.872  20.310  0.00  0.00    +0.000 C 
ATOM     17  C   UNL     1       4.294   2.719  20.018  0.00  0.00    +0.000 C 
BRANCH  15  18
ATOM     18  C   UNL     1       1.175   4.875  20.126  0.00  0.00    +0.000 C 
BRANCH  18  19
ATOM     19  C   UNL     1       1.837   6.161  20.664  0.00  0.00    +0.000 C 
BRANCH  19  20
ATOM     20  C   UNL     1       1.901   7.375  19.763  0.00  0.00    +0.000 A 
ATOM     21  C   UNL     1       2.587   7.278  18.534  0.00  0.00    +0.000 A 
ATOM     22  C   UNL     1       2.595   8.346  17.634  0.00  0.00    +0.000 A 
ATOM     23  C   UNL     1       1.920   9.516  17.942  0.00  0.00    +0.000 A 
ATOM     24  C   UNL     1       1.240   9.629  19.152  0.00  0.00    +0.000 A 
ATOM     25  C   UNL     1       1.229   8.561  20.059  0.00  0.00    +0.000 A 
ENDBRANCH  19  20
ENDBRANCH  18  19
ENDBRANCH  15  18
ENDBRANCH   3  12
BRANCH   1  26
ATOM     26  C   UNL     1       4.934   5.321  15.577  0.00  0.00    +0.000 C 
BRANCH  26  31
ATOM     27  F   UNL     1       7.457   3.210  10.986  0.00  0.00    +0.000 F 
ATOM     28  C   UNL     1       6.883   3.657  12.106  0.00  0.00    +0.000 A 
ATOM     29  C   UNL     1       5.582   3.281  12.411  0.00  0.00    +0.000 A 
ATOM     30  C   UNL     1       4.963   3.779  13.560  0.00  0.00    +0.000 A 
ATOM     31  C   UNL     1       5.642   4.669  14.408  0.00  0.00    +0.000 A 
ATOM     32  C   UNL     1       6.978   5.000  14.104  0.00  0.00    +0.000 A 
ATOM     33  C   UNL     1       7.594   4.503  12.951  0.00  0.00    +0.000 A 
ENDBRANCH  26  31
ENDBRANCH   1  26
TORSDOF 6
ENDMDL
MODEL 2
REMARK VINA RESULT:      -9.3      0.190      1.221
REMARK  Name = 
REMARK  6 active torsions:
REMARK  status: ('A' for Active; 'I' for Inactive)
REMARK    1  A    between atoms: C_5  and  C_6
REMARK    2  A    between atoms: C_6  and  N_7
REMARK    3  A    between atoms: N_9  and  C_10
REMARK    4  A    between atoms: N_13  and  C_14
REMARK    5  A    between atoms: C_14  and  C_15
REMARK    6  A    between atoms: C_15  and  C_16
REMARK                            x       y       z     vdW  Elec       q    Type
REMARK                         _______ _______ _______ _____ _____    ______ ____
ROOT
ATOM      1  N   UNL     1       5.583   5.103  16.786  0.00  0.00    +0.000 N 
ATOM      2  C   UNL     1       5.401   4.034  17.654  0.00  0.00    +0.000 A 
ATOM      3  N   UNL     1       4.430   3.100  17.444  0.00  0.00    +0.000 N 
ATOM      4  N   UNL     1       6.274   4.098  18.642  0.00  0.00    +0.000 NA
ATOM      5  C   UNL     1       6.940   5.291  18.484  0.00  0.00    +0.000 A 
ATOM      6  C   UNL     1       7.937   5.924  19.242  0.00  0.00    +0.000 A 
ATOM      7  C   UNL     1       8.349   7.196  18.832  0.00  0.00    +0.000 A 
ATOM      8  C   UNL     1       7.766   7.773  17.708  0.00  0.00    +0.000 A 
ATOM      9  N   UNL     1       6.833   7.188  16.922  0.00  0.00    +0.000 NA
ATOM     10  C   UNL     1       6.482   5.964  17.364  0.00  0.00    +0.000 A 
ATOM     11  H   UNL     1       3.565   3.477  17.065  0.00  0.00    +0.000 HD
ENDROOT
BRANCH   3  12
ATOM     12  C   UNL     1       4.123   2.044  18.440  0.00  0.00    +0.000 C 
ATOM     13  C   UNL     1       2.682   1.543  18.463  0.00  0.00    +0.000 C 
ATOM     14  C   UNL     1       1.676   2.631  18.858  0.00  0.00    +0.000 C 
ATOM     15  N   UNL     1       1.997   3.389  20.080  0.00  0.00    +0.000 NA
ATOM     16  C   UNL     1       3.432   3.703  20.220  0.00  0.00    +0.000 C 
ATOM     17  C   UNL     1       4.400   2.579  19.853  0.00  0.00    +0.000 C 
BRANCH  15  18
ATOM     18  C   UNL     1       1.256   4.682  20.126  0.00  0.00    +0.000 C 
BRANCH  18  19
ATOM     19  C   UNL     1       1.961   5.985  20.558  0.00  0.00    +0.000 C 
BRANCH  19  20
ATOM     20  C   UNL     1       1.982   7.152  19.595  0.00  0.00    +0.000 A 
ATOM     21  C   UNL     1       1.305   8.338  19.945  0.00  0.00    +0.000 A 
ATOM     22  C   UNL     1       1.373   9.468  19.126  0.00  0.00    +0.000 A 
ATOM     23  C   UNL     1       2.116   9.432  17.958  0.00  0.00    +0.000 A 
ATOM     24  C   UNL     1       2.789   8.268  17.596  0.00  0.00    +0.000 A 
ATOM     25  C   UNL     1       2.723   7.132  18.413  0.00  0.00    +0.000 A 
ENDBRANCH  19  20
ENDBRANCH  18  19
ENDBRANCH  15  18
ENDBRANCH   3  12
BRANCH   1  26
ATOM     26  C   UNL     1       4.917   5.401  15.533  0.00  0.00    +0.000 C 
BRANCH  26  31
ATOM     27  F   UNL     1       7.574   2.853  11.248  0.00  0.00    +0.000 F 
ATOM     28  C   UNL     1       6.927   3.504  12.220  0.00  0.00    +0.000 A 
ATOM     29  C   UNL     1       7.609   4.427  13.001  0.00  0.00    +0.000 A 
ATOM     30  C   UNL     1       6.949   5.081  14.045  0.00  0.00    +0.000 A 
ATOM     31  C   UNL     1       5.601   4.804  14.321  0.00  0.00    +0.000 A 
ATOM     32  C   UNL     1       4.916   3.898  13.485  0.00  0.00    +0.000 A 
ATOM     33  C   UNL     1       5.580   3.243  12.444  0.00  0.00    +0.000 A 
ENDBRANCH  26  31
ENDBRANCH   1  26
TORSDOF 6
ENDMDL
MODEL 3
REMARK VINA RESULT:      -9.2      3.491      7.588
REMARK  Name = 
REMARK  6 active torsions:
REMARK  status: ('A' for Active; 'I' for Inactive)
REMARK    1  A    between atoms: C_5  and  C_6
REMARK    2  A    between atoms: C_6  and  N_7
REMARK    3  A    between atoms: N_9  and  C_10
REMARK    4  A    between atoms: N_13  and  C_14
REMARK    5  A    between atoms: C_14  and  C_15
REMARK    6  A    between atoms: C_15  and  C_16
REMARK                            x       y       z     vdW  Elec       q    Type
REMARK                         _______ _______ _______ _____ _____    ______ ____
ROOT
ATOM      1  N   UNL     1       3.050   4.991  18.648  0.00  0.00    +0.000 N 
ATOM      2  C   UNL     1       4.393   4.639  18.608  0.00  0.00    +0.000 A 
ATOM      3  N   UNL     1       5.242   5.160  17.677  0.00  0.00    +0.000 N 
ATOM      4  N   UNL     1       4.662   3.769  19.564  0.00  0.00    +0.000 NA
ATOM      5  C   UNL     1       3.455   3.456  20.143  0.00  0.00    +0.000 A 
ATOM      6  C   UNL     1       3.103   2.564  21.169  0.00  0.00    +0.000 A 
ATOM      7  C   UNL     1       1.743   2.431  21.468  0.00  0.00    +0.000 A 
ATOM      8  C   UNL     1       0.811   3.174  20.751  0.00  0.00    +0.000 A 
ATOM      9  N   UNL     1       1.101   4.074  19.784  0.00  0.00    +0.000 NA
ATOM     10  C   UNL     1       2.426   4.163  19.545  0.00  0.00    +0.000 A 
ATOM     11  H   UNL     1       4.822   5.294  16.760  0.00  0.00    +0.000 HD
ENDROOT
BRANCH   3  12
ATOM     12  C   UNL     1       6.637   4.679  17.524  0.00  0.00    +0.000 C 
ATOM     13  C   UNL     1       7.598   5.038  18.653  0.00  0.00    +0.000 C 
ATOM     14  C   UNL     1       7.815   6.550  18.796  0.00  0.00    +0.000 C 
ATOM     15  N   UNL     1       8.156   7.269  17.557  0.00  0.00    +0.000 NA
ATOM     16  C   UNL     1       7.408   6.796  16.376  0.00  0.00    +0.000 C 
ATOM     17  C   UNL     1       7.248   5.282  16.250  0.00  0.00    +0.000 C 
BRANCH  15  18
ATOM     18  C   UNL     1       7.892   8.731  17.689  0.00  0.00    +0.000 C 
BRANCH  18  19
ATOM     19  C   UNL     1       8.697   9.595  18.682  0.00  0.00    +0.000 C 
BRANCH  19  20
ATOM     20  C   UNL     1       9.331  10.875  18.182  0.00  0.00    +0.000 A 
ATOM     21  C   UNL     1       8.505  11.985  17.910  0.00  0.00    +0.000 A 
ATOM     22  C   UNL     1       9.057  13.211  17.532  0.00  0.00    +0.000 A 
ATOM     23  C   UNL     1      10.432  13.348  17.426  0.00  0.00    +0.000 A 
ATOM     24  C   UNL     1      11.262  12.261  17.688  0.00  0.00    +0.000 A 
ATOM     25  C   UNL     1      10.713  11.028  18.067  0.00  0.00    +0.000 A 
ENDBRANCH  19  20
ENDBRANCH  18  19
ENDBRANCH  15  18
ENDBRANCH   3  12
BRANCH   1  26
ATOM     26  C   UNL     1       2.324   5.963  17.853  0.00  0.00    +0.000 C 
BRANCH  26  31
ATOM     27  F   UNL     1       0.932  10.733  20.538  0.00  0.00    +0.000 F 
ATOM     28  C   UNL     1       1.325   9.622  19.909  0.00  0.00    +0.000 A 
ATOM     29  C   UNL     1       1.453   9.622  18.526  0.00  0.00    +0.000 A 
ATOM     30  C   UNL     1       1.823   8.451  17.860  0.00  0.00    +0.000 A 
ATOM     31  C   UNL     1       2.058   7.267  18.575  0.00  0.00    +0.000 A 
ATOM     32  C   UNL     1       1.969   7.302  19.982  0.00  0.00    +0.000 A 
ATOM     33  C   UNL     1       1.594   8.474  20.646  0.00  0.00    +0.000 A 
ENDBRANCH  26  31
ENDBRANCH   1  26
TORSDOF 6
ENDMDL
MODEL 4
REMARK VINA RESULT:      -9.1      3.256      7.721
REMARK  Name = 
REMARK  6 active torsions:
REMARK  status: ('A' for Active; 'I' for Inactive)
REMARK    1  A    between atoms: C_5  and  C_6
REMARK    2  A    between atoms: C_6  and  N_7
REMARK    3  A    between atoms: N_9  and  C_10
REMARK    4  A    between atoms: N_13  and  C_14
REMARK    5  A    between atoms: C_14  and  C_15
REMARK    6  A    between atoms: C_15  and  C_16
REMARK                            x       y       z     vdW  Elec       q    Type
REMARK                         _______ _______ _______ _____ _____    ______ ____
ROOT
ATOM      1  N   UNL     1       3.189   4.903  19.656  0.00  0.00    +0.000 N 
ATOM      2  C   UNL     1       4.275   4.528  18.877  0.00  0.00    +0.000 A 
ATOM      3  N   UNL     1       5.368   5.331  18.738  0.00  0.00    +0.000 N 
ATOM      4  N   UNL     1       4.059   3.342  18.337  0.00  0.00    +0.000 NA
ATOM      5  C   UNL     1       2.765   3.007  18.663  0.00  0.00    +0.000 A 
ATOM      6  C   UNL     1       1.967   1.900  18.339  0.00  0.00    +0.000 A 
ATOM      7  C   UNL     1       0.640   1.910  18.782  0.00  0.00    +0.000 A 
ATOM      8  C   UNL     1       0.174   2.997  19.515  0.00  0.00    +0.000 A 
ATOM      9  N   UNL     1       0.913   4.067  19.887  0.00  0.00    +0.000 NA
ATOM     10  C   UNL     1       2.182   3.997  19.437  0.00  0.00    +0.000 A 
ATOM     11  H   UNL     1       5.151   6.324  18.694  0.00  0.00    +0.000 HD
ENDROOT
BRANCH   3  12
ATOM     12  C   UNL     1       6.465   5.016  17.790  0.00  0.00    +0.000 C 
ATOM     13  C   UNL     1       7.883   5.153  18.335  0.00  0.00    +0.000 C 
ATOM     14  C   UNL     1       8.234   6.593  18.733  0.00  0.00    +0.000 C 
ATOM     15  N   UNL     1       7.948   7.625  17.723  0.00  0.00    +0.000 NA
ATOM     16  C   UNL     1       6.682   7.408  16.998  0.00  0.00    +0.000 C 
ATOM     17  C   UNL     1       6.388   5.966  16.586  0.00  0.00    +0.000 C 
BRANCH  15  18
ATOM     18  C   UNL     1       7.876   8.982  18.339  0.00  0.00    +0.000 C 
BRANCH  18  19
ATOM     19  C   UNL     1       8.589  10.186  17.690  0.00  0.00    +0.000 C 
BRANCH  19  20
ATOM     20  C   UNL     1       9.612  10.949  18.503  0.00  0.00    +0.000 A 
ATOM     21  C   UNL     1       9.458  11.016  19.904  0.00  0.00    +0.000 A 
ATOM     22  C   UNL     1      10.425  11.634  20.699  0.00  0.00    +0.000 A 
ATOM     23  C   UNL     1      11.554  12.186  20.115  0.00  0.00    +0.000 A 
ATOM     24  C   UNL     1      11.720  12.131  18.733  0.00  0.00    +0.000 A 
ATOM     25  C   UNL     1      10.752  11.513  17.930  0.00  0.00    +0.000 A 
ENDBRANCH  19  20
ENDBRANCH  18  19
ENDBRANCH  15  18
ENDBRANCH   3  12
BRANCH   1  26
ATOM     26  C   UNL     1       3.011   6.074  20.493  0.00  0.00    +0.000 C 
BRANCH  26  31
ATOM     27  F   UNL     1       0.743  10.592  17.974  0.00  0.00    +0.000 F 
ATOM     28  C   UNL     1       1.226   9.488  18.552  0.00  0.00    +0.000 A 
ATOM     29  C   UNL     1       0.953   9.236  19.890  0.00  0.00    +0.000 A 
ATOM     30  C   UNL     1       1.489   8.106  20.510  0.00  0.00    +0.000 A 
ATOM     31  C   UNL     1       2.314   7.223  19.796  0.00  0.00    +0.000 A 
ATOM     32  C   UNL     1       2.540   7.473  18.426  0.00  0.00    +0.000 A 
ATOM     33  C   UNL     1       2.005   8.608  17.809  0.00  0.00    +0.000 A 
ENDBRANCH  26  31
ENDBRANCH   1  26
TORSDOF 6
ENDMDL
MODEL 5
REMARK VINA RESULT:      -9.0      3.279      7.608
REMARK  Name = 
REMARK  6 active torsions:
REMARK  status: ('A' for Active; 'I' for Inactive)
REMARK    1  A    between atoms: C_5  and  C_6
REMARK    2  A    between atoms: C_6  and  N_7
REMARK    3  A    between atoms: N_9  and  C_10
REMARK    4  A    between atoms: N_13  and  C_14
REMARK    5  A    between atoms: C_14  and  C_15
REMARK    6  A    between atoms: C_15  and  C_16
REMARK                            x       y       z     vdW  Elec       q    Type
REMARK                         _______ _______ _______ _____ _____    ______ ____
ROOT
ATOM      1  N   UNL     1       3.194   4.929  19.630  0.00  0.00    +0.000 N 
ATOM      2  C   UNL     1       4.268   4.531  18.845  0.00  0.00    +0.000 A 
ATOM      3  N   UNL     1       5.376   5.312  18.700  0.00  0.00    +0.000 N 
ATOM      4  N   UNL     1       4.023   3.351  18.306  0.00  0.00    +0.000 NA
ATOM      5  C   UNL     1       2.725   3.043  18.640  0.00  0.00    +0.000 A 
ATOM      6  C   UNL     1       1.901   1.953  18.320  0.00  0.00    +0.000 A 
ATOM      7  C   UNL     1       0.577   1.991  18.771  0.00  0.00    +0.000 A 
ATOM      8  C   UNL     1       0.139   3.088  19.507  0.00  0.00    +0.000 A 
ATOM      9  N   UNL     1       0.903   4.141  19.875  0.00  0.00    +0.000 NA
ATOM     10  C   UNL     1       2.168   4.044  19.417  0.00  0.00    +0.000 A 
ATOM     11  H   UNL     1       5.180   6.309  18.658  0.00  0.00    +0.000 HD
ENDROOT
BRANCH   3  12
ATOM     12  C   UNL     1       6.460   4.973  17.745  0.00  0.00    +0.000 C 
ATOM     13  C   UNL     1       7.885   5.219  18.233  0.00  0.00    +0.000 C 
ATOM     14  C   UNL     1       8.176   6.701  18.507  0.00  0.00    +0.000 C 
ATOM     15  N   UNL     1       7.812   7.636  17.429  0.00  0.00    +0.000 NA
ATOM     16  C   UNL     1       6.538   7.303  16.764  0.00  0.00    +0.000 C 
ATOM     17  C   UNL     1       6.304   5.821  16.474  0.00  0.00    +0.000 C 
BRANCH  15  18
ATOM     18  C   UNL     1       7.691   9.031  17.940  0.00  0.00    +0.000 C 
BRANCH  18  19
ATOM     19  C   UNL     1       8.831   9.679  18.755  0.00  0.00    +0.000 C 
BRANCH  19  20
ATOM     20  C   UNL     1       9.454  10.959  18.241  0.00  0.00    +0.000 A 
ATOM     21  C   UNL     1       8.611  12.027  17.869  0.00  0.00    +0.000 A 
ATOM     22  C   UNL     1       9.146  13.255  17.474  0.00  0.00    +0.000 A 
ATOM     23  C   UNL     1      10.520  13.436  17.450  0.00  0.00    +0.000 A 
ATOM     24  C   UNL     1      11.366  12.390  17.811  0.00  0.00    +0.000 A 
ATOM     25  C   UNL     1      10.834  11.156  18.207  0.00  0.00    +0.000 A 
ENDBRANCH  19  20
ENDBRANCH  18  19
ENDBRANCH  15  18
ENDBRANCH   3  12
BRANCH   1  26
ATOM     26  C   UNL     1       3.046   6.103  20.469  0.00  0.00    +0.000 C 
BRANCH  26  31
ATOM     27  F   UNL     1       0.354  10.269  17.767  0.00  0.00    +0.000 F 
ATOM     28  C   UNL     1       1.042   9.325  18.417  0.00  0.00    +0.000 A 
ATOM     29  C   UNL     1       1.887   8.481  17.712  0.00  0.00    +0.000 A 
ATOM     30  C   UNL     1       2.576   7.465  18.380  0.00  0.00    +0.000 A 
ATOM     31  C   UNL     1       2.413   7.283  19.762  0.00  0.00    +0.000 A 
ATOM     32  C   UNL     1       1.586   8.182  20.466  0.00  0.00    +0.000 A 
ATOM     33  C   UNL     1       0.894   9.194  19.794  0.00  0.00    +0.000 A 
ENDBRANCH  26  31
ENDBRANCH   1  26
TORSDOF 6
ENDMDL
MODEL 6
REMARK VINA RESULT:      -9.0      3.427      7.602
REMARK  Name = 
REMARK  6 active torsions:
REMARK  status: ('A' for Active; 'I' for Inactive)
REMARK    1  A    between atoms: C_5  and  C_6
REMARK    2  A    between atoms: C_6  and  N_7
REMARK    3  A    between atoms: N_9  and  C_10
REMARK    4  A    between atoms: N_13  and  C_14
REMARK    5  A    between atoms: C_14  and  C_15
REMARK    6  A    between atoms: C_15  and  C_16
REMARK                            x       y       z     vdW  Elec       q    Type
REMARK                         _______ _______ _______ _____ _____    ______ ____
ROOT
ATOM      1  N   UNL     1       3.031   5.018  18.570  0.00  0.00    +0.000 N 
ATOM      2  C   UNL     1       4.370   4.669  18.463  0.00  0.00    +0.000 A 
ATOM      3  N   UNL     1       5.173   5.196  17.495  0.00  0.00    +0.000 N 
ATOM      4  N   UNL     1       4.687   3.794  19.401  0.00  0.00    +0.000 NA
ATOM      5  C   UNL     1       3.510   3.475  20.036  0.00  0.00    +0.000 A 
ATOM      6  C   UNL     1       3.210   2.578  21.073  0.00  0.00    +0.000 A 
ATOM      7  C   UNL     1       1.865   2.441  21.436  0.00  0.00    +0.000 A 
ATOM      8  C   UNL     1       0.899   3.186  20.769  0.00  0.00    +0.000 A 
ATOM      9  N   UNL     1       1.141   4.091  19.794  0.00  0.00    +0.000 NA
ATOM     10  C   UNL     1       2.452   4.184  19.492  0.00  0.00    +0.000 A 
ATOM     11  H   UNL     1       4.709   5.333  16.600  0.00  0.00    +0.000 HD
ENDROOT
BRANCH   3  12
ATOM     12  C   UNL     1       6.560   4.718  17.272  0.00  0.00    +0.000 C 
ATOM     13  C   UNL     1       7.482   4.746  18.487  0.00  0.00    +0.000 C 
ATOM     14  C   UNL     1       7.734   6.165  19.014  0.00  0.00    +0.000 C 
ATOM     15  N   UNL     1       8.145   7.159  18.008  0.00  0.00    +0.000 NA
ATOM     16  C   UNL     1       7.435   7.026  16.722  0.00  0.00    +0.000 C 
ATOM     17  C   UNL     1       7.239   5.598  16.213  0.00  0.00    +0.000 C 
BRANCH  15  18
ATOM     18  C   UNL     1       7.915   8.550  18.496  0.00  0.00    +0.000 C 
BRANCH  18  19
ATOM     19  C   UNL     1       8.504   9.761  17.744  0.00  0.00    +0.000 C 
BRANCH  19  20
ATOM     20  C   UNL     1       9.436  10.694  18.486  0.00  0.00    +0.000 A 
ATOM     21  C   UNL     1       9.344  10.775  19.891  0.00  0.00    +0.000 A 
ATOM     22  C   UNL     1      10.243  11.556  20.622  0.00  0.00    +0.000 A 
ATOM     23  C   UNL     1      11.243  12.257  19.967  0.00  0.00    +0.000 A 
ATOM     24  C   UNL     1      11.346  12.190  18.580  0.00  0.00    +0.000 A 
ATOM     25  C   UNL     1      10.446  11.409  17.842  0.00  0.00    +0.000 A 
ENDBRANCH  19  20
ENDBRANCH  18  19
ENDBRANCH  15  18
ENDBRANCH   3  12
BRANCH   1  26
ATOM     26  C   UNL     1       2.266   5.992  17.815  0.00  0.00    +0.000 C 
BRANCH  26  31
ATOM     27  F   UNL     1       1.012  10.770  20.554  0.00  0.00    +0.000 F 
ATOM     28  C   UNL     1       1.373   9.655  19.914  0.00  0.00    +0.000 A 
ATOM     29  C   UNL     1       1.525   9.671  18.534  0.00  0.00    +0.000 A 
ATOM     30  C   UNL     1       1.862   8.498  17.855  0.00  0.00    +0.000 A 
ATOM     31  C   UNL     1       2.038   7.294  18.554  0.00  0.00    +0.000 A 
ATOM     32  C   UNL     1       1.925   7.310  19.960  0.00  0.00    +0.000 A 
ATOM     33  C   UNL     1       1.583   8.485  20.636  0.00  0.00    +0.000 A 
ENDBRANCH  26  31
ENDBRANCH   1  26
TORSDOF 6
ENDMDL
MODEL 7
REMARK VINA RESULT:      -8.8      0.520      1.045
REMARK  Name = 
REMARK  6 active torsions:
REMARK  status: ('A' for Active; 'I' for Inactive)
REMARK    1  A    between atoms: C_5  and  C_6
REMARK    2  A    between atoms: C_6  and  N_7
REMARK    3  A    between atoms: N_9  and  C_10
REMARK    4  A    between atoms: N_13  and  C_14
REMARK    5  A    between atoms: C_14  and  C_15
REMARK    6  A    between atoms: C_15  and  C_16
REMARK                            x       y       z     vdW  Elec       q    Type
REMARK                         _______ _______ _______ _____ _____    ______ ____
ROOT
ATOM      1  N   UNL     1       5.532   5.063  16.734  0.00  0.00    +0.000 N 
ATOM      2  C   UNL     1       5.191   4.048  17.618  0.00  0.00    +0.000 A 
ATOM      3  N   UNL     1       4.164   3.189  17.360  0.00  0.00    +0.000 N 
ATOM      4  N   UNL     1       5.986   4.078  18.672  0.00  0.00    +0.000 NA
ATOM      5  C   UNL     1       6.761   5.205  18.531  0.00  0.00    +0.000 A 
ATOM      6  C   UNL     1       7.746   5.782  19.348  0.00  0.00    +0.000 A 
ATOM      7  C   UNL     1       8.296   6.999  18.932  0.00  0.00    +0.000 A 
ATOM      8  C   UNL     1       7.855   7.577  17.746  0.00  0.00    +0.000 A 
ATOM      9  N   UNL     1       6.941   7.042  16.905  0.00  0.00    +0.000 NA
ATOM     10  C   UNL     1       6.452   5.869  17.356  0.00  0.00    +0.000 A 
ATOM     11  H   UNL     1       3.367   3.621  16.899  0.00  0.00    +0.000 HD
ENDROOT
BRANCH   3  12
ATOM     12  C   UNL     1       3.689   2.202  18.361  0.00  0.00    +0.000 C 
ATOM     13  C   UNL     1       2.177   2.075  18.513  0.00  0.00    +0.000 C 
ATOM     14  C   UNL     1       1.517   3.363  19.023  0.00  0.00    +0.000 C 
ATOM     15  N   UNL     1       2.125   3.964  20.222  0.00  0.00    +0.000 NA
ATOM     16  C   UNL     1       3.599   3.904  20.229  0.00  0.00    +0.000 C 
ATOM     17  C   UNL     1       4.216   2.591  19.750  0.00  0.00    +0.000 C 
BRANCH  15  18
ATOM     18  C   UNL     1       1.741   5.398  20.364  0.00  0.00    +0.000 C 
BRANCH  18  19
ATOM     19  C   UNL     1       2.503   6.501  19.600  0.00  0.00    +0.000 C 
BRANCH  19  20
ATOM     20  C   UNL     1       1.869   7.870  19.479  0.00  0.00    +0.000 A 
ATOM     21  C   UNL     1       1.200   8.414  20.595  0.00  0.00    +0.000 A 
ATOM     22  C   UNL     1       0.679   9.709  20.554  0.00  0.00    +0.000 A 
ATOM     23  C   UNL     1       0.820  10.476  19.409  0.00  0.00    +0.000 A 
ATOM     24  C   UNL     1       1.474   9.953  18.297  0.00  0.00    +0.000 A 
ATOM     25  C   UNL     1       1.999   8.654  18.332  0.00  0.00    +0.000 A 
ENDBRANCH  19  20
ENDBRANCH  18  19
ENDBRANCH  15  18
ENDBRANCH   3  12
BRANCH   1  26
ATOM     26  C   UNL     1       4.996   5.366  15.421  0.00  0.00    +0.000 C 
BRANCH  26  31
ATOM     27  F   UNL     1       7.565   3.050  10.956  0.00  0.00    +0.000 F 
ATOM     28  C   UNL     1       6.980   3.548  12.050  0.00  0.00    +0.000 A 
ATOM     29  C   UNL     1       5.677   3.183  12.360  0.00  0.00    +0.000 A 
ATOM     30  C   UNL     1       5.047   3.732  13.479  0.00  0.00    +0.000 A 
ATOM     31  C   UNL     1       5.716   4.662  14.290  0.00  0.00    +0.000 A 
ATOM     32  C   UNL     1       7.054   4.983  13.983  0.00  0.00    +0.000 A 
ATOM     33  C   UNL     1       7.681   4.434  12.860  0.00  0.00    +0.000 A 
ENDBRANCH  26  31
ENDBRANCH   1  26
TORSDOF 6
ENDMDL
MODEL 8
REMARK VINA RESULT:      -8.8      2.910      8.110
REMARK  Name = 
REMARK  6 active torsions:
REMARK  status: ('A' for Active; 'I' for Inactive)
REMARK    1  A    between atoms: C_5  and  C_6
REMARK    2  A    between atoms: C_6  and  N_7
REMARK    3  A    between atoms: N_9  and  C_10
REMARK    4  A    between atoms: N_13  and  C_14
REMARK    5  A    between atoms: C_14  and  C_15
REMARK    6  A    between atoms: C_15  and  C_16
REMARK                            x       y       z     vdW  Elec       q    Type
REMARK                         _______ _______ _______ _____ _____    ______ ____
ROOT
ATOM      1  N   UNL     1       3.025   5.477  18.828  0.00  0.00    +0.000 N 
ATOM      2  C   UNL     1       4.388   5.311  19.034  0.00  0.00    +0.000 A 
ATOM      3  N   UNL     1       5.309   6.058  18.361  0.00  0.00    +0.000 N 
ATOM      4  N   UNL     1       4.599   4.364  19.930  0.00  0.00    +0.000 NA
ATOM      5  C   UNL     1       3.366   3.822  20.207  0.00  0.00    +0.000 A 
ATOM      6  C   UNL     1       2.966   2.764  21.038  0.00  0.00    +0.000 A 
ATOM      7  C   UNL     1       1.611   2.415  21.029  0.00  0.00    +0.000 A 
ATOM      8  C   UNL     1       0.731   3.119  20.214  0.00  0.00    +0.000 A 
ATOM      9  N   UNL     1       1.059   4.170  19.429  0.00  0.00    +0.000 NA
ATOM     10  C   UNL     1       2.375   4.462  19.483  0.00  0.00    +0.000 A 
ATOM     11  H   UNL     1       5.058   6.257  17.396  0.00  0.00    +0.000 HD
ENDROOT
BRANCH   3  12
ATOM     12  C   UNL     1       6.765   5.787  18.455  0.00  0.00    +0.000 C 
ATOM     13  C   UNL     1       7.677   6.756  17.708  0.00  0.00    +0.000 C 
ATOM     14  C   UNL     1       7.463   6.729  16.189  0.00  0.00    +0.000 C 
ATOM     15  N   UNL     1       7.474   5.396  15.564  0.00  0.00    +0.000 NA
ATOM     16  C   UNL     1       6.794   4.361  16.366  0.00  0.00    +0.000 C 
ATOM     17  C   UNL     1       7.065   4.399  17.870  0.00  0.00    +0.000 C 
BRANCH  15  18
ATOM     18  C   UNL     1       6.814   5.420  14.226  0.00  0.00    +0.000 C 
BRANCH  18  19
ATOM     19  C   UNL     1       7.527   4.852  12.981  0.00  0.00    +0.000 C 
BRANCH  19  20
ATOM     20  C   UNL     1       6.880   3.707  12.232  0.00  0.00    +0.000 A 
ATOM     21  C   UNL     1       7.703   2.743  11.615  0.00  0.00    +0.000 A 
ATOM     22  C   UNL     1       7.148   1.624  10.991  0.00  0.00    +0.000 A 
ATOM     23  C   UNL     1       5.774   1.449  10.978  0.00  0.00    +0.000 A 
ATOM     24  C   UNL     1       4.946   2.394  11.580  0.00  0.00    +0.000 A 
ATOM     25  C   UNL     1       5.498   3.519  12.207  0.00  0.00    +0.000 A 
ENDBRANCH  19  20
ENDBRANCH  18  19
ENDBRANCH  15  18
ENDBRANCH   3  12
BRANCH   1  26
ATOM     26  C   UNL     1       2.324   6.443  18.004  0.00  0.00    +0.000 C 
BRANCH  26  31
ATOM     27  F   UNL     1       0.481  11.038  20.723  0.00  0.00    +0.000 F 
ATOM     28  C   UNL     1       0.979   9.972  20.089  0.00  0.00    +0.000 A 
ATOM     29  C   UNL     1       1.175  10.017  18.716  0.00  0.00    +0.000 A 
ATOM     30  C   UNL     1       1.657   8.892  18.042  0.00  0.00    +0.000 A 
ATOM     31  C   UNL     1       1.935   7.707  18.741  0.00  0.00    +0.000 A 
ATOM     32  C   UNL     1       1.773   7.699  20.142  0.00  0.00    +0.000 A 
ATOM     33  C   UNL     1       1.287   8.825  20.813  0.00  0.00    +0.000 A 
ENDBRANCH  26  31
ENDBRANCH   1  26
TORSDOF 6
ENDMDL
MODEL 9
REMARK VINA RESULT:      -8.6      3.386      6.230
REMARK  Name = 
REMARK  6 active torsions:
REMARK  status: ('A' for Active; 'I' for Inactive)
REMARK    1  A    between atoms: C_5  and  C_6
REMARK    2  A    between atoms: C_6  and  N_7
REMARK    3  A    between atoms: N_9  and  C_10
REMARK    4  A    between atoms: N_13  and  C_14
REMARK    5  A    between atoms: C_14  and  C_15
REMARK    6  A    between atoms: C_15  and  C_16
REMARK                            x       y       z     vdW  Elec       q    Type
REMARK                         _______ _______ _______ _____ _____    ______ ____
ROOT
ATOM      1  N   UNL     1       2.441   5.848  18.963  0.00  0.00    +0.000 N 
ATOM      2  C   UNL     1       1.760   6.344  20.066  0.00  0.00    +0.000 A 
ATOM      3  N   UNL     1       1.862   7.650  20.442  0.00  0.00    +0.000 N 
ATOM      4  N   UNL     1       1.058   5.381  20.636  0.00  0.00    +0.000 NA
ATOM      5  C   UNL     1       1.393   4.224  19.973  0.00  0.00    +0.000 A 
ATOM      6  C   UNL     1       1.008   2.886  20.155  0.00  0.00    +0.000 A 
ATOM      7  C   UNL     1       1.609   1.925  19.335  0.00  0.00    +0.000 A 
ATOM      8  C   UNL     1       2.546   2.327  18.388  0.00  0.00    +0.000 A 
ATOM      9  N   UNL     1       2.919   3.604  18.146  0.00  0.00    +0.000 NA
ATOM     10  C   UNL     1       2.303   4.483  18.962  0.00  0.00    +0.000 A 
ATOM     11  H   UNL     1       2.789   8.048  20.316  0.00  0.00    +0.000 HD
ENDROOT
BRANCH   3  12
ATOM     12  C   UNL     1       1.266   8.157  21.703  0.00  0.00    +0.000 C 
ATOM     13  C   UNL     1      -0.251   8.312  21.714  0.00  0.00    +0.000 C 
ATOM     14  C   UNL     1      -0.754   9.352  20.704  0.00  0.00    +0.000 C 
ATOM     15  N   UNL     1      -0.084  10.662  20.746  0.00  0.00    +0.000 NA
ATOM     16  C   UNL     1       1.372  10.574  20.967  0.00  0.00    +0.000 C 
ATOM     17  C   UNL     1       1.829   9.553  22.008  0.00  0.00    +0.000 C 
BRANCH  15  18
ATOM     18  C   UNL     1      -0.293  11.419  19.478  0.00  0.00    +0.000 C 
BRANCH  18  19
ATOM     19  C   UNL     1      -0.779  10.704  18.200  0.00  0.00    +0.000 C 
BRANCH  19  20
ATOM     20  C   UNL     1      -2.170  11.005  17.685  0.00  0.00    +0.000 A 
ATOM     21  C   UNL     1      -2.502  10.642  16.363  0.00  0.00    +0.000 A 
ATOM     22  C   UNL     1      -3.799  10.822  15.877  0.00  0.00    +0.000 A 
ATOM     23  C   UNL     1      -4.778  11.356  16.699  0.00  0.00    +0.000 A 
ATOM     24  C   UNL     1      -4.466  11.722  18.006  0.00  0.00    +0.000 A 
ATOM     25  C   UNL     1      -3.166  11.545  18.498  0.00  0.00    +0.000 A 
ENDBRANCH  19  20
ENDBRANCH  18  19
ENDBRANCH  15  18
ENDBRANCH   3  12
BRANCH   1  26
ATOM     26  C   UNL     1       3.265   6.545  17.994  0.00  0.00    +0.000 C 
BRANCH  26  31
ATOM     27  F   UNL     1       8.384   4.179  17.675  0.00  0.00    +0.000 F 
ATOM     28  C   UNL     1       7.202   4.798  17.742  0.00  0.00    +0.000 A 
ATOM     29  C   UNL     1       6.708   5.206  18.974  0.00  0.00    +0.000 A 
ATOM     30  C   UNL     1       5.454   5.817  19.054  0.00  0.00    +0.000 A 
ATOM     31  C   UNL     1       4.680   6.012  17.900  0.00  0.00    +0.000 A 
ATOM     32  C   UNL     1       5.222   5.633  16.654  0.00  0.00    +0.000 A 
ATOM     33  C   UNL     1       6.475   5.019  16.577  0.00  0.00    +0.000 A 
ENDBRANCH  26  31
ENDBRANCH   1  26
TORSDOF 6
ENDMDL
