MODEL 1
REMARK VINA RESULT:      -8.0      0.000      0.000
REMARK  Name = 
REMARK  5 active torsions:
REMARK  status: ('A' for Active; 'I' for Inactive)
REMARK    1  A    between atoms: C_2  and  C_3
REMARK    2  A    between atoms: C_3  and  N_4
REMARK    3  A    between atoms: N_7  and  S_8
REMARK    4  A    between atoms: S_8  and  C_11
REMARK    5  A    between atoms: N_26  and  C_27
REMARK                            x       y       z     vdW  Elec       q    Type
REMARK                         _______ _______ _______ _____ _____    ______ ____
ROOT
ATOM      1  N   UNL     1       3.483  14.155  19.459  0.00  0.00    +0.000 NA
ATOM      2  C   UNL     1       3.153  14.099  20.906  0.00  0.00    +0.000 C 
ATOM      3  C   UNL     1       1.734  14.562  21.307  0.00  0.00    +0.000 C 
ATOM      4  N   UNL     1       0.675  13.854  20.532  0.00  0.00    +0.000 NA
ATOM      5  C   UNL     1       0.940  13.961  19.067  0.00  0.00    +0.000 C 
ATOM      6  C   UNL     1       2.372  13.494  18.704  0.00  0.00    +0.000 C 
ENDROOT
BRANCH   4   7
ATOM      7  S   UNL     1       0.224  12.297  21.071  0.00  0.00    +0.000 S 
ATOM      8  O   UNL     1       1.429  11.529  21.287  0.00  0.00    +0.000 OA
ATOM      9  O   UNL     1      -0.758  12.451  22.125  0.00  0.00    +0.000 OA
BRANCH   7  10
ATOM     10  C   UNL     1      -0.588  11.598  19.654  0.00  0.00    +0.000 A 
ATOM     11  C   UNL     1       0.057  10.582  18.946  0.00  0.00    +0.000 A 
ATOM     12  C   UNL     1      -0.584   9.996  17.854  0.00  0.00    +0.000 A 
ATOM     13  C   UNL     1      -1.874  10.403  17.473  0.00  0.00    +0.000 A 
ATOM     14  C   UNL     1      -2.534   9.804  16.389  0.00  0.00    +0.000 A 
ATOM     15  C   UNL     1      -3.826  10.194  16.036  0.00  0.00    +0.000 A 
ATOM     16  C   UNL     1      -4.475  11.191  16.759  0.00  0.00    +0.000 A 
ATOM     17  C   UNL     1      -3.828  11.807  17.833  0.00  0.00    +0.000 A 
ATOM     18  C   UNL     1      -2.527  11.426  18.204  0.00  0.00    +0.000 A 
ATOM     19  C   UNL     1      -1.869  12.025  19.290  0.00  0.00    +0.000 A 
ENDBRANCH   7  10
ENDBRANCH   4   7
BRANCH   1  20
ATOM     20  C   UNL     1       3.660  15.535  18.951  0.00  0.00    +0.000 C 
BRANCH  20  22
ATOM     21  O   UNL     1       5.360  17.163  18.610  0.00  0.00    +0.000 OA
ATOM     22  C   UNL     1       5.115  15.965  18.753  0.00  0.00    +0.000 C 
ATOM     23  N   UNL     1       6.049  14.949  18.704  0.00  0.00    +0.000 N 
ATOM     24  C   UNL     1       7.404  15.171  18.563  0.00  0.00    +0.000 C 
ATOM     25  O   UNL     1       7.936  16.258  18.387  0.00  0.00    +0.000 OA
ATOM     26  N   UNL     1       8.134  13.998  18.610  0.00  0.00    +0.000 N 
ATOM     27  H   UNL     1       5.711  14.002  18.748  0.00  0.00    +0.000 HD
ATOM     28  H   UNL     1       7.804  13.332  19.293  0.00  0.00    +0.000 HD
BRANCH  26  29
ATOM     29  C   UNL     1       9.595  14.017  18.408  0.00  0.00    +0.000 C 
ATOM     30  C   UNL     1      10.323  14.021  19.760  0.00  0.00    +0.000 C 
ATOM     31  C   UNL     1      10.102  12.716  20.527  0.00  0.00    +0.000 C 
ATOM     32  C   UNL     1      10.485  11.489  19.701  0.00  0.00    +0.000 C 
ATOM     33  C   UNL     1       9.848  11.494  18.314  0.00  0.00    +0.000 C 
ATOM     34  C   UNL     1      10.098  12.813  17.587  0.00  0.00    +0.000 C 
ENDBRANCH  26  29
ENDBRANCH  20  22
ENDBRANCH   1  20
TORSDOF 5
ENDMDL
MODEL 2
REMARK VINA RESULT:      -7.9      5.433      7.791
REMARK  Name = 
REMARK  5 active torsions:
REMARK  status: ('A' for Active; 'I' for Inactive)
REMARK    1  A    between atoms: C_2  and  C_3
REMARK    2  A    between atoms: C_3  and  N_4
REMARK    3  A    between atoms: N_7  and  S_8
REMARK    4  A    between atoms: S_8  and  C_11
REMARK    5  A    between atoms: N_26  and  C_27
REMARK                            x       y       z     vdW  Elec       q    Type
REMARK                         _______ _______ _______ _____ _____    ______ ____
ROOT
ATOM      1  N   UNL     1       0.969  11.096  19.923  0.00  0.00    +0.000 NA
ATOM      2  C   UNL     1       1.256  12.553  19.883  0.00  0.00    +0.000 C 
ATOM      3  C   UNL     1       0.074  13.479  19.518  0.00  0.00    +0.000 C 
ATOM      4  N   UNL     1      -1.115  13.234  20.383  0.00  0.00    +0.000 NA
ATOM      5  C   UNL     1      -1.475  11.786  20.380  0.00  0.00    +0.000 C 
ATOM      6  C   UNL     1      -0.265  10.890  20.745  0.00  0.00    +0.000 C 
ENDROOT
BRANCH   4   7
ATOM      7  S   UNL     1      -1.126  13.975  21.923  0.00  0.00    +0.000 S 
ATOM      8  O   UNL     1      -0.161  13.293  22.757  0.00  0.00    +0.000 OA
ATOM      9  O   UNL     1      -1.061  15.410  21.733  0.00  0.00    +0.000 OA
BRANCH   7  10
ATOM     10  C   UNL     1      -2.735  13.571  22.556  0.00  0.00    +0.000 A 
ATOM     11  C   UNL     1      -2.825  12.756  23.685  0.00  0.00    +0.000 A 
ATOM     12  C   UNL     1      -4.080  12.460  24.218  0.00  0.00    +0.000 A 
ATOM     13  C   UNL     1      -5.248  12.988  23.643  0.00  0.00    +0.000 A 
ATOM     14  C   UNL     1      -6.513  12.713  24.185  0.00  0.00    +0.000 A 
ATOM     15  C   UNL     1      -7.666  13.266  23.624  0.00  0.00    +0.000 A 
ATOM     16  C   UNL     1      -7.570  14.097  22.512  0.00  0.00    +0.000 A 
ATOM     17  C   UNL     1      -6.320  14.370  21.952  0.00  0.00    +0.000 A 
ATOM     18  C   UNL     1      -5.149  13.825  22.503  0.00  0.00    +0.000 A 
ATOM     19  C   UNL     1      -3.884  14.103  21.961  0.00  0.00    +0.000 A 
ENDBRANCH   7  10
ENDBRANCH   4   7
BRANCH   1  20
ATOM     20  C   UNL     1       0.764  10.503  18.582  0.00  0.00    +0.000 C 
BRANCH  20  22
ATOM     21  O   UNL     1       2.507   9.571  17.259  0.00  0.00    +0.000 OA
ATOM     22  C   UNL     1       1.749   9.392  18.213  0.00  0.00    +0.000 C 
ATOM     23  N   UNL     1       1.677   8.238  18.967  0.00  0.00    +0.000 N 
ATOM     24  C   UNL     1       2.516   7.158  18.783  0.00  0.00    +0.000 C 
ATOM     25  O   UNL     1       3.357   7.048  17.902  0.00  0.00    +0.000 OA
ATOM     26  N   UNL     1       2.288   6.154  19.706  0.00  0.00    +0.000 N 
ATOM     27  H   UNL     1       0.954   8.182  19.666  0.00  0.00    +0.000 HD
ATOM     28  H   UNL     1       2.096   6.486  20.639  0.00  0.00    +0.000 HD
BRANCH  26  29
ATOM     29  C   UNL     1       3.036   4.886  19.633  0.00  0.00    +0.000 C 
ATOM     30  C   UNL     1       2.670   3.978  20.817  0.00  0.00    +0.000 C 
ATOM     31  C   UNL     1       1.213   3.518  20.750  0.00  0.00    +0.000 C 
ATOM     32  C   UNL     1       0.880   2.845  19.419  0.00  0.00    +0.000 C 
ATOM     33  C   UNL     1       1.310   3.681  18.216  0.00  0.00    +0.000 C 
ATOM     34  C   UNL     1       2.771   4.112  18.327  0.00  0.00    +0.000 C 
ENDBRANCH  26  29
ENDBRANCH  20  22
ENDBRANCH   1  20
TORSDOF 5
ENDMDL
MODEL 3
REMARK VINA RESULT:      -7.9      2.347      3.277
REMARK  Name = 
REMARK  5 active torsions:
REMARK  status: ('A' for Active; 'I' for Inactive)
REMARK    1  A    between atoms: C_2  and  C_3
REMARK    2  A    between atoms: C_3  and  N_4
REMARK    3  A    between atoms: N_7  and  S_8
REMARK    4  A    between atoms: S_8  and  C_11
REMARK    5  A    between atoms: N_26  and  C_27
REMARK                            x       y       z     vdW  Elec       q    Type
REMARK                         _______ _______ _______ _____ _____    ______ ____
ROOT
ATOM      1  N   UNL     1       2.962  15.363  18.759  0.00  0.00    +0.000 NA
ATOM      2  C   UNL     1       3.064  13.918  19.087  0.00  0.00    +0.000 C 
ATOM      3  C   UNL     1       2.371  13.456  20.388  0.00  0.00    +0.000 C 
ATOM      4  N   UNL     1       0.940  13.873  20.438  0.00  0.00    +0.000 NA
ATOM      5  C   UNL     1       0.814  15.339  20.189  0.00  0.00    +0.000 C 
ATOM      6  C   UNL     1       1.524  15.765  18.880  0.00  0.00    +0.000 C 
ENDROOT
BRANCH   4   7
ATOM      7  S   UNL     1      -0.185  12.900  19.597  0.00  0.00    +0.000 S 
ATOM      8  O   UNL     1      -1.448  12.965  20.297  0.00  0.00    +0.000 OA
ATOM      9  O   UNL     1      -0.098  13.226  18.187  0.00  0.00    +0.000 OA
BRANCH   7  10
ATOM     10  C   UNL     1       0.450  11.257  19.827  0.00  0.00    +0.000 A 
ATOM     11  C   UNL     1       0.248  10.627  21.055  0.00  0.00    +0.000 A 
ATOM     12  C   UNL     1       0.707   9.323  21.239  0.00  0.00    +0.000 A 
ATOM     13  C   UNL     1       1.350   8.632  20.198  0.00  0.00    +0.000 A 
ATOM     14  C   UNL     1       1.795   7.312  20.367  0.00  0.00    +0.000 A 
ATOM     15  C   UNL     1       2.406   6.624  19.318  0.00  0.00    +0.000 A 
ATOM     16  C   UNL     1       2.584   7.248  18.086  0.00  0.00    +0.000 A 
ATOM     17  C   UNL     1       2.159   8.566  17.904  0.00  0.00    +0.000 A 
ATOM     18  C   UNL     1       1.540   9.274  18.948  0.00  0.00    +0.000 A 
ATOM     19  C   UNL     1       1.093  10.594  18.776  0.00  0.00    +0.000 A 
ENDBRANCH   7  10
ENDBRANCH   4   7
BRANCH   1  20
ATOM     20  C   UNL     1       3.782  16.224  19.642  0.00  0.00    +0.000 C 
BRANCH  20  22
ATOM     21  O   UNL     1       5.579  17.484  18.727  0.00  0.00    +0.000 OA
ATOM     22  C   UNL     1       5.235  16.400  19.198  0.00  0.00    +0.000 C 
ATOM     23  N   UNL     1       6.049  15.291  19.321  0.00  0.00    +0.000 N 
ATOM     24  C   UNL     1       7.390  15.295  18.994  0.00  0.00    +0.000 C 
ATOM     25  O   UNL     1       8.001  16.227  18.492  0.00  0.00    +0.000 OA
ATOM     26  N   UNL     1       7.999  14.084  19.270  0.00  0.00    +0.000 N 
ATOM     27  H   UNL     1       5.626  14.435  19.640  0.00  0.00    +0.000 HD
ATOM     28  H   UNL     1       7.694  13.655  20.131  0.00  0.00    +0.000 HD
BRANCH  26  29
ATOM     29  C   UNL     1       9.416  13.864  18.927  0.00  0.00    +0.000 C 
ATOM     30  C   UNL     1      10.190  13.348  20.149  0.00  0.00    +0.000 C 
ATOM     31  C   UNL     1       9.721  11.954  20.571  0.00  0.00    +0.000 C 
ATOM     32  C   UNL     1       9.782  10.952  19.419  0.00  0.00    +0.000 C 
ATOM     33  C   UNL     1       9.097  11.468  18.156  0.00  0.00    +0.000 C 
ATOM     34  C   UNL     1       9.600  12.859  17.774  0.00  0.00    +0.000 C 
ENDBRANCH  26  29
ENDBRANCH  20  22
ENDBRANCH   1  20
TORSDOF 5
ENDMDL
MODEL 4
REMARK VINA RESULT:      -7.9      5.528      7.940
REMARK  Name = 
REMARK  5 active torsions:
REMARK  status: ('A' for Active; 'I' for Inactive)
REMARK    1  A    between atoms: C_2  and  C_3
REMARK    2  A    between atoms: C_3  and  N_4
REMARK    3  A    between atoms: N_7  and  S_8
REMARK    4  A    between atoms: S_8  and  C_11
REMARK    5  A    between atoms: N_26  and  C_27
REMARK                            x       y       z     vdW  Elec       q    Type
REMARK                         _______ _______ _______ _____ _____    ______ ____
ROOT
ATOM      1  N   UNL     1       1.347  10.741  19.244  0.00  0.00    +0.000 NA
ATOM      2  C   UNL     1       0.814  12.108  19.012  0.00  0.00    +0.000 C 
ATOM      3  C   UNL     1      -0.719  12.273  19.099  0.00  0.00    +0.000 C 
ATOM      4  N   UNL     1      -1.268  11.740  20.379  0.00  0.00    +0.000 NA
ATOM      5  C   UNL     1      -0.811  10.337  20.601  0.00  0.00    +0.000 C 
ATOM      6  C   UNL     1       0.730  10.210  20.501  0.00  0.00    +0.000 C 
ENDROOT
BRANCH   4   7
ATOM      7  S   UNL     1      -1.170  12.754  21.751  0.00  0.00    +0.000 S 
ATOM      8  O   UNL     1      -0.330  12.104  22.732  0.00  0.00    +0.000 OA
ATOM      9  O   UNL     1      -0.879  14.100  21.297  0.00  0.00    +0.000 OA
BRANCH   7  10
ATOM     10  C   UNL     1      -2.826  12.731  22.391  0.00  0.00    +0.000 A 
ATOM     11  C   UNL     1      -3.009  12.702  23.774  0.00  0.00    +0.000 A 
ATOM     12  C   UNL     1      -4.303  12.722  24.294  0.00  0.00    +0.000 A 
ATOM     13  C   UNL     1      -5.420  12.790  23.443  0.00  0.00    +0.000 A 
ATOM     14  C   UNL     1      -6.725  12.832  23.959  0.00  0.00    +0.000 A 
ATOM     15  C   UNL     1      -7.826  12.930  23.107  0.00  0.00    +0.000 A 
ATOM     16  C   UNL     1      -7.639  12.982  21.729  0.00  0.00    +0.000 A 
ATOM     17  C   UNL     1      -6.347  12.928  21.199  0.00  0.00    +0.000 A 
ATOM     18  C   UNL     1      -5.226  12.832  22.040  0.00  0.00    +0.000 A 
ATOM     19  C   UNL     1      -3.921  12.792  21.523  0.00  0.00    +0.000 A 
ENDBRANCH   7  10
ENDBRANCH   4   7
BRANCH   1  20
ATOM     20  C   UNL     1       1.064   9.805  18.132  0.00  0.00    +0.000 C 
BRANCH  20  22
ATOM     21  O   UNL     1       3.214   9.154  17.351  0.00  0.00    +0.000 OA
ATOM     22  C   UNL     1       2.162   8.773  17.866  0.00  0.00    +0.000 C 
ATOM     23  N   UNL     1       1.860   7.465  18.188  0.00  0.00    +0.000 N 
ATOM     24  C   UNL     1       2.752   6.423  18.039  0.00  0.00    +0.000 C 
ATOM     25  O   UNL     1       3.866   6.500  17.541  0.00  0.00    +0.000 OA
ATOM     26  N   UNL     1       2.236   5.223  18.495  0.00  0.00    +0.000 N 
ATOM     27  H   UNL     1       0.931   7.270  18.523  0.00  0.00    +0.000 HD
ATOM     28  H   UNL     1       1.694   5.302  19.343  0.00  0.00    +0.000 HD
BRANCH  26  29
ATOM     29  C   UNL     1       3.010   3.975  18.359  0.00  0.00    +0.000 C 
ATOM     30  C   UNL     1       3.651   3.592  19.701  0.00  0.00    +0.000 C 
ATOM     31  C   UNL     1       2.598   3.228  20.749  0.00  0.00    +0.000 C 
ATOM     32  C   UNL     1       1.652   2.132  20.260  0.00  0.00    +0.000 C 
ATOM     33  C   UNL     1       1.062   2.437  18.886  0.00  0.00    +0.000 C 
ATOM     34  C   UNL     1       2.151   2.791  17.875  0.00  0.00    +0.000 C 
ENDBRANCH  26  29
ENDBRANCH  20  22
ENDBRANCH   1  20
TORSDOF 5
ENDMDL
MODEL 5
REMARK VINA RESULT:      -7.9      0.583      1.345
REMARK  Name = 
REMARK  5 active torsions:
REMARK  status: ('A' for Active; 'I' for Inactive)
REMARK    1  A    between atoms: C_2  and  C_3
REMARK    2  A    between atoms: C_3  and  N_4
REMARK    3  A    between atoms: N_7  and  S_8
REMARK    4  A    between atoms: S_8  and  C_11
REMARK    5  A    between atoms: N_26  and  C_27
REMARK                            x       y       z     vdW  Elec       q    Type
REMARK                         _______ _______ _______ _____ _____    ______ ____
ROOT
ATOM      1  N   UNL     1       3.371  14.151  19.331  0.00  0.00    +0.000 NA
ATOM      2  C   UNL     1       3.205  14.100  20.807  0.00  0.00    +0.000 C 
ATOM      3  C   UNL     1       1.882  14.662  21.371  0.00  0.00    +0.000 C 
ATOM      4  N   UNL     1       0.690  14.048  20.719  0.00  0.00    +0.000 NA
ATOM      5  C   UNL     1       0.793  14.155  19.234  0.00  0.00    +0.000 C 
ATOM      6  C   UNL     1       2.134  13.587  18.706  0.00  0.00    +0.000 C 
ENDROOT
BRANCH   4   7
ATOM      7  S   UNL     1       0.185  12.521  21.297  0.00  0.00    +0.000 S 
ATOM      8  O   UNL     1       1.257  11.578  21.070  0.00  0.00    +0.000 OA
ATOM      9  O   UNL     1      -0.378  12.704  22.620  0.00  0.00    +0.000 OA
BRANCH   7  10
ATOM     10  C   UNL     1      -1.133  12.084  20.189  0.00  0.00    +0.000 A 
ATOM     11  C   UNL     1      -2.386  12.670  20.375  0.00  0.00    +0.000 A 
ATOM     12  C   UNL     1      -3.421  12.367  19.491  0.00  0.00    +0.000 A 
ATOM     13  C   UNL     1      -3.211  11.496  18.409  0.00  0.00    +0.000 A 
ATOM     14  C   UNL     1      -4.242  11.202  17.502  0.00  0.00    +0.000 A 
ATOM     15  C   UNL     1      -4.016  10.359  16.413  0.00  0.00    +0.000 A 
ATOM     16  C   UNL     1      -2.758   9.795  16.218  0.00  0.00    +0.000 A 
ATOM     17  C   UNL     1      -1.725  10.066  17.118  0.00  0.00    +0.000 A 
ATOM     18  C   UNL     1      -1.933  10.914  18.219  0.00  0.00    +0.000 A 
ATOM     19  C   UNL     1      -0.900  11.209  19.124  0.00  0.00    +0.000 A 
ENDBRANCH   7  10
ENDBRANCH   4   7
BRANCH   1  20
ATOM     20  C   UNL     1       3.595  15.521  18.815  0.00  0.00    +0.000 C 
BRANCH  20  22
ATOM     21  O   UNL     1       5.321  17.141  18.587  0.00  0.00    +0.000 OA
ATOM     22  C   UNL     1       5.063  15.946  18.736  0.00  0.00    +0.000 C 
ATOM     23  N   UNL     1       5.995  14.929  18.792  0.00  0.00    +0.000 N 
ATOM     24  C   UNL     1       7.357  15.148  18.765  0.00  0.00    +0.000 C 
ATOM     25  O   UNL     1       7.905  16.231  18.611  0.00  0.00    +0.000 OA
ATOM     26  N   UNL     1       8.079  13.977  18.903  0.00  0.00    +0.000 N 
ATOM     27  H   UNL     1       5.652  13.983  18.827  0.00  0.00    +0.000 HD
ATOM     28  H   UNL     1       7.689  13.327  19.569  0.00  0.00    +0.000 HD
BRANCH  26  29
ATOM     29  C   UNL     1       9.551  13.991  18.829  0.00  0.00    +0.000 C 
ATOM     30  C   UNL     1      10.160  13.536  20.164  0.00  0.00    +0.000 C 
ATOM     31  C   UNL     1       9.847  12.068  20.459  0.00  0.00    +0.000 C 
ATOM     32  C   UNL     1      10.277  11.146  19.318  0.00  0.00    +0.000 C 
ATOM     33  C   UNL     1       9.762  11.617  17.960  0.00  0.00    +0.000 C 
ATOM     34  C   UNL     1      10.101  13.085  17.710  0.00  0.00    +0.000 C 
ENDBRANCH  26  29
ENDBRANCH  20  22
ENDBRANCH   1  20
TORSDOF 5
ENDMDL
MODEL 6
REMARK VINA RESULT:      -7.9      5.563      7.979
REMARK  Name = 
REMARK  5 active torsions:
REMARK  status: ('A' for Active; 'I' for Inactive)
REMARK    1  A    between atoms: C_2  and  C_3
REMARK    2  A    between atoms: C_3  and  N_4
REMARK    3  A    between atoms: N_7  and  S_8
REMARK    4  A    between atoms: S_8  and  C_11
REMARK    5  A    between atoms: N_26  and  C_27
REMARK                            x       y       z     vdW  Elec       q    Type
REMARK                         _______ _______ _______ _____ _____    ______ ____
ROOT
ATOM      1  N   UNL     1       1.114  11.022  20.145  0.00  0.00    +0.000 NA
ATOM      2  C   UNL     1       1.142  12.494  20.345  0.00  0.00    +0.000 C 
ATOM      3  C   UNL     1      -0.208  13.232  20.215  0.00  0.00    +0.000 C 
ATOM      4  N   UNL     1      -1.259  12.636  21.089  0.00  0.00    +0.000 NA
ATOM      5  C   UNL     1      -1.363  11.166  20.851  0.00  0.00    +0.000 C 
ATOM      6  C   UNL     1       0.010  10.461  20.985  0.00  0.00    +0.000 C 
ENDROOT
BRANCH   4   7
ATOM      7  S   UNL     1      -1.263  13.101  22.733  0.00  0.00    +0.000 S 
ATOM      8  O   UNL     1      -1.202  11.903  23.540  0.00  0.00    +0.000 OA
ATOM      9  O   UNL     1      -0.291  14.163  22.903  0.00  0.00    +0.000 OA
BRANCH   7  10
ATOM     10  C   UNL     1      -2.884  13.792  22.954  0.00  0.00    +0.000 A 
ATOM     11  C   UNL     1      -3.117  15.101  22.530  0.00  0.00    +0.000 A 
ATOM     12  C   UNL     1      -4.395  15.646  22.662  0.00  0.00    +0.000 A 
ATOM     13  C   UNL     1      -5.450  14.886  23.197  0.00  0.00    +0.000 A 
ATOM     14  C   UNL     1      -6.743  15.419  23.313  0.00  0.00    +0.000 A 
ATOM     15  C   UNL     1      -7.790  14.647  23.818  0.00  0.00    +0.000 A 
ATOM     16  C   UNL     1      -7.559  13.335  24.217  0.00  0.00    +0.000 A 
ATOM     17  C   UNL     1      -6.275  12.793  24.121  0.00  0.00    +0.000 A 
ATOM     18  C   UNL     1      -5.208  13.553  23.613  0.00  0.00    +0.000 A 
ATOM     19  C   UNL     1      -3.915  13.018  23.496  0.00  0.00    +0.000 A 
ENDBRANCH   7  10
ENDBRANCH   4   7
BRANCH   1  20
ATOM     20  C   UNL     1       0.899  10.628  18.733  0.00  0.00    +0.000 C 
BRANCH  20  22
ATOM     21  O   UNL     1       2.428   9.648  17.198  0.00  0.00    +0.000 OA
ATOM     22  C   UNL     1       1.793   9.488  18.241  0.00  0.00    +0.000 C 
ATOM     23  N   UNL     1       1.781   8.333  18.998  0.00  0.00    +0.000 N 
ATOM     24  C   UNL     1       2.555   7.229  18.707  0.00  0.00    +0.000 C 
ATOM     25  O   UNL     1       3.272   7.096  17.726  0.00  0.00    +0.000 OA
ATOM     26  N   UNL     1       2.414   6.228  19.651  0.00  0.00    +0.000 N 
ATOM     27  H   UNL     1       1.152   8.297  19.783  0.00  0.00    +0.000 HD
ATOM     28  H   UNL     1       2.355   6.562  20.601  0.00  0.00    +0.000 HD
BRANCH  26  29
ATOM     29  C   UNL     1       3.106   4.937  19.482  0.00  0.00    +0.000 C 
ATOM     30  C   UNL     1       2.835   4.021  20.685  0.00  0.00    +0.000 C 
ATOM     31  C   UNL     1       1.363   3.611  20.765  0.00  0.00    +0.000 C 
ATOM     32  C   UNL     1       0.871   2.973  19.466  0.00  0.00    +0.000 C 
ATOM     33  C   UNL     1       1.202   3.815  18.237  0.00  0.00    +0.000 C 
ATOM     34  C   UNL     1       2.680   4.196  18.200  0.00  0.00    +0.000 C 
ENDBRANCH  26  29
ENDBRANCH  20  22
ENDBRANCH   1  20
TORSDOF 5
ENDMDL
MODEL 7
REMARK VINA RESULT:      -7.8      5.409      7.909
REMARK  Name = 
REMARK  5 active torsions:
REMARK  status: ('A' for Active; 'I' for Inactive)
REMARK    1  A    between atoms: C_2  and  C_3
REMARK    2  A    between atoms: C_3  and  N_4
REMARK    3  A    between atoms: N_7  and  S_8
REMARK    4  A    between atoms: S_8  and  C_11
REMARK    5  A    between atoms: N_26  and  C_27
REMARK                            x       y       z     vdW  Elec       q    Type
REMARK                         _______ _______ _______ _____ _____    ______ ____
ROOT
ATOM      1  N   UNL     1       1.537   8.422  20.878  0.00  0.00    +0.000 NA
ATOM      2  C   UNL     1       1.145   9.158  19.649  0.00  0.00    +0.000 C 
ATOM      3  C   UNL     1      -0.269   9.779  19.640  0.00  0.00    +0.000 C 
ATOM      4  N   UNL     1      -0.508  10.645  20.831  0.00  0.00    +0.000 NA
ATOM      5  C   UNL     1      -0.197   9.902  22.087  0.00  0.00    +0.000 C 
ATOM      6  C   UNL     1       1.226   9.290  22.058  0.00  0.00    +0.000 C 
ENDROOT
BRANCH   4   7
ATOM      7  S   UNL     1       0.097  12.241  20.768  0.00  0.00    +0.000 S 
ATOM      8  O   UNL     1       1.337  12.281  21.511  0.00  0.00    +0.000 OA
ATOM      9  O   UNL     1       0.039  12.692  19.392  0.00  0.00    +0.000 OA
BRANCH   7  10
ATOM     10  C   UNL     1      -1.097  13.164  21.705  0.00  0.00    +0.000 A 
ATOM     11  C   UNL     1      -2.442  13.083  21.339  0.00  0.00    +0.000 A 
ATOM     12  C   UNL     1      -3.397  13.772  22.087  0.00  0.00    +0.000 A 
ATOM     13  C   UNL     1      -3.023  14.526  23.212  0.00  0.00    +0.000 A 
ATOM     14  C   UNL     1      -3.980  15.204  23.983  0.00  0.00    +0.000 A 
ATOM     15  C   UNL     1      -3.603  15.927  25.116  0.00  0.00    +0.000 A 
ATOM     16  C   UNL     1      -2.264  15.985  25.491  0.00  0.00    +0.000 A 
ATOM     17  C   UNL     1      -1.297  15.327  24.727  0.00  0.00    +0.000 A 
ATOM     18  C   UNL     1      -1.658  14.593  23.585  0.00  0.00    +0.000 A 
ATOM     19  C   UNL     1      -0.699  13.914  22.816  0.00  0.00    +0.000 A 
ENDBRANCH   7  10
ENDBRANCH   4   7
BRANCH   1  20
ATOM     20  C   UNL     1       0.837   7.125  21.032  0.00  0.00    +0.000 C 
BRANCH  20  22
ATOM     21  O   UNL     1       1.173   4.783  20.796  0.00  0.00    +0.000 OA
ATOM     22  C   UNL     1       1.654   5.901  20.612  0.00  0.00    +0.000 C 
ATOM     23  N   UNL     1       2.907   6.154  20.091  0.00  0.00    +0.000 N 
ATOM     24  C   UNL     1       3.753   5.163  19.636  0.00  0.00    +0.000 C 
ATOM     25  O   UNL     1       3.547   3.960  19.706  0.00  0.00    +0.000 OA
ATOM     26  N   UNL     1       4.920   5.676  19.101  0.00  0.00    +0.000 N 
ATOM     27  H   UNL     1       3.220   7.111  20.072  0.00  0.00    +0.000 HD
ATOM     28  H   UNL     1       4.791   6.514  18.554  0.00  0.00    +0.000 HD
BRANCH  26  29
ATOM     29  C   UNL     1       5.984   4.774  18.624  0.00  0.00    +0.000 C 
ATOM     30  C   UNL     1       5.753   4.402  17.151  0.00  0.00    +0.000 C 
ATOM     31  C   UNL     1       5.896   5.615  16.231  0.00  0.00    +0.000 C 
ATOM     32  C   UNL     1       7.238   6.323  16.413  0.00  0.00    +0.000 C 
ATOM     33  C   UNL     1       7.543   6.631  17.877  0.00  0.00    +0.000 C 
ATOM     34  C   UNL     1       7.391   5.391  18.754  0.00  0.00    +0.000 C 
ENDBRANCH  26  29
ENDBRANCH  20  22
ENDBRANCH   1  20
TORSDOF 5
ENDMDL
MODEL 8
REMARK VINA RESULT:      -7.8      6.669     10.097
REMARK  Name = 
REMARK  5 active torsions:
REMARK  status: ('A' for Active; 'I' for Inactive)
REMARK    1  A    between atoms: C_2  and  C_3
REMARK    2  A    between atoms: C_3  and  N_4
REMARK    3  A    between atoms: N_7  and  S_8
REMARK    4  A    between atoms: S_8  and  C_11
REMARK    5  A    between atoms: N_26  and  C_27
REMARK                            x       y       z     vdW  Elec       q    Type
REMARK                         _______ _______ _______ _____ _____    ______ ____
ROOT
ATOM      1  N   UNL     1       2.670   6.613  20.090  0.00  0.00    +0.000 NA
ATOM      2  C   UNL     1       2.346   5.187  20.349  0.00  0.00    +0.000 C 
ATOM      3  C   UNL     1       1.914   4.346  19.127  0.00  0.00    +0.000 C 
ATOM      4  N   UNL     1       2.899   4.434  18.011  0.00  0.00    +0.000 NA
ATOM      5  C   UNL     1       3.185   5.860  17.676  0.00  0.00    +0.000 C 
ATOM      6  C   UNL     1       3.610   6.671  18.926  0.00  0.00    +0.000 C 
ENDROOT
BRANCH   4   7
ATOM      7  S   UNL     1       4.276   3.427  18.105  0.00  0.00    +0.000 S 
ATOM      8  O   UNL     1       4.978   3.739  19.330  0.00  0.00    +0.000 OA
ATOM      9  O   UNL     1       3.862   2.069  17.810  0.00  0.00    +0.000 OA
BRANCH   7  10
ATOM     10  C   UNL     1       5.291   4.001  16.766  0.00  0.00    +0.000 A 
ATOM     11  C   UNL     1       6.356   4.856  17.052  0.00  0.00    +0.000 A 
ATOM     12  C   UNL     1       7.186   5.286  16.016  0.00  0.00    +0.000 A 
ATOM     13  C   UNL     1       6.972   4.854  14.696  0.00  0.00    +0.000 A 
ATOM     14  C   UNL     1       7.815   5.265  13.652  0.00  0.00    +0.000 A 
ATOM     15  C   UNL     1       7.614   4.806  12.349  0.00  0.00    +0.000 A 
ATOM     16  C   UNL     1       6.565   3.935  12.072  0.00  0.00    +0.000 A 
ATOM     17  C   UNL     1       5.708   3.527  13.097  0.00  0.00    +0.000 A 
ATOM     18  C   UNL     1       5.896   3.976  14.415  0.00  0.00    +0.000 A 
ATOM     19  C   UNL     1       5.053   3.562  15.459  0.00  0.00    +0.000 A 
ENDBRANCH   7  10
ENDBRANCH   4   7
BRANCH   1  20
ATOM     20  C   UNL     1       1.478   7.440  19.793  0.00  0.00    +0.000 C 
BRANCH  20  22
ATOM     21  O   UNL     1       1.228   8.294  21.999  0.00  0.00    +0.000 OA
ATOM     22  C   UNL     1       1.209   8.563  20.797  0.00  0.00    +0.000 C 
ATOM     23  N   UNL     1       0.916   9.802  20.263  0.00  0.00    +0.000 N 
ATOM     24  C   UNL     1       0.681  10.923  21.032  0.00  0.00    +0.000 C 
ATOM     25  O   UNL     1       0.623  10.953  22.253  0.00  0.00    +0.000 OA
ATOM     26  N   UNL     1       0.478  12.053  20.261  0.00  0.00    +0.000 N 
ATOM     27  H   UNL     1       0.846   9.872  19.261  0.00  0.00    +0.000 HD
ATOM     28  H   UNL     1       1.079  12.117  19.454  0.00  0.00    +0.000 HD
BRANCH  26  29
ATOM     29  C   UNL     1       0.142  13.341  20.896  0.00  0.00    +0.000 C 
ATOM     30  C   UNL     1       1.416  14.157  21.161  0.00  0.00    +0.000 C 
ATOM     31  C   UNL     1       2.097  14.585  19.860  0.00  0.00    +0.000 C 
ATOM     32  C   UNL     1       1.145  15.339  18.932  0.00  0.00    +0.000 C 
ATOM     33  C   UNL     1      -0.171  14.598  18.714  0.00  0.00    +0.000 C 
ATOM     34  C   UNL     1      -0.814  14.195  20.040  0.00  0.00    +0.000 C 
ENDBRANCH  26  29
ENDBRANCH  20  22
ENDBRANCH   1  20
TORSDOF 5
ENDMDL
MODEL 9
REMARK VINA RESULT:      -7.7      5.977      7.633
REMARK  Name = 
REMARK  5 active torsions:
REMARK  status: ('A' for Active; 'I' for Inactive)
REMARK    1  A    between atoms: C_2  and  C_3
REMARK    2  A    between atoms: C_3  and  N_4
REMARK    3  A    between atoms: N_7  and  S_8
REMARK    4  A    between atoms: S_8  and  C_11
REMARK    5  A    between atoms: N_26  and  C_27
REMARK                            x       y       z     vdW  Elec       q    Type
REMARK                         _______ _______ _______ _____ _____    ______ ____
ROOT
ATOM      1  N   UNL     1       5.698   6.385  16.797  0.00  0.00    +0.000 NA
ATOM      2  C   UNL     1       5.100   5.415  15.844  0.00  0.00    +0.000 C 
ATOM      3  C   UNL     1       5.271   3.918  16.186  0.00  0.00    +0.000 C 
ATOM      4  N   UNL     1       4.805   3.603  17.568  0.00  0.00    +0.000 NA
ATOM      5  C   UNL     1       5.452   4.514  18.558  0.00  0.00    +0.000 C 
ATOM      6  C   UNL     1       5.264   6.005  18.178  0.00  0.00    +0.000 C 
ENDROOT
BRANCH   4   7
ATOM      7  S   UNL     1       3.127   3.372  17.791  0.00  0.00    +0.000 S 
ATOM      8  O   UNL     1       2.496   3.370  16.490  0.00  0.00    +0.000 OA
ATOM      9  O   UNL     1       2.943   2.265  18.708  0.00  0.00    +0.000 OA
BRANCH   7  10
ATOM     10  C   UNL     1       2.619   4.862  18.612  0.00  0.00    +0.000 A 
ATOM     11  C   UNL     1       2.526   4.862  20.004  0.00  0.00    +0.000 A 
ATOM     12  C   UNL     1       2.165   6.035  20.667  0.00  0.00    +0.000 A 
ATOM     13  C   UNL     1       1.913   7.217  19.951  0.00  0.00    +0.000 A 
ATOM     14  C   UNL     1       1.570   8.408  20.611  0.00  0.00    +0.000 A 
ATOM     15  C   UNL     1       1.350   9.584  19.894  0.00  0.00    +0.000 A 
ATOM     16  C   UNL     1       1.466   9.587  18.507  0.00  0.00    +0.000 A 
ATOM     17  C   UNL     1       1.794   8.407  17.832  0.00  0.00    +0.000 A 
ATOM     18  C   UNL     1       2.020   7.214  18.538  0.00  0.00    +0.000 A 
ATOM     19  C   UNL     1       2.366   6.025  17.876  0.00  0.00    +0.000 A 
ENDBRANCH   7  10
ENDBRANCH   4   7
BRANCH   1  20
ATOM     20  C   UNL     1       7.177   6.420  16.745  0.00  0.00    +0.000 C 
BRANCH  20  22
ATOM     21  O   UNL     1       8.112   6.584  18.926  0.00  0.00    +0.000 OA
ATOM     22  C   UNL     1       7.842   7.190  17.888  0.00  0.00    +0.000 C 
ATOM     23  N   UNL     1       8.046   8.539  17.677  0.00  0.00    +0.000 N 
ATOM     24  C   UNL     1       8.661   9.365  18.595  0.00  0.00    +0.000 C 
ATOM     25  O   UNL     1       9.024   9.043  19.717  0.00  0.00    +0.000 OA
ATOM     26  N   UNL     1       8.808  10.656  18.121  0.00  0.00    +0.000 N 
ATOM     27  H   UNL     1       7.701   8.934  16.817  0.00  0.00    +0.000 HD
ATOM     28  H   UNL     1       9.063  10.712  17.146  0.00  0.00    +0.000 HD
BRANCH  26  29
ATOM     29  C   UNL     1       9.380  11.709  18.981  0.00  0.00    +0.000 C 
ATOM     30  C   UNL     1      10.915  11.651  18.950  0.00  0.00    +0.000 C 
ATOM     31  C   UNL     1      11.468  12.001  17.568  0.00  0.00    +0.000 C 
ATOM     32  C   UNL     1      10.960  13.353  17.069  0.00  0.00    +0.000 C 
ATOM     33  C   UNL     1       9.442  13.481  17.166  0.00  0.00    +0.000 C 
ATOM     34  C   UNL     1       8.938  13.124  18.563  0.00  0.00    +0.000 C 
ENDBRANCH  26  29
ENDBRANCH  20  22
ENDBRANCH   1  20
TORSDOF 5
ENDMDL
