MODEL 1
REMARK VINA RESULT:      -8.7      0.000      0.000
REMARK  Name = 
REMARK  3 active torsions:
REMARK  status: ('A' for Active; 'I' for Inactive)
REMARK    1  A    between atoms: N_1  and  C_2
REMARK    2  A    between atoms: C_3  and  C_4
REMARK    3  A    between atoms: N_6  and  C_7
REMARK                            x       y       z     vdW  Elec       q    Type
REMARK                         _______ _______ _______ _____ _____    ______ ____
ROOT
ATOM      1  C   UNL     1       7.167   5.954  16.983  0.00  0.00    +0.000 A 
ATOM      2  C   UNL     1       7.715   6.782  17.949  0.00  0.00    +0.000 A 
ATOM      3  S   UNL     1       7.702   5.836  19.390  0.00  0.00    +0.000 S 
ATOM      4  C   UNL     1       6.208   5.164  18.874  0.00  0.00    +0.000 A 
ATOM      5  N   UNL     1       5.396   4.541  19.734  0.00  0.00    +0.000 NA
ATOM      6  C   UNL     1       4.133   4.506  19.280  0.00  0.00    +0.000 A 
ATOM      7  C   UNL     1       3.660   5.097  18.093  0.00  0.00    +0.000 A 
ATOM      8  C   UNL     1       4.577   5.499  17.127  0.00  0.00    +0.000 A 
ATOM      9  C   UNL     1       5.930   5.539  17.546  0.00  0.00    +0.000 A 
ATOM     10  N   UNL     1       2.238   5.332  18.024  0.00  0.00    +0.000 N 
ATOM     11  C   UNL     1       1.575   4.007  18.076  0.00  0.00    +0.000 C 
ATOM     12  C   UNL     1       2.062   3.193  19.298  0.00  0.00    +0.000 C 
ATOM     13  C   UNL     1       3.001   4.048  20.170  0.00  0.00    +0.000 C 
ATOM     14  C   UNL     1       2.295   5.349  20.558  0.00  0.00    +0.000 C 
ATOM     15  C   UNL     1       1.873   6.105  19.270  0.00  0.00    +0.000 C 
ENDROOT
BRANCH   2  16
ATOM     16  C   UNL     1       7.916   8.222  17.915  0.00  0.00    +0.000 C 
ATOM     17  O   UNL     1       7.153   8.968  17.309  0.00  0.00    +0.000 OA
ATOM     18  N   UNL     1       8.980   8.660  18.691  0.00  0.00    +0.000 N 
ATOM     19  H   UNL     1       9.632   7.950  18.987  0.00  0.00    +0.000 HD
BRANCH  18  20
ATOM     20  C   UNL     1       9.212   9.971  19.161  0.00  0.00    +0.000 A 
ATOM     21  C   UNL     1       9.011  10.368  20.485  0.00  0.00    +0.000 A 
ATOM     22  C   UNL     1       9.271  11.685  20.878  0.00  0.00    +0.000 A 
ATOM     23  C   UNL     1       9.733  12.616  19.948  0.00  0.00    +0.000 A 
ATOM     24  C   UNL     1       9.962  12.212  18.636  0.00  0.00    +0.000 A 
ATOM     25 BR   UNL     1      10.569  13.473  17.363  0.00  0.00    +0.000 Br
ATOM     26  C   UNL     1       9.724  10.897  18.244  0.00  0.00    +0.000 A 
ENDBRANCH  18  20
ENDBRANCH   2  16
BRANCH   1  27
ATOM     27  N   UNL     1       7.547   5.879  15.677  0.00  0.00    +0.000 N 
ATOM     28  H   UNL     1       6.829   5.386  15.129  0.00  0.00    +0.000 HD
ATOM     29  H   UNL     1       8.384   5.331  15.489  0.00  0.00    +0.000 HD
ENDBRANCH   1  27
TORSDOF 3
ENDMDL
MODEL 2
REMARK VINA RESULT:      -8.7      4.560      6.351
REMARK  Name = 
REMARK  3 active torsions:
REMARK  status: ('A' for Active; 'I' for Inactive)
REMARK    1  A    between atoms: N_1  and  C_2
REMARK    2  A    between atoms: C_3  and  C_4
REMARK    3  A    between atoms: N_6  and  C_7
REMARK                            x       y       z     vdW  Elec       q    Type
REMARK                         _______ _______ _______ _____ _____    ______ ____
ROOT
ATOM      1  C   UNL     1       6.499   5.476  18.856  0.00  0.00    +0.000 A 
ATOM      2  C   UNL     1       6.355   5.821  17.522  0.00  0.00    +0.000 A 
ATOM      3  S   UNL     1       4.902   6.745  17.466  0.00  0.00    +0.000 S 
ATOM      4  C   UNL     1       4.256   5.707  18.672  0.00  0.00    +0.000 A 
ATOM      5  N   UNL     1       2.939   5.640  18.893  0.00  0.00    +0.000 NA
ATOM      6  C   UNL     1       2.601   4.492  19.502  0.00  0.00    +0.000 A 
ATOM      7  C   UNL     1       3.473   3.433  19.823  0.00  0.00    +0.000 A 
ATOM      8  C   UNL     1       4.845   3.660  19.807  0.00  0.00    +0.000 A 
ATOM      9  C   UNL     1       5.259   4.867  19.190  0.00  0.00    +0.000 A 
ATOM     10  N   UNL     1       2.856   2.148  20.045  0.00  0.00    +0.000 N 
ATOM     11  C   UNL     1       1.979   2.286  21.232  0.00  0.00    +0.000 C 
ATOM     12  C   UNL     1       1.006   3.478  21.064  0.00  0.00    +0.000 C 
ATOM     13  C   UNL     1       1.153   4.094  19.661  0.00  0.00    +0.000 C 
ATOM     14  C   UNL     1       0.957   3.006  18.602  0.00  0.00    +0.000 C 
ATOM     15  C   UNL     1       1.993   1.874  18.835  0.00  0.00    +0.000 C 
ENDROOT
BRANCH   2  16
ATOM     16  C   UNL     1       7.016   5.258  16.354  0.00  0.00    +0.000 C 
ATOM     17  O   UNL     1       7.953   4.472  16.456  0.00  0.00    +0.000 OA
ATOM     18  N   UNL     1       6.434   5.625  15.148  0.00  0.00    +0.000 N 
ATOM     19  H   UNL     1       5.799   6.407  15.184  0.00  0.00    +0.000 HD
BRANCH  18  20
ATOM     20  C   UNL     1       6.586   4.987  13.898  0.00  0.00    +0.000 A 
ATOM     21  C   UNL     1       7.783   4.967  13.178  0.00  0.00    +0.000 A 
ATOM     22  C   UNL     1       7.859   4.305  11.947  0.00  0.00    +0.000 A 
ATOM     23  C   UNL     1       6.737   3.661  11.427  0.00  0.00    +0.000 A 
ATOM     24  C   UNL     1       5.554   3.656  12.160  0.00  0.00    +0.000 A 
ATOM     25 BR   UNL     1       4.022   2.801  11.452  0.00  0.00    +0.000 Br
ATOM     26  C   UNL     1       5.478   4.296  13.395  0.00  0.00    +0.000 A 
ENDBRANCH  18  20
ENDBRANCH   2  16
BRANCH   1  27
ATOM     27  N   UNL     1       7.671   5.397  19.546  0.00  0.00    +0.000 N 
ATOM     28  H   UNL     1       8.437   5.797  18.988  0.00  0.00    +0.000 HD
ATOM     29  H   UNL     1       8.008   4.456  19.743  0.00  0.00    +0.000 HD
ENDBRANCH   1  27
TORSDOF 3
ENDMDL
MODEL 3
REMARK VINA RESULT:      -8.4      4.616      6.243
REMARK  Name = 
REMARK  3 active torsions:
REMARK  status: ('A' for Active; 'I' for Inactive)
REMARK    1  A    between atoms: N_1  and  C_2
REMARK    2  A    between atoms: C_3  and  C_4
REMARK    3  A    between atoms: N_6  and  C_7
REMARK                            x       y       z     vdW  Elec       q    Type
REMARK                         _______ _______ _______ _____ _____    ______ ____
ROOT
ATOM      1  C   UNL     1       5.641   6.217  18.225  0.00  0.00    +0.000 A 
ATOM      2  C   UNL     1       4.939   6.749  17.155  0.00  0.00    +0.000 A 
ATOM      3  S   UNL     1       3.522   7.429  17.861  0.00  0.00    +0.000 S 
ATOM      4  C   UNL     1       3.506   6.118  18.970  0.00  0.00    +0.000 A 
ATOM      5  N   UNL     1       2.404   5.809  19.660  0.00  0.00    +0.000 NA
ATOM      6  C   UNL     1       2.435   4.538  20.093  0.00  0.00    +0.000 A 
ATOM      7  C   UNL     1       3.442   3.592  19.820  0.00  0.00    +0.000 A 
ATOM      8  C   UNL     1       4.666   4.032  19.327  0.00  0.00    +0.000 A 
ATOM      9  C   UNL     1       4.697   5.374  18.872  0.00  0.00    +0.000 A 
ATOM     10  N   UNL     1       3.072   2.207  19.982  0.00  0.00    +0.000 N 
ATOM     11  C   UNL     1       2.746   2.009  21.415  0.00  0.00    +0.000 C 
ATOM     12  C   UNL     1       1.699   3.044  21.891  0.00  0.00    +0.000 C 
ATOM     13  C   UNL     1       1.213   3.897  20.706  0.00  0.00    +0.000 C 
ATOM     14  C   UNL     1       0.688   2.981  19.598  0.00  0.00    +0.000 C 
ATOM     15  C   UNL     1       1.815   2.003  19.168  0.00  0.00    +0.000 C 
ENDROOT
BRANCH   2  16
ATOM     16  C   UNL     1       5.108   6.497  15.733  0.00  0.00    +0.000 C 
ATOM     17  O   UNL     1       4.823   7.340  14.888  0.00  0.00    +0.000 OA
ATOM     18  N   UNL     1       5.693   5.272  15.445  0.00  0.00    +0.000 N 
ATOM     19  H   UNL     1       5.712   4.603  16.198  0.00  0.00    +0.000 HD
BRANCH  18  20
ATOM     20  C   UNL     1       6.317   4.886  14.238  0.00  0.00    +0.000 A 
ATOM     21  C   UNL     1       7.480   5.481  13.742  0.00  0.00    +0.000 A 
ATOM     22  C   UNL     1       8.046   5.038  12.541  0.00  0.00    +0.000 A 
ATOM     23  C   UNL     1       7.450   4.000  11.826  0.00  0.00    +0.000 A 
ATOM     24  C   UNL     1       6.309   3.388  12.337  0.00  0.00    +0.000 A 
ATOM     25 BR   UNL     1       5.483   1.992  11.363  0.00  0.00    +0.000 Br
ATOM     26  C   UNL     1       5.753   3.811  13.542  0.00  0.00    +0.000 A 
ENDBRANCH  18  20
ENDBRANCH   2  16
BRANCH   1  27
ATOM     27  N   UNL     1       6.994   6.211  18.378  0.00  0.00    +0.000 N 
ATOM     28  H   UNL     1       7.287   7.007  18.961  0.00  0.00    +0.000 HD
ATOM     29  H   UNL     1       7.538   6.346  17.528  0.00  0.00    +0.000 HD
ENDBRANCH   1  27
TORSDOF 3
ENDMDL
MODEL 4
REMARK VINA RESULT:      -8.4      1.157      1.491
REMARK  Name = 
REMARK  3 active torsions:
REMARK  status: ('A' for Active; 'I' for Inactive)
REMARK    1  A    between atoms: N_1  and  C_2
REMARK    2  A    between atoms: C_3  and  C_4
REMARK    3  A    between atoms: N_6  and  C_7
REMARK                            x       y       z     vdW  Elec       q    Type
REMARK                         _______ _______ _______ _____ _____    ______ ____
ROOT
ATOM      1  C   UNL     1       7.172   5.964  16.938  0.00  0.00    +0.000 A 
ATOM      2  C   UNL     1       7.717   6.807  17.893  0.00  0.00    +0.000 A 
ATOM      3  S   UNL     1       7.724   5.874  19.343  0.00  0.00    +0.000 S 
ATOM      4  C   UNL     1       6.234   5.182  18.843  0.00  0.00    +0.000 A 
ATOM      5  N   UNL     1       5.435   4.558  19.715  0.00  0.00    +0.000 NA
ATOM      6  C   UNL     1       4.169   4.505  19.269  0.00  0.00    +0.000 A 
ATOM      7  C   UNL     1       3.682   5.080  18.080  0.00  0.00    +0.000 A 
ATOM      8  C   UNL     1       4.588   5.482  17.104  0.00  0.00    +0.000 A 
ATOM      9  C   UNL     1       5.943   5.541  17.514  0.00  0.00    +0.000 A 
ATOM     10  N   UNL     1       2.257   5.300  18.018  0.00  0.00    +0.000 N 
ATOM     11  C   UNL     1       1.609   3.968  18.087  0.00  0.00    +0.000 C 
ATOM     12  C   UNL     1       2.113   3.171  19.314  0.00  0.00    +0.000 C 
ATOM     13  C   UNL     1       3.048   4.043  20.171  0.00  0.00    +0.000 C 
ATOM     14  C   UNL     1       2.331   5.341  20.552  0.00  0.00    +0.000 C 
ATOM     15  C   UNL     1       1.892   6.080  19.259  0.00  0.00    +0.000 C 
ENDROOT
BRANCH   2  16
ATOM     16  C   UNL     1       7.903   8.249  17.844  0.00  0.00    +0.000 C 
ATOM     17  O   UNL     1       7.119   8.982  17.249  0.00  0.00    +0.000 OA
ATOM     18  N   UNL     1       8.978   8.703  18.595  0.00  0.00    +0.000 N 
ATOM     19  H   UNL     1       9.643   8.003  18.882  0.00  0.00    +0.000 HD
BRANCH  18  20
ATOM     20  C   UNL     1       9.207  10.020  19.049  0.00  0.00    +0.000 A 
ATOM     21  C   UNL     1       9.716  11.041  18.244  0.00  0.00    +0.000 A 
ATOM     22  C   UNL     1       9.907  12.326  18.763  0.00  0.00    +0.000 A 
ATOM     23  C   UNL     1       9.593  12.598  20.094  0.00  0.00    +0.000 A 
ATOM     24  C   UNL     1       9.056  11.588  20.887  0.00  0.00    +0.000 A 
ATOM     25 BR   UNL     1       8.645  11.943  22.700  0.00  0.00    +0.000 Br
ATOM     26  C   UNL     1       8.845  10.312  20.369  0.00  0.00    +0.000 A 
ENDBRANCH  18  20
ENDBRANCH   2  16
BRANCH   1  27
ATOM     27  N   UNL     1       7.544   5.880  15.631  0.00  0.00    +0.000 N 
ATOM     28  H   UNL     1       7.193   6.696  15.111  0.00  0.00    +0.000 HD
ATOM     29  H   UNL     1       7.154   5.099  15.107  0.00  0.00    +0.000 HD
ENDBRANCH   1  27
TORSDOF 3
ENDMDL
MODEL 5
REMARK VINA RESULT:      -8.3      4.869      6.932
REMARK  Name = 
REMARK  3 active torsions:
REMARK  status: ('A' for Active; 'I' for Inactive)
REMARK    1  A    between atoms: N_1  and  C_2
REMARK    2  A    between atoms: C_3  and  C_4
REMARK    3  A    between atoms: N_6  and  C_7
REMARK                            x       y       z     vdW  Elec       q    Type
REMARK                         _______ _______ _______ _____ _____    ______ ____
ROOT
ATOM      1  C   UNL     1       7.001   4.845  17.538  0.00  0.00    +0.000 A 
ATOM      2  C   UNL     1       6.666   5.585  16.415  0.00  0.00    +0.000 A 
ATOM      3  S   UNL     1       5.636   6.833  17.009  0.00  0.00    +0.000 S 
ATOM      4  C   UNL     1       4.988   5.697  18.123  0.00  0.00    +0.000 A 
ATOM      5  N   UNL     1       3.818   5.916  18.731  0.00  0.00    +0.000 NA
ATOM      6  C   UNL     1       3.272   4.771  19.172  0.00  0.00    +0.000 A 
ATOM      7  C   UNL     1       3.791   3.475  18.981  0.00  0.00    +0.000 A 
ATOM      8  C   UNL     1       5.114   3.331  18.579  0.00  0.00    +0.000 A 
ATOM      9  C   UNL     1       5.747   4.512  18.118  0.00  0.00    +0.000 A 
ATOM     10  N   UNL     1       2.852   2.389  19.125  0.00  0.00    +0.000 N 
ATOM     11  C   UNL     1       2.382   2.403  20.531  0.00  0.00    +0.000 C 
ATOM     12  C   UNL     1       1.853   3.804  20.921  0.00  0.00    +0.000 C 
ATOM     13  C   UNL     1       1.856   4.737  19.697  0.00  0.00    +0.000 C 
ATOM     14  C   UNL     1       1.062   4.092  18.559  0.00  0.00    +0.000 C 
ATOM     15  C   UNL     1       1.685   2.711  18.221  0.00  0.00    +0.000 C 
ENDROOT
BRANCH   2  16
ATOM     16  C   UNL     1       6.802   5.231  15.011  0.00  0.00    +0.000 C 
ATOM     17  O   UNL     1       7.842   5.433  14.391  0.00  0.00    +0.000 OA
ATOM     18  N   UNL     1       5.695   4.580  14.486  0.00  0.00    +0.000 N 
ATOM     19  H   UNL     1       4.850   4.637  15.031  0.00  0.00    +0.000 HD
BRANCH  18  20
ATOM     20  C   UNL     1       5.642   3.799  13.311  0.00  0.00    +0.000 A 
ATOM     21  C   UNL     1       6.606   2.847  12.968  0.00  0.00    +0.000 A 
ATOM     22  C   UNL     1       6.481   2.103  11.789  0.00  0.00    +0.000 A 
ATOM     23  C   UNL     1       5.392   2.310  10.943  0.00  0.00    +0.000 A 
ATOM     24  C   UNL     1       4.417   3.236  11.301  0.00  0.00    +0.000 A 
ATOM     25 BR   UNL     1       2.947   3.536  10.148  0.00  0.00    +0.000 Br
ATOM     26  C   UNL     1       4.526   3.965  12.483  0.00  0.00    +0.000 A 
ENDBRANCH  18  20
ENDBRANCH   2  16
BRANCH   1  27
ATOM     27  N   UNL     1       8.208   4.267  17.792  0.00  0.00    +0.000 N 
ATOM     28  H   UNL     1       8.602   4.641  18.666  0.00  0.00    +0.000 HD
ATOM     29  H   UNL     1       8.945   4.461  17.116  0.00  0.00    +0.000 HD
ENDBRANCH   1  27
TORSDOF 3
ENDMDL
MODEL 6
REMARK VINA RESULT:      -8.1      6.552      9.234
REMARK  Name = 
REMARK  3 active torsions:
REMARK  status: ('A' for Active; 'I' for Inactive)
REMARK    1  A    between atoms: N_1  and  C_2
REMARK    2  A    between atoms: C_3  and  C_4
REMARK    3  A    between atoms: N_6  and  C_7
REMARK                            x       y       z     vdW  Elec       q    Type
REMARK                         _______ _______ _______ _____ _____    ______ ____
ROOT
ATOM      1  C   UNL     1       1.460  10.271  18.500  0.00  0.00    +0.000 A 
ATOM      2  C   UNL     1       0.149  10.279  18.949  0.00  0.00    +0.000 A 
ATOM      3  S   UNL     1       0.223   9.575  20.520  0.00  0.00    +0.000 S 
ATOM      4  C   UNL     1       1.444   8.519  19.933  0.00  0.00    +0.000 A 
ATOM      5  N   UNL     1       1.758   7.395  20.585  0.00  0.00    +0.000 NA
ATOM      6  C   UNL     1       2.360   6.509  19.774  0.00  0.00    +0.000 A 
ATOM      7  C   UNL     1       2.588   6.667  18.393  0.00  0.00    +0.000 A 
ATOM      8  C   UNL     1       2.479   7.935  17.833  0.00  0.00    +0.000 A 
ATOM      9  C   UNL     1       1.866   8.917  18.651  0.00  0.00    +0.000 A 
ATOM     10  N   UNL     1       2.820   5.455  17.645  0.00  0.00    +0.000 N 
ATOM     11  C   UNL     1       4.070   4.855  18.168  0.00  0.00    +0.000 C 
ATOM     12  C   UNL     1       4.005   4.693  19.706  0.00  0.00    +0.000 C 
ATOM     13  C   UNL     1       2.612   5.090  20.226  0.00  0.00    +0.000 C 
ATOM     14  C   UNL     1       1.541   4.279  19.492  0.00  0.00    +0.000 C 
ATOM     15  C   UNL     1       1.669   4.530  17.965  0.00  0.00    +0.000 C 
ENDROOT
BRANCH   2  16
ATOM     16  C   UNL     1      -1.078  10.467  18.191  0.00  0.00    +0.000 C 
ATOM     17  O   UNL     1      -1.398   9.709  17.280  0.00  0.00    +0.000 OA
ATOM     18  N   UNL     1      -1.869  11.510  18.652  0.00  0.00    +0.000 N 
ATOM     19  H   UNL     1      -1.421  12.162  19.275  0.00  0.00    +0.000 HD
BRANCH  18  20
ATOM     20  C   UNL     1      -3.242  11.719  18.393  0.00  0.00    +0.000 A 
ATOM     21  C   UNL     1      -3.836  11.512  17.146  0.00  0.00    +0.000 A 
ATOM     22  C   UNL     1      -5.206  11.732  16.968  0.00  0.00    +0.000 A 
ATOM     23  C   UNL     1      -5.991  12.164  18.036  0.00  0.00    +0.000 A 
ATOM     24  C   UNL     1      -5.404  12.340  19.285  0.00  0.00    +0.000 A 
ATOM     25 BR   UNL     1      -6.458  12.945  20.736  0.00  0.00    +0.000 Br
ATOM     26  C   UNL     1      -4.044  12.103  19.473  0.00  0.00    +0.000 A 
ENDBRANCH  18  20
ENDBRANCH   2  16
BRANCH   1  27
ATOM     27  N   UNL     1       2.061  11.235  17.749  0.00  0.00    +0.000 N 
ATOM     28  H   UNL     1       1.782  12.167  18.083  0.00  0.00    +0.000 HD
ATOM     29  H   UNL     1       1.796  11.262  16.766  0.00  0.00    +0.000 HD
ENDBRANCH   1  27
TORSDOF 3
ENDMDL
MODEL 7
REMARK VINA RESULT:      -7.5      6.197      8.686
REMARK  Name = 
REMARK  3 active torsions:
REMARK  status: ('A' for Active; 'I' for Inactive)
REMARK    1  A    between atoms: N_1  and  C_2
REMARK    2  A    between atoms: C_3  and  C_4
REMARK    3  A    between atoms: N_6  and  C_7
REMARK                            x       y       z     vdW  Elec       q    Type
REMARK                         _______ _______ _______ _____ _____    ______ ____
ROOT
ATOM      1  C   UNL     1       1.678   9.807  18.718  0.00  0.00    +0.000 A 
ATOM      2  C   UNL     1       0.514   9.946  19.456  0.00  0.00    +0.000 A 
ATOM      3  S   UNL     1       0.879   9.230  20.981  0.00  0.00    +0.000 S 
ATOM      4  C   UNL     1       1.821   8.060  20.148  0.00  0.00    +0.000 A 
ATOM      5  N   UNL     1       2.164   6.906  20.731  0.00  0.00    +0.000 NA
ATOM      6  C   UNL     1       2.471   5.968  19.821  0.00  0.00    +0.000 A 
ATOM      7  C   UNL     1       2.389   6.109  18.422  0.00  0.00    +0.000 A 
ATOM      8  C   UNL     1       2.280   7.384  17.877  0.00  0.00    +0.000 A 
ATOM      9  C   UNL     1       1.973   8.419  18.796  0.00  0.00    +0.000 A 
ATOM     10  N   UNL     1       2.320   4.884  17.664  0.00  0.00    +0.000 N 
ATOM     11  C   UNL     1       3.592   4.158  17.896  0.00  0.00    +0.000 C 
ATOM     12  C   UNL     1       3.868   3.996  19.410  0.00  0.00    +0.000 C 
ATOM     13  C   UNL     1       2.679   4.529  20.229  0.00  0.00    +0.000 C 
ATOM     14  C   UNL     1       1.393   3.834  19.776  0.00  0.00    +0.000 C 
ATOM     15  C   UNL     1       1.189   4.078  18.257  0.00  0.00    +0.000 C 
ENDROOT
BRANCH   2  16
ATOM     16  C   UNL     1      -0.830  10.260  18.997  0.00  0.00    +0.000 C 
ATOM     17  O   UNL     1      -1.560  11.030  19.613  0.00  0.00    +0.000 OA
ATOM     18  N   UNL     1      -1.157   9.682  17.778  0.00  0.00    +0.000 N 
ATOM     19  H   UNL     1      -0.555   8.936  17.468  0.00  0.00    +0.000 HD
BRANCH  18  20
ATOM     20  C   UNL     1      -2.196  10.066  16.903  0.00  0.00    +0.000 A 
ATOM     21  C   UNL     1      -2.225   9.742  15.545  0.00  0.00    +0.000 A 
ATOM     22  C   UNL     1      -3.295  10.151  14.741  0.00  0.00    +0.000 A 
ATOM     23  C   UNL     1      -4.342  10.890  15.290  0.00  0.00    +0.000 A 
ATOM     24  C   UNL     1      -4.327  11.185  16.650  0.00  0.00    +0.000 A 
ATOM     25 BR   UNL     1      -5.734  12.204  17.400  0.00  0.00    +0.000 Br
ATOM     26  C   UNL     1      -3.275  10.763  17.459  0.00  0.00    +0.000 A 
ENDBRANCH  18  20
ENDBRANCH   2  16
BRANCH   1  27
ATOM     27  N   UNL     1       2.183  10.710  17.831  0.00  0.00    +0.000 N 
ATOM     28  H   UNL     1       3.149  10.954  18.087  0.00  0.00    +0.000 HD
ATOM     29  H   UNL     1       1.722  11.618  17.810  0.00  0.00    +0.000 HD
ENDBRANCH   1  27
TORSDOF 3
ENDMDL
MODEL 8
REMARK VINA RESULT:      -7.2      4.773      6.820
REMARK  Name = 
REMARK  3 active torsions:
REMARK  status: ('A' for Active; 'I' for Inactive)
REMARK    1  A    between atoms: N_1  and  C_2
REMARK    2  A    between atoms: C_3  and  C_4
REMARK    3  A    between atoms: N_6  and  C_7
REMARK                            x       y       z     vdW  Elec       q    Type
REMARK                         _______ _______ _______ _____ _____    ______ ____
ROOT
ATOM      1  C   UNL     1       6.933   4.863  17.716  0.00  0.00    +0.000 A 
ATOM      2  C   UNL     1       6.556   5.570  16.586  0.00  0.00    +0.000 A 
ATOM      3  S   UNL     1       5.512   6.807  17.175  0.00  0.00    +0.000 S 
ATOM      4  C   UNL     1       4.914   5.683  18.328  0.00  0.00    +0.000 A 
ATOM      5  N   UNL     1       3.753   5.890  18.958  0.00  0.00    +0.000 NA
ATOM      6  C   UNL     1       3.244   4.743  19.437  0.00  0.00    +0.000 A 
ATOM      7  C   UNL     1       3.787   3.455  19.262  0.00  0.00    +0.000 A 
ATOM      8  C   UNL     1       5.104   3.331  18.833  0.00  0.00    +0.000 A 
ATOM      9  C   UNL     1       5.700   4.515  18.332  0.00  0.00    +0.000 A 
ATOM     10  N   UNL     1       2.877   2.352  19.451  0.00  0.00    +0.000 N 
ATOM     11  C   UNL     1       2.438   2.388  20.867  0.00  0.00    +0.000 C 
ATOM     12  C   UNL     1       1.885   3.785  21.238  0.00  0.00    +0.000 C 
ATOM     13  C   UNL     1       1.841   4.690  19.994  0.00  0.00    +0.000 C 
ATOM     14  C   UNL     1       1.036   4.002  18.889  0.00  0.00    +0.000 C 
ATOM     15  C   UNL     1       1.683   2.628  18.568  0.00  0.00    +0.000 C 
ENDROOT
BRANCH   2  16
ATOM     16  C   UNL     1       6.668   5.188  15.186  0.00  0.00    +0.000 C 
ATOM     17  O   UNL     1       7.754   5.126  14.618  0.00  0.00    +0.000 OA
ATOM     18  N   UNL     1       5.462   4.825  14.604  0.00  0.00    +0.000 N 
ATOM     19  H   UNL     1       4.631   5.089  15.109  0.00  0.00    +0.000 HD
BRANCH  18  20
ATOM     20  C   UNL     1       5.276   4.075  13.422  0.00  0.00    +0.000 A 
ATOM     21  C   UNL     1       4.067   4.015  12.724  0.00  0.00    +0.000 A 
ATOM     22  C   UNL     1       3.961   3.257  11.553  0.00  0.00    +0.000 A 
ATOM     23  C   UNL     1       5.064   2.551  11.074  0.00  0.00    +0.000 A 
ATOM     24  C   UNL     1       6.276   2.636  11.753  0.00  0.00    +0.000 A 
ATOM     25 BR   UNL     1       7.771   1.665  11.120  0.00  0.00    +0.000 Br
ATOM     26  C   UNL     1       6.392   3.405  12.908  0.00  0.00    +0.000 A 
ENDBRANCH  18  20
ENDBRANCH   2  16
BRANCH   1  27
ATOM     27  N   UNL     1       8.158   4.317  17.955  0.00  0.00    +0.000 N 
ATOM     28  H   UNL     1       8.179   3.342  17.628  0.00  0.00    +0.000 HD
ATOM     29  H   UNL     1       8.422   4.229  18.934  0.00  0.00    +0.000 HD
ENDBRANCH   1  27
TORSDOF 3
ENDMDL
MODEL 9
REMARK VINA RESULT:      -7.2     10.389     12.874
REMARK  Name = 
REMARK  3 active torsions:
REMARK  status: ('A' for Active; 'I' for Inactive)
REMARK    1  A    between atoms: N_1  and  C_2
REMARK    2  A    between atoms: C_3  and  C_4
REMARK    3  A    between atoms: N_6  and  C_7
REMARK                            x       y       z     vdW  Elec       q    Type
REMARK                         _______ _______ _______ _____ _____    ______ ____
ROOT
ATOM      1  C   UNL     1      -6.103  12.798  18.172  0.00  0.00    +0.000 A 
ATOM      2  C   UNL     1      -5.340  11.643  18.122  0.00  0.00    +0.000 A 
ATOM      3  S   UNL     1      -6.211  10.506  19.080  0.00  0.00    +0.000 S 
ATOM      4  C   UNL     1      -6.642  11.796  20.128  0.00  0.00    +0.000 A 
ATOM      5  N   UNL     1      -7.084  11.562  21.368  0.00  0.00    +0.000 NA
ATOM      6  C   UNL     1      -6.925  12.637  22.157  0.00  0.00    +0.000 A 
ATOM      7  C   UNL     1      -6.312  13.851  21.794  0.00  0.00    +0.000 A 
ATOM      8  C   UNL     1      -6.110  14.128  20.446  0.00  0.00    +0.000 A 
ATOM      9  C   UNL     1      -6.281  13.034  19.563  0.00  0.00    +0.000 A 
ATOM     10  N   UNL     1      -5.844  14.676  22.881  0.00  0.00    +0.000 N 
ATOM     11  C   UNL     1      -7.035  15.075  23.668  0.00  0.00    +0.000 C 
ATOM     12  C   UNL     1      -7.869  13.837  24.075  0.00  0.00    +0.000 C 
ATOM     13  C   UNL     1      -7.150  12.544  23.648  0.00  0.00    +0.000 C 
ATOM     14  C   UNL     1      -5.734  12.531  24.228  0.00  0.00    +0.000 C 
ATOM     15  C   UNL     1      -4.971  13.792  23.741  0.00  0.00    +0.000 C 
ENDROOT
BRANCH   2  16
ATOM     16  C   UNL     1      -3.957  11.476  17.704  0.00  0.00    +0.000 C 
ATOM     17  O   UNL     1      -3.628  11.522  16.523  0.00  0.00    +0.000 OA
ATOM     18  N   UNL     1      -3.062  11.351  18.758  0.00  0.00    +0.000 N 
ATOM     19  H   UNL     1      -3.466  11.145  19.658  0.00  0.00    +0.000 HD
BRANCH  18  20
ATOM     20  C   UNL     1      -1.664  11.541  18.718  0.00  0.00    +0.000 A 
ATOM     21  C   UNL     1      -1.044  12.777  18.916  0.00  0.00    +0.000 A 
ATOM     22  C   UNL     1       0.351  12.887  18.870  0.00  0.00    +0.000 A 
ATOM     23  C   UNL     1       1.134  11.760  18.623  0.00  0.00    +0.000 A 
ATOM     24  C   UNL     1       0.517  10.524  18.456  0.00  0.00    +0.000 A 
ATOM     25 BR   UNL     1       1.571   8.994  18.101  0.00  0.00    +0.000 Br
ATOM     26  C   UNL     1      -0.870  10.406  18.521  0.00  0.00    +0.000 A 
ENDBRANCH  18  20
ENDBRANCH   2  16
BRANCH   1  27
ATOM     27  N   UNL     1      -6.294  13.683  17.154  0.00  0.00    +0.000 N 
ATOM     28  H   UNL     1      -6.440  14.629  17.531  0.00  0.00    +0.000 HD
ATOM     29  H   UNL     1      -7.130  13.537  16.590  0.00  0.00    +0.000 HD
ENDBRANCH   1  27
TORSDOF 3
ENDMDL
