MODEL 1
REMARK VINA RESULT:      -7.3      0.000      0.000
REMARK  Name = 
REMARK  3 active torsions:
REMARK  status: ('A' for Active; 'I' for Inactive)
REMARK    1  A    between atoms: C_2  and  C_3
REMARK    2  A    between atoms: C_6  and  C_7
REMARK    3  A    between atoms: N_9  and  C_10
REMARK                            x       y       z     vdW  Elec       q    Type
REMARK                         _______ _______ _______ _____ _____    ______ ____
ROOT
ATOM      1  C   UNL     1       1.802   8.624  18.611  0.00  0.00    +0.000 C 
ATOM      2  O   UNL     1       1.902   9.058  17.467  0.00  0.00    +0.000 OA
ATOM      3  N   UNL     1       2.273   7.400  19.071  0.00  0.00    +0.000 N 
ATOM      4  H   UNL     1       1.970   7.089  19.985  0.00  0.00    +0.000 HD
ENDROOT
BRANCH   3   5
ATOM      5  C   UNL     1       2.974   6.450  18.278  0.00  0.00    +0.000 A 
ATOM      6  C   UNL     1       2.490   5.162  18.044  0.00  0.00    +0.000 A 
ATOM      7  C   UNL     1       3.225   4.236  17.301  0.00  0.00    +0.000 A 
ATOM      8  C   UNL     1       4.468   4.577  16.764  0.00  0.00    +0.000 A 
ATOM      9  C   UNL     1       5.212   3.637  16.034  0.00  0.00    +0.000 A 
ATOM     10  C   UNL     1       6.457   3.972  15.506  0.00  0.00    +0.000 A 
ATOM     11  C   UNL     1       6.970   5.250  15.705  0.00  0.00    +0.000 A 
ATOM     12  C   UNL     1       6.235   6.197  16.427  0.00  0.00    +0.000 A 
ATOM     13  C   UNL     1       4.973   5.880  16.968  0.00  0.00    +0.000 A 
ATOM     14  C   UNL     1       4.207   6.810  17.714  0.00  0.00    +0.000 A 
ENDBRANCH   3   5
BRANCH   1  18
ATOM     15  C   UNL     1      -0.491  10.872  21.463  0.00  0.00    +0.000 A 
ATOM     16  C   UNL     1       0.182   9.707  21.836  0.00  0.00    +0.000 A 
ATOM     17  C   UNL     1       0.934   9.007  20.891  0.00  0.00    +0.000 A 
ATOM     18  C   UNL     1       1.034   9.465  19.567  0.00  0.00    +0.000 A 
ATOM     19  C   UNL     1       0.352  10.626  19.188  0.00  0.00    +0.000 A 
ATOM     20  C   UNL     1      -0.409  11.325  20.138  0.00  0.00    +0.000 A 
BRANCH  15  22
ATOM     21  N   UNL     1      -1.888  12.177  23.219  0.00  0.00    +0.000 NA
ATOM     22  C   UNL     1      -1.265  11.593  22.432  0.00  0.00    +0.000 C 
ENDBRANCH  15  22
ENDBRANCH   1  18
TORSDOF 3
ENDMDL
MODEL 2
REMARK VINA RESULT:      -7.3      1.231      1.304
REMARK  Name = 
REMARK  3 active torsions:
REMARK  status: ('A' for Active; 'I' for Inactive)
REMARK    1  A    between atoms: C_2  and  C_3
REMARK    2  A    between atoms: C_6  and  C_7
REMARK    3  A    between atoms: N_9  and  C_10
REMARK                            x       y       z     vdW  Elec       q    Type
REMARK                         _______ _______ _______ _____ _____    ______ ____
ROOT
ATOM      1  C   UNL     1       1.546   7.848  20.401  0.00  0.00    +0.000 C 
ATOM      2  O   UNL     1       1.664   6.880  21.146  0.00  0.00    +0.000 OA
ATOM      3  N   UNL     1       2.015   7.944  19.096  0.00  0.00    +0.000 N 
ATOM      4  H   UNL     1       2.010   8.856  18.657  0.00  0.00    +0.000 HD
ENDROOT
BRANCH   3   5
ATOM      5  C   UNL     1       2.701   6.911  18.402  0.00  0.00    +0.000 A 
ATOM      6  C   UNL     1       2.193   5.615  18.285  0.00  0.00    +0.000 A 
ATOM      7  C   UNL     1       2.914   4.610  17.638  0.00  0.00    +0.000 A 
ATOM      8  C   UNL     1       4.167   4.875  17.083  0.00  0.00    +0.000 A 
ATOM      9  C   UNL     1       4.896   3.856  16.450  0.00  0.00    +0.000 A 
ATOM     10  C   UNL     1       6.152   4.115  15.904  0.00  0.00    +0.000 A 
ATOM     11  C   UNL     1       6.689   5.396  15.987  0.00  0.00    +0.000 A 
ATOM     12  C   UNL     1       5.969   6.422  16.611  0.00  0.00    +0.000 A 
ATOM     13  C   UNL     1       4.697   6.181  17.168  0.00  0.00    +0.000 A 
ATOM     14  C   UNL     1       3.945   7.191  17.817  0.00  0.00    +0.000 A 
ENDBRANCH   3   5
BRANCH   1  18
ATOM     15  C   UNL     1      -0.449  11.202  22.193  0.00  0.00    +0.000 A 
ATOM     16  C   UNL     1      -0.276  10.007  22.894  0.00  0.00    +0.000 A 
ATOM     17  C   UNL     1       0.393   8.940  22.292  0.00  0.00    +0.000 A 
ATOM     18  C   UNL     1       0.905   9.055  20.989  0.00  0.00    +0.000 A 
ATOM     19  C   UNL     1       0.723  10.246  20.280  0.00  0.00    +0.000 A 
ATOM     20  C   UNL     1       0.045  11.317  20.885  0.00  0.00    +0.000 A 
BRANCH  15  22
ATOM     21  N   UNL     1      -1.693  13.187  23.312  0.00  0.00    +0.000 NA
ATOM     22  C   UNL     1      -1.137  12.301  22.809  0.00  0.00    +0.000 C 
ENDBRANCH  15  22
ENDBRANCH   1  18
TORSDOF 3
ENDMDL
MODEL 3
REMARK VINA RESULT:      -7.3      1.967      8.610
REMARK  Name = 
REMARK  3 active torsions:
REMARK  status: ('A' for Active; 'I' for Inactive)
REMARK    1  A    between atoms: C_2  and  C_3
REMARK    2  A    between atoms: C_6  and  C_7
REMARK    3  A    between atoms: N_9  and  C_10
REMARK                            x       y       z     vdW  Elec       q    Type
REMARK                         _______ _______ _______ _____ _____    ______ ____
ROOT
ATOM      1  C   UNL     1       2.247   6.860  19.612  0.00  0.00    +0.000 C 
ATOM      2  O   UNL     1       1.784   6.080  20.439  0.00  0.00    +0.000 OA
ATOM      3  N   UNL     1       2.020   8.230  19.557  0.00  0.00    +0.000 N 
ATOM      4  H   UNL     1       2.315   8.726  18.725  0.00  0.00    +0.000 HD
ENDROOT
BRANCH   3   5
ATOM      5  C   UNL     1       1.217   8.957  20.477  0.00  0.00    +0.000 A 
ATOM      6  C   UNL     1       1.206   8.686  21.846  0.00  0.00    +0.000 A 
ATOM      7  C   UNL     1       0.369   9.387  22.717  0.00  0.00    +0.000 A 
ATOM      8  C   UNL     1      -0.480  10.388  22.240  0.00  0.00    +0.000 A 
ATOM      9  C   UNL     1      -1.333  11.076  23.116  0.00  0.00    +0.000 A 
ATOM     10  C   UNL     1      -2.188  12.068  22.642  0.00  0.00    +0.000 A 
ATOM     11  C   UNL     1      -2.198  12.379  21.286  0.00  0.00    +0.000 A 
ATOM     12  C   UNL     1      -1.348  11.703  20.403  0.00  0.00    +0.000 A 
ATOM     13  C   UNL     1      -0.475  10.698  20.862  0.00  0.00    +0.000 A 
ATOM     14  C   UNL     1       0.390   9.985  19.996  0.00  0.00    +0.000 A 
ENDBRANCH   3   5
BRANCH   1  18
ATOM     15  C   UNL     1       4.659   4.956  16.612  0.00  0.00    +0.000 A 
ATOM     16  C   UNL     1       3.843   4.208  17.463  0.00  0.00    +0.000 A 
ATOM     17  C   UNL     1       3.056   4.856  18.416  0.00  0.00    +0.000 A 
ATOM     18  C   UNL     1       3.065   6.256  18.526  0.00  0.00    +0.000 A 
ATOM     19  C   UNL     1       3.890   7.007  17.683  0.00  0.00    +0.000 A 
ATOM     20  C   UNL     1       4.685   6.354  16.728  0.00  0.00    +0.000 A 
BRANCH  15  22
ATOM     21  N   UNL     1       6.123   3.751  14.839  0.00  0.00    +0.000 NA
ATOM     22  C   UNL     1       5.469   4.293  15.631  0.00  0.00    +0.000 C 
ENDBRANCH  15  22
ENDBRANCH   1  18
TORSDOF 3
ENDMDL
MODEL 4
REMARK VINA RESULT:      -7.2      0.288      1.091
REMARK  Name = 
REMARK  3 active torsions:
REMARK  status: ('A' for Active; 'I' for Inactive)
REMARK    1  A    between atoms: C_2  and  C_3
REMARK    2  A    between atoms: C_6  and  C_7
REMARK    3  A    between atoms: N_9  and  C_10
REMARK                            x       y       z     vdW  Elec       q    Type
REMARK                         _______ _______ _______ _____ _____    ______ ____
ROOT
ATOM      1  C   UNL     1       1.805   8.387  18.911  0.00  0.00    +0.000 C 
ATOM      2  O   UNL     1       1.910   8.907  17.804  0.00  0.00    +0.000 OA
ATOM      3  N   UNL     1       2.281   7.134  19.280  0.00  0.00    +0.000 N 
ATOM      4  H   UNL     1       1.973   6.753  20.165  0.00  0.00    +0.000 HD
ENDROOT
BRANCH   3   5
ATOM      5  C   UNL     1       2.993   6.252  18.422  0.00  0.00    +0.000 A 
ATOM      6  C   UNL     1       2.543   4.963  18.126  0.00  0.00    +0.000 A 
ATOM      7  C   UNL     1       3.291   4.104  17.318  0.00  0.00    +0.000 A 
ATOM      8  C   UNL     1       4.512   4.512  16.779  0.00  0.00    +0.000 A 
ATOM      9  C   UNL     1       5.268   3.638  15.983  0.00  0.00    +0.000 A 
ATOM     10  C   UNL     1       6.491   4.040  15.452  0.00  0.00    +0.000 A 
ATOM     11  C   UNL     1       6.969   5.320  15.711  0.00  0.00    +0.000 A 
ATOM     12  C   UNL     1       6.221   6.203  16.499  0.00  0.00    +0.000 A 
ATOM     13  C   UNL     1       4.981   5.818  17.045  0.00  0.00    +0.000 A 
ATOM     14  C   UNL     1       4.203   6.680  17.855  0.00  0.00    +0.000 A 
ENDBRANCH   3   5
BRANCH   1  18
ATOM     15  C   UNL     1      -0.397  10.767  21.727  0.00  0.00    +0.000 A 
ATOM     16  C   UNL     1      -0.417  11.062  20.362  0.00  0.00    +0.000 A 
ATOM     17  C   UNL     1       0.294  10.259  19.468  0.00  0.00    +0.000 A 
ATOM     18  C   UNL     1       1.024   9.148  19.922  0.00  0.00    +0.000 A 
ATOM     19  C   UNL     1       1.055   8.857  21.290  0.00  0.00    +0.000 A 
ATOM     20  C   UNL     1       0.345   9.669  22.188  0.00  0.00    +0.000 A 
BRANCH  15  22
ATOM     21  N   UNL     1      -1.718  12.253  23.397  0.00  0.00    +0.000 NA
ATOM     22  C   UNL     1      -1.126  11.590  22.648  0.00  0.00    +0.000 C 
ENDBRANCH  15  22
ENDBRANCH   1  18
TORSDOF 3
ENDMDL
MODEL 5
REMARK VINA RESULT:      -7.2      2.052      8.542
REMARK  Name = 
REMARK  3 active torsions:
REMARK  status: ('A' for Active; 'I' for Inactive)
REMARK    1  A    between atoms: C_2  and  C_3
REMARK    2  A    between atoms: C_6  and  C_7
REMARK    3  A    between atoms: N_9  and  C_10
REMARK                            x       y       z     vdW  Elec       q    Type
REMARK                         _______ _______ _______ _____ _____    ______ ____
ROOT
ATOM      1  C   UNL     1       2.864   6.963  18.647  0.00  0.00    +0.000 C 
ATOM      2  O   UNL     1       2.670   6.424  19.732  0.00  0.00    +0.000 OA
ATOM      3  N   UNL     1       2.335   8.177  18.226  0.00  0.00    +0.000 N 
ATOM      4  H   UNL     1       2.428   8.421  17.248  0.00  0.00    +0.000 HD
ENDROOT
BRANCH   3   5
ATOM      5  C   UNL     1       1.487   9.008  19.008  0.00  0.00    +0.000 A 
ATOM      6  C   UNL     1       0.908  10.177  18.509  0.00  0.00    +0.000 A 
ATOM      7  C   UNL     1       0.119  10.996  19.318  0.00  0.00    +0.000 A 
ATOM      8  C   UNL     1      -0.119  10.666  20.653  0.00  0.00    +0.000 A 
ATOM      9  C   UNL     1      -0.898  11.503  21.467  0.00  0.00    +0.000 A 
ATOM     10  C   UNL     1      -1.129  11.180  22.803  0.00  0.00    +0.000 A 
ATOM     11  C   UNL     1      -0.582  10.017  23.336  0.00  0.00    +0.000 A 
ATOM     12  C   UNL     1       0.193   9.172  22.532  0.00  0.00    +0.000 A 
ATOM     13  C   UNL     1       0.437   9.479  21.179  0.00  0.00    +0.000 A 
ATOM     14  C   UNL     1       1.224   8.653  20.340  0.00  0.00    +0.000 A 
ENDBRANCH   3   5
BRANCH   1  18
ATOM     15  C   UNL     1       5.190   4.907  15.679  0.00  0.00    +0.000 A 
ATOM     16  C   UNL     1       5.251   6.296  15.809  0.00  0.00    +0.000 A 
ATOM     17  C   UNL     1       4.498   6.935  16.795  0.00  0.00    +0.000 A 
ATOM     18  C   UNL     1       3.682   6.197  17.669  0.00  0.00    +0.000 A 
ATOM     19  C   UNL     1       3.610   4.807  17.534  0.00  0.00    +0.000 A 
ATOM     20  C   UNL     1       4.364   4.166  16.538  0.00  0.00    +0.000 A 
BRANCH  15  22
ATOM     21  N   UNL     1       6.593   3.715  13.849  0.00  0.00    +0.000 NA
ATOM     22  C   UNL     1       5.963   4.247  14.666  0.00  0.00    +0.000 C 
ENDBRANCH  15  22
ENDBRANCH   1  18
TORSDOF 3
ENDMDL
MODEL 6
REMARK VINA RESULT:      -7.2      2.022      8.593
REMARK  Name = 
REMARK  3 active torsions:
REMARK  status: ('A' for Active; 'I' for Inactive)
REMARK    1  A    between atoms: C_2  and  C_3
REMARK    2  A    between atoms: C_6  and  C_7
REMARK    3  A    between atoms: N_9  and  C_10
REMARK                            x       y       z     vdW  Elec       q    Type
REMARK                         _______ _______ _______ _____ _____    ______ ____
ROOT
ATOM      1  C   UNL     1       2.305   6.548  19.639  0.00  0.00    +0.000 C 
ATOM      2  O   UNL     1       1.819   5.814  20.495  0.00  0.00    +0.000 OA
ATOM      3  N   UNL     1       2.109   7.919  19.524  0.00  0.00    +0.000 N 
ATOM      4  H   UNL     1       2.421   8.372  18.675  0.00  0.00    +0.000 HD
ENDROOT
BRANCH   3   5
ATOM      5  C   UNL     1       1.317   8.703  20.406  0.00  0.00    +0.000 A 
ATOM      6  C   UNL     1       1.261   8.466  21.781  0.00  0.00    +0.000 A 
ATOM      7  C   UNL     1       0.435   9.223  22.614  0.00  0.00    +0.000 A 
ATOM      8  C   UNL     1      -0.359  10.247  22.093  0.00  0.00    +0.000 A 
ATOM      9  C   UNL     1      -1.201  10.993  22.931  0.00  0.00    +0.000 A 
ATOM     10  C   UNL     1      -2.002  12.008  22.412  0.00  0.00    +0.000 A 
ATOM     11  C   UNL     1      -1.966  12.286  21.049  0.00  0.00    +0.000 A 
ATOM     12  C   UNL     1      -1.125  11.552  20.204  0.00  0.00    +0.000 A 
ATOM     13  C   UNL     1      -0.307  10.523  20.708  0.00  0.00    +0.000 A 
ATOM     14  C   UNL     1       0.547   9.753  19.882  0.00  0.00    +0.000 A 
ENDBRANCH   3   5
BRANCH   1  18
ATOM     15  C   UNL     1       4.626   4.800  16.476  0.00  0.00    +0.000 A 
ATOM     16  C   UNL     1       4.761   6.149  16.810  0.00  0.00    +0.000 A 
ATOM     17  C   UNL     1       4.007   6.685  17.854  0.00  0.00    +0.000 A 
ATOM     18  C   UNL     1       3.116   5.881  18.586  0.00  0.00    +0.000 A 
ATOM     19  C   UNL     1       2.970   4.533  18.247  0.00  0.00    +0.000 A 
ATOM     20  C   UNL     1       3.725   3.996  17.192  0.00  0.00    +0.000 A 
BRANCH  15  22
ATOM     21  N   UNL     1       6.030   3.799  14.536  0.00  0.00    +0.000 NA
ATOM     22  C   UNL     1       5.399   4.246  15.403  0.00  0.00    +0.000 C 
ENDBRANCH  15  22
ENDBRANCH   1  18
TORSDOF 3
ENDMDL
MODEL 7
REMARK VINA RESULT:      -7.1      1.276      1.679
REMARK  Name = 
REMARK  3 active torsions:
REMARK  status: ('A' for Active; 'I' for Inactive)
REMARK    1  A    between atoms: C_2  and  C_3
REMARK    2  A    between atoms: C_6  and  C_7
REMARK    3  A    between atoms: N_9  and  C_10
REMARK                            x       y       z     vdW  Elec       q    Type
REMARK                         _______ _______ _______ _____ _____    ______ ____
ROOT
ATOM      1  C   UNL     1       1.436   7.715  20.438  0.00  0.00    +0.000 C 
ATOM      2  O   UNL     1       1.545   6.723  21.152  0.00  0.00    +0.000 OA
ATOM      3  N   UNL     1       1.943   7.863  19.152  0.00  0.00    +0.000 N 
ATOM      4  H   UNL     1       1.937   8.789  18.745  0.00  0.00    +0.000 HD
ENDROOT
BRANCH   3   5
ATOM      5  C   UNL     1       2.665   6.864  18.445  0.00  0.00    +0.000 A 
ATOM      6  C   UNL     1       2.195   5.558  18.295  0.00  0.00    +0.000 A 
ATOM      7  C   UNL     1       2.951   4.587  17.635  0.00  0.00    +0.000 A 
ATOM      8  C   UNL     1       4.202   4.898  17.100  0.00  0.00    +0.000 A 
ATOM      9  C   UNL     1       4.966   3.914  16.454  0.00  0.00    +0.000 A 
ATOM     10  C   UNL     1       6.220   4.219  15.928  0.00  0.00    +0.000 A 
ATOM     11  C   UNL     1       6.720   5.512  16.044  0.00  0.00    +0.000 A 
ATOM     12  C   UNL     1       5.965   6.504  16.681  0.00  0.00    +0.000 A 
ATOM     13  C   UNL     1       4.695   6.217  17.218  0.00  0.00    +0.000 A 
ATOM     14  C   UNL     1       3.908   7.191  17.880  0.00  0.00    +0.000 A 
ENDBRANCH   3   5
BRANCH   1  18
ATOM     15  C   UNL     1      -0.356  11.235  22.123  0.00  0.00    +0.000 A 
ATOM     16  C   UNL     1       0.256  11.267  20.868  0.00  0.00    +0.000 A 
ATOM     17  C   UNL     1       0.813  10.103  20.338  0.00  0.00    +0.000 A 
ATOM     18  C   UNL     1       0.760   8.891  21.047  0.00  0.00    +0.000 A 
ATOM     19  C   UNL     1       0.158   8.859  22.309  0.00  0.00    +0.000 A 
ATOM     20  C   UNL     1      -0.397  10.032  22.843  0.00  0.00    +0.000 A 
BRANCH  15  22
ATOM     21  N   UNL     1      -1.390  13.399  23.118  0.00  0.00    +0.000 NA
ATOM     22  C   UNL     1      -0.929  12.431  22.671  0.00  0.00    +0.000 C 
ENDBRANCH  15  22
ENDBRANCH   1  18
TORSDOF 3
ENDMDL
MODEL 8
REMARK VINA RESULT:      -7.1      6.236      8.201
REMARK  Name = 
REMARK  3 active torsions:
REMARK  status: ('A' for Active; 'I' for Inactive)
REMARK    1  A    between atoms: C_2  and  C_3
REMARK    2  A    between atoms: C_6  and  C_7
REMARK    3  A    between atoms: N_9  and  C_10
REMARK                            x       y       z     vdW  Elec       q    Type
REMARK                         _______ _______ _______ _____ _____    ______ ____
ROOT
ATOM      1  C   UNL     1       8.940  10.168  18.566  0.00  0.00    +0.000 C 
ATOM      2  O   UNL     1       9.214   9.801  19.705  0.00  0.00    +0.000 OA
ATOM      3  N   UNL     1       8.223   9.447  17.619  0.00  0.00    +0.000 N 
ATOM      4  H   UNL     1       8.221   9.787  16.666  0.00  0.00    +0.000 HD
ENDROOT
BRANCH   3   5
ATOM      5  C   UNL     1       7.669   8.155  17.832  0.00  0.00    +0.000 A 
ATOM      6  C   UNL     1       8.287   7.192  18.632  0.00  0.00    +0.000 A 
ATOM      7  C   UNL     1       7.741   5.916  18.782  0.00  0.00    +0.000 A 
ATOM      8  C   UNL     1       6.553   5.567  18.137  0.00  0.00    +0.000 A 
ATOM      9  C   UNL     1       6.018   4.277  18.276  0.00  0.00    +0.000 A 
ATOM     10  C   UNL     1       4.838   3.924  17.625  0.00  0.00    +0.000 A 
ATOM     11  C   UNL     1       4.183   4.858  16.829  0.00  0.00    +0.000 A 
ATOM     12  C   UNL     1       4.704   6.149  16.688  0.00  0.00    +0.000 A 
ATOM     13  C   UNL     1       5.895   6.528  17.338  0.00  0.00    +0.000 A 
ATOM     14  C   UNL     1       6.457   7.821  17.208  0.00  0.00    +0.000 A 
ENDBRANCH   3   5
BRANCH   1  18
ATOM     15  C   UNL     1      10.740  13.909  17.465  0.00  0.00    +0.000 A 
ATOM     16  C   UNL     1      11.490  12.732  17.506  0.00  0.00    +0.000 A 
ATOM     17  C   UNL     1      10.874  11.528  17.850  0.00  0.00    +0.000 A 
ATOM     18  C   UNL     1       9.502  11.480  18.146  0.00  0.00    +0.000 A 
ATOM     19  C   UNL     1       8.750  12.659  18.118  0.00  0.00    +0.000 A 
ATOM     20  C   UNL     1       9.373  13.870  17.777  0.00  0.00    +0.000 A 
BRANCH  15  22
ATOM     21  N   UNL     1      11.886  16.150  16.831  0.00  0.00    +0.000 NA
ATOM     22  C   UNL     1      11.371  15.148  17.113  0.00  0.00    +0.000 C 
ENDBRANCH  15  22
ENDBRANCH   1  18
TORSDOF 3
ENDMDL
MODEL 9
REMARK VINA RESULT:      -7.0      2.649      8.391
REMARK  Name = 
REMARK  3 active torsions:
REMARK  status: ('A' for Active; 'I' for Inactive)
REMARK    1  A    between atoms: C_2  and  C_3
REMARK    2  A    between atoms: C_6  and  C_7
REMARK    3  A    between atoms: N_9  and  C_10
REMARK                            x       y       z     vdW  Elec       q    Type
REMARK                         _______ _______ _______ _____ _____    ______ ____
ROOT
ATOM      1  C   UNL     1       2.336   7.840  18.762  0.00  0.00    +0.000 C 
ATOM      2  O   UNL     1       1.843   7.475  19.825  0.00  0.00    +0.000 OA
ATOM      3  N   UNL     1       1.856   8.851  17.937  0.00  0.00    +0.000 N 
ATOM      4  H   UNL     1       2.249   8.931  17.008  0.00  0.00    +0.000 HD
ENDROOT
BRANCH   3   5
ATOM      5  C   UNL     1       0.710   9.646  18.210  0.00  0.00    +0.000 A 
ATOM      6  C   UNL     1       0.686  10.611  19.219  0.00  0.00    +0.000 A 
ATOM      7  C   UNL     1      -0.472  11.342  19.494  0.00  0.00    +0.000 A 
ATOM      8  C   UNL     1      -1.641  11.130  18.761  0.00  0.00    +0.000 A 
ATOM      9  C   UNL     1      -2.807  11.854  19.054  0.00  0.00    +0.000 A 
ATOM     10  C   UNL     1      -3.978  11.638  18.331  0.00  0.00    +0.000 A 
ATOM     11  C   UNL     1      -3.993  10.695  17.309  0.00  0.00    +0.000 A 
ATOM     12  C   UNL     1      -2.835   9.970  17.004  0.00  0.00    +0.000 A 
ATOM     13  C   UNL     1      -1.640  10.175  17.721  0.00  0.00    +0.000 A 
ATOM     14  C   UNL     1      -0.453   9.452  17.448  0.00  0.00    +0.000 A 
ENDBRANCH   3   5
BRANCH   1  18
ATOM     15  C   UNL     1       5.803   5.594  17.589  0.00  0.00    +0.000 A 
ATOM     16  C   UNL     1       5.086   5.265  18.741  0.00  0.00    +0.000 A 
ATOM     17  C   UNL     1       3.952   6.001  19.087  0.00  0.00    +0.000 A 
ATOM     18  C   UNL     1       3.514   7.068  18.284  0.00  0.00    +0.000 A 
ATOM     19  C   UNL     1       4.236   7.407  17.136  0.00  0.00    +0.000 A 
ATOM     20  C   UNL     1       5.379   6.669  16.792  0.00  0.00    +0.000 A 
BRANCH  15  22
ATOM     21  N   UNL     1       7.916   4.230  16.943  0.00  0.00    +0.000 NA
ATOM     22  C   UNL     1       6.969   4.838  17.231  0.00  0.00    +0.000 C 
ENDBRANCH  15  22
ENDBRANCH   1  18
TORSDOF 3
ENDMDL
