MODEL 1
REMARK VINA RESULT:      -8.2      0.000      0.000
REMARK  Name = 
REMARK  7 active torsions:
REMARK  status: ('A' for Active; 'I' for Inactive)
REMARK    1  A    between atoms: C_1  and  O_2
REMARK    2  A    between atoms: O_2  and  C_3
REMARK    3  A    between atoms: C_8  and  C_9
REMARK    4  A    between atoms: C_11  and  C_12
REMARK    5  A    between atoms: C_14  and  N_15
REMARK    6  A    between atoms: C_18  and  C_19
REMARK    7  A    between atoms: C_19  and  C_20
REMARK                            x       y       z     vdW  Elec       q    Type
REMARK                         _______ _______ _______ _____ _____    ______ ____
ROOT
ATOM      1  C   UNL     1       1.916   7.510  20.062  0.00  0.00    +0.000 A 
ATOM      2  N   UNL     1       1.603   6.448  20.794  0.00  0.00    +0.000 NA
ATOM      3  C   UNL     1       2.457   5.468  20.334  0.00  0.00    +0.000 A 
ATOM      4  C   UNL     1       3.281   5.968  19.338  0.00  0.00    +0.000 A 
ATOM      5  O   UNL     1       2.933   7.286  19.187  0.00  0.00    +0.000 OA
ENDROOT
BRANCH   1  11
ATOM      6  C   UNL     1       0.798   9.542  21.153  0.00  0.00    +0.000 A 
ATOM      7  C   UNL     1       0.273  10.835  20.981  0.00  0.00    +0.000 A 
ATOM      8  C   UNL     1       0.103  11.383  19.715  0.00  0.00    +0.000 A 
ATOM      9  C   UNL     1       0.491  10.663  18.600  0.00  0.00    +0.000 A 
ATOM     10  C   UNL     1       1.074   9.404  18.754  0.00  0.00    +0.000 A 
ATOM     11  C   UNL     1       1.253   8.819  20.029  0.00  0.00    +0.000 A 
BRANCH   6  13
ATOM     12  C   UNL     1      -0.057   9.516  23.353  0.00  0.00    +0.000 C 
ATOM     13  O   UNL     1       0.888   8.993  22.414  0.00  0.00    +0.000 OA
ENDBRANCH   6  13
ENDBRANCH   1  11
BRANCH   4  14
ATOM     14  N   UNL     1       4.261   5.503  18.521  0.00  0.00    +0.000 N 
ATOM     15  C   UNL     1       5.571   5.088  19.016  0.00  0.00    +0.000 C 
ATOM     16  C   UNL     1       6.642   5.988  18.399  0.00  0.00    +0.000 C 
ATOM     17  C   UNL     1       6.599   5.955  16.862  0.00  0.00    +0.000 C 
ATOM     18  C   UNL     1       5.181   6.372  16.415  0.00  0.00    +0.000 C 
ATOM     19  C   UNL     1       4.088   5.522  17.065  0.00  0.00    +0.000 C 
BRANCH  17  20
ATOM     20  C   UNL     1       6.989   4.588  16.248  0.00  0.00    +0.000 C 
BRANCH  20  21
ATOM     21  C   UNL     1       6.922   4.500  14.740  0.00  0.00    +0.000 A 
ATOM     22  C   UNL     1       7.789   5.267  13.946  0.00  0.00    +0.000 A 
ATOM     23  C   UNL     1       7.764   5.159  12.554  0.00  0.00    +0.000 A 
ATOM     24  C   UNL     1       6.890   4.266  11.938  0.00  0.00    +0.000 A 
ATOM     25  C   UNL     1       6.027   3.496  12.714  0.00  0.00    +0.000 A 
ATOM     26  C   UNL     1       6.037   3.618  14.107  0.00  0.00    +0.000 A 
ENDBRANCH  20  21
ENDBRANCH  17  20
ENDBRANCH   4  14
BRANCH   3  27
ATOM     27  C   UNL     1       2.373   4.122  20.824  0.00  0.00    +0.000 C 
ATOM     28  N   UNL     1       2.307   3.028  21.204  0.00  0.00    +0.000 NA
ENDBRANCH   3  27
TORSDOF 6
ENDMDL
MODEL 2
REMARK VINA RESULT:      -8.1      0.990      1.789
REMARK  Name = 
REMARK  7 active torsions:
REMARK  status: ('A' for Active; 'I' for Inactive)
REMARK    1  A    between atoms: C_1  and  O_2
REMARK    2  A    between atoms: O_2  and  C_3
REMARK    3  A    between atoms: C_8  and  C_9
REMARK    4  A    between atoms: C_11  and  C_12
REMARK    5  A    between atoms: C_14  and  N_15
REMARK    6  A    between atoms: C_18  and  C_19
REMARK    7  A    between atoms: C_19  and  C_20
REMARK                            x       y       z     vdW  Elec       q    Type
REMARK                         _______ _______ _______ _____ _____    ______ ____
ROOT
ATOM      1  C   UNL     1       1.888   7.024  20.414  0.00  0.00    +0.000 A 
ATOM      2  N   UNL     1       1.470   5.846  20.860  0.00  0.00    +0.000 NA
ATOM      3  C   UNL     1       2.306   4.943  20.238  0.00  0.00    +0.000 A 
ATOM      4  C   UNL     1       3.224   5.602  19.436  0.00  0.00    +0.000 A 
ATOM      5  O   UNL     1       2.954   6.940  19.573  0.00  0.00    +0.000 OA
ENDROOT
BRANCH   1  11
ATOM      6  C   UNL     1       0.934   9.275  19.644  0.00  0.00    +0.000 A 
ATOM      7  C   UNL     1       0.278  10.465  20.004  0.00  0.00    +0.000 A 
ATOM      8  C   UNL     1       0.061  10.795  21.338  0.00  0.00    +0.000 A 
ATOM      9  C   UNL     1       0.461   9.922  22.333  0.00  0.00    +0.000 A 
ATOM     10  C   UNL     1       1.056   8.706  21.991  0.00  0.00    +0.000 A 
ATOM     11  C   UNL     1       1.295   8.347  20.645  0.00  0.00    +0.000 A 
BRANCH   6  13
ATOM     12  C   UNL     1       2.254   9.802  17.759  0.00  0.00    +0.000 C 
ATOM     13  O   UNL     1       1.204   9.006  18.319  0.00  0.00    +0.000 OA
ENDBRANCH   6  13
ENDBRANCH   1  11
BRANCH   4  14
ATOM     14  N   UNL     1       4.237   5.272  18.594  0.00  0.00    +0.000 N 
ATOM     15  C   UNL     1       5.616   5.105  19.045  0.00  0.00    +0.000 C 
ATOM     16  C   UNL     1       6.496   6.143  18.349  0.00  0.00    +0.000 C 
ATOM     17  C   UNL     1       6.402   6.037  16.817  0.00  0.00    +0.000 C 
ATOM     18  C   UNL     1       4.918   6.191  16.419  0.00  0.00    +0.000 C 
ATOM     19  C   UNL     1       4.009   5.199  17.148  0.00  0.00    +0.000 C 
BRANCH  17  20
ATOM     20  C   UNL     1       6.994   4.730  16.237  0.00  0.00    +0.000 C 
BRANCH  20  21
ATOM     21  C   UNL     1       6.931   4.589  14.733  0.00  0.00    +0.000 A 
ATOM     22  C   UNL     1       7.773   5.357  13.914  0.00  0.00    +0.000 A 
ATOM     23  C   UNL     1       7.754   5.202  12.526  0.00  0.00    +0.000 A 
ATOM     24  C   UNL     1       6.910   4.261  11.941  0.00  0.00    +0.000 A 
ATOM     25  C   UNL     1       6.073   3.489  12.742  0.00  0.00    +0.000 A 
ATOM     26  C   UNL     1       6.077   3.657  14.130  0.00  0.00    +0.000 A 
ENDBRANCH  20  21
ENDBRANCH  17  20
ENDBRANCH   4  14
BRANCH   3  27
ATOM     27  C   UNL     1       2.120   3.529  20.397  0.00  0.00    +0.000 C 
ATOM     28  N   UNL     1       1.979   2.384  20.512  0.00  0.00    +0.000 NA
ENDBRANCH   3  27
TORSDOF 6
ENDMDL
MODEL 3
REMARK VINA RESULT:      -7.4      1.038      2.301
REMARK  Name = 
REMARK  7 active torsions:
REMARK  status: ('A' for Active; 'I' for Inactive)
REMARK    1  A    between atoms: C_1  and  O_2
REMARK    2  A    between atoms: O_2  and  C_3
REMARK    3  A    between atoms: C_8  and  C_9
REMARK    4  A    between atoms: C_11  and  C_12
REMARK    5  A    between atoms: C_14  and  N_15
REMARK    6  A    between atoms: C_18  and  C_19
REMARK    7  A    between atoms: C_19  and  C_20
REMARK                            x       y       z     vdW  Elec       q    Type
REMARK                         _______ _______ _______ _____ _____    ______ ____
ROOT
ATOM      1  C   UNL     1       1.618   7.359  20.603  0.00  0.00    +0.000 A 
ATOM      2  N   UNL     1       1.315   6.132  21.011  0.00  0.00    +0.000 NA
ATOM      3  C   UNL     1       2.183   5.327  20.304  0.00  0.00    +0.000 A 
ATOM      4  C   UNL     1       3.004   6.092  19.491  0.00  0.00    +0.000 A 
ATOM      5  O   UNL     1       2.640   7.396  19.707  0.00  0.00    +0.000 OA
ENDROOT
BRANCH   1  11
ATOM      6  C   UNL     1       0.600   9.634  20.007  0.00  0.00    +0.000 A 
ATOM      7  C   UNL     1      -0.144  10.745  20.441  0.00  0.00    +0.000 A 
ATOM      8  C   UNL     1      -0.474  10.916  21.781  0.00  0.00    +0.000 A 
ATOM      9  C   UNL     1      -0.099   9.957  22.705  0.00  0.00    +0.000 A 
ATOM     10  C   UNL     1       0.585   8.815  22.282  0.00  0.00    +0.000 A 
ATOM     11  C   UNL     1       0.939   8.619  20.928  0.00  0.00    +0.000 A 
BRANCH   6  13
ATOM     12  C   UNL     1       1.691  10.662  18.183  0.00  0.00    +0.000 C 
ATOM     13  O   UNL     1       0.978   9.527  18.686  0.00  0.00    +0.000 OA
ENDBRANCH   6  13
ENDBRANCH   1  11
BRANCH   4  14
ATOM     14  N   UNL     1       3.993   5.881  18.583  0.00  0.00    +0.000 N 
ATOM     15  C   UNL     1       3.745   5.825  17.145  0.00  0.00    +0.000 C 
ATOM     16  C   UNL     1       4.125   4.436  16.631  0.00  0.00    +0.000 C 
ATOM     17  C   UNL     1       5.589   4.090  16.951  0.00  0.00    +0.000 C 
ATOM     18  C   UNL     1       5.782   4.201  18.479  0.00  0.00    +0.000 C 
ATOM     19  C   UNL     1       5.354   5.565  19.026  0.00  0.00    +0.000 C 
BRANCH  17  20
ATOM     20  C   UNL     1       6.624   4.963  16.201  0.00  0.00    +0.000 C 
BRANCH  20  21
ATOM     21  C   UNL     1       6.786   4.672  14.726  0.00  0.00    +0.000 A 
ATOM     22  C   UNL     1       5.994   3.692  14.106  0.00  0.00    +0.000 A 
ATOM     23  C   UNL     1       6.105   3.448  12.735  0.00  0.00    +0.000 A 
ATOM     24  C   UNL     1       6.990   4.195  11.962  0.00  0.00    +0.000 A 
ATOM     25  C   UNL     1       7.778   5.174  12.563  0.00  0.00    +0.000 A 
ATOM     26  C   UNL     1       7.683   5.406  13.939  0.00  0.00    +0.000 A 
ENDBRANCH  20  21
ENDBRANCH  17  20
ENDBRANCH   4  14
BRANCH   3  27
ATOM     27  C   UNL     1       2.114   3.897  20.403  0.00  0.00    +0.000 C 
ATOM     28  N   UNL     1       2.044   2.742  20.474  0.00  0.00    +0.000 NA
ENDBRANCH   3  27
TORSDOF 6
ENDMDL
MODEL 4
REMARK VINA RESULT:      -7.4      2.978      4.874
REMARK  Name = 
REMARK  7 active torsions:
REMARK  status: ('A' for Active; 'I' for Inactive)
REMARK    1  A    between atoms: C_1  and  O_2
REMARK    2  A    between atoms: O_2  and  C_3
REMARK    3  A    between atoms: C_8  and  C_9
REMARK    4  A    between atoms: C_11  and  C_12
REMARK    5  A    between atoms: C_14  and  N_15
REMARK    6  A    between atoms: C_18  and  C_19
REMARK    7  A    between atoms: C_19  and  C_20
REMARK                            x       y       z     vdW  Elec       q    Type
REMARK                         _______ _______ _______ _____ _____    ______ ____
ROOT
ATOM      1  C   UNL     1      -1.057  10.189  18.865  0.00  0.00    +0.000 A 
ATOM      2  N   UNL     1      -1.017  10.553  20.141  0.00  0.00    +0.000 NA
ATOM      3  C   UNL     1       0.073   9.874  20.643  0.00  0.00    +0.000 A 
ATOM      4  C   UNL     1       0.678   9.122  19.649  0.00  0.00    +0.000 A 
ATOM      5  O   UNL     1      -0.049   9.348  18.509  0.00  0.00    +0.000 OA
ENDROOT
BRANCH   1  11
ATOM      6  C   UNL     1      -3.164  11.392  18.039  0.00  0.00    +0.000 A 
ATOM      7  C   UNL     1      -4.009  11.682  16.953  0.00  0.00    +0.000 A 
ATOM      8  C   UNL     1      -3.857  11.042  15.728  0.00  0.00    +0.000 A 
ATOM      9  C   UNL     1      -2.832  10.129  15.555  0.00  0.00    +0.000 A 
ATOM     10  C   UNL     1      -1.944   9.876  16.602  0.00  0.00    +0.000 A 
ATOM     11  C   UNL     1      -2.078  10.507  17.860  0.00  0.00    +0.000 A 
BRANCH   6  13
ATOM     12  C   UNL     1      -4.740  12.370  19.498  0.00  0.00    +0.000 C 
ATOM     13  O   UNL     1      -3.382  11.984  19.264  0.00  0.00    +0.000 OA
ENDBRANCH   6  13
ENDBRANCH   1  11
BRANCH   4  14
ATOM     14  N   UNL     1       1.724   8.262  19.540  0.00  0.00    +0.000 N 
ATOM     15  C   UNL     1       2.500   8.115  18.311  0.00  0.00    +0.000 C 
ATOM     16  C   UNL     1       2.354   6.682  17.800  0.00  0.00    +0.000 C 
ATOM     17  C   UNL     1       2.794   5.652  18.855  0.00  0.00    +0.000 C 
ATOM     18  C   UNL     1       1.956   5.888  20.130  0.00  0.00    +0.000 C 
ATOM     19  C   UNL     1       2.041   7.333  20.628  0.00  0.00    +0.000 C 
BRANCH  17  20
ATOM     20  C   UNL     1       4.308   5.685  19.177  0.00  0.00    +0.000 C 
BRANCH  20  21
ATOM     21  C   UNL     1       5.234   5.391  18.020  0.00  0.00    +0.000 A 
ATOM     22  C   UNL     1       4.994   4.291  17.181  0.00  0.00    +0.000 A 
ATOM     23  C   UNL     1       5.818   4.037  16.083  0.00  0.00    +0.000 A 
ATOM     24  C   UNL     1       6.880   4.891  15.795  0.00  0.00    +0.000 A 
ATOM     25  C   UNL     1       7.128   5.988  16.616  0.00  0.00    +0.000 A 
ATOM     26  C   UNL     1       6.315   6.233  17.727  0.00  0.00    +0.000 A 
ENDBRANCH  20  21
ENDBRANCH  17  20
ENDBRANCH   4  14
BRANCH   3  27
ATOM     27  C   UNL     1       0.408   9.937  22.037  0.00  0.00    +0.000 C 
ATOM     28  N   UNL     1       0.667  10.002  23.166  0.00  0.00    +0.000 NA
ENDBRANCH   3  27
TORSDOF 6
ENDMDL
MODEL 5
REMARK VINA RESULT:      -7.3      1.063      2.150
REMARK  Name = 
REMARK  7 active torsions:
REMARK  status: ('A' for Active; 'I' for Inactive)
REMARK    1  A    between atoms: C_1  and  O_2
REMARK    2  A    between atoms: O_2  and  C_3
REMARK    3  A    between atoms: C_8  and  C_9
REMARK    4  A    between atoms: C_11  and  C_12
REMARK    5  A    between atoms: C_14  and  N_15
REMARK    6  A    between atoms: C_18  and  C_19
REMARK    7  A    between atoms: C_19  and  C_20
REMARK                            x       y       z     vdW  Elec       q    Type
REMARK                         _______ _______ _______ _____ _____    ______ ____
ROOT
ATOM      1  C   UNL     1       1.507   7.478  20.781  0.00  0.00    +0.000 A 
ATOM      2  N   UNL     1       1.141   6.266  21.178  0.00  0.00    +0.000 NA
ATOM      3  C   UNL     1       1.970   5.423  20.469  0.00  0.00    +0.000 A 
ATOM      4  C   UNL     1       2.832   6.152  19.665  0.00  0.00    +0.000 A 
ATOM      5  O   UNL     1       2.534   7.471  19.890  0.00  0.00    +0.000 OA
ENDROOT
BRANCH   1  11
ATOM      6  C   UNL     1       0.797   9.883  20.251  0.00  0.00    +0.000 A 
ATOM      7  C   UNL     1       0.086  11.023  20.666  0.00  0.00    +0.000 A 
ATOM      8  C   UNL     1      -0.447  11.117  21.947  0.00  0.00    +0.000 A 
ATOM      9  C   UNL     1      -0.313  10.054  22.822  0.00  0.00    +0.000 A 
ATOM     10  C   UNL     1       0.334   8.889  22.407  0.00  0.00    +0.000 A 
ATOM     11  C   UNL     1       0.891   8.769  21.113  0.00  0.00    +0.000 A 
BRANCH   6  13
ATOM     12  C   UNL     1       0.447   9.750  17.921  0.00  0.00    +0.000 C 
ATOM     13  O   UNL     1       1.379   9.846  19.003  0.00  0.00    +0.000 OA
ENDBRANCH   6  13
ENDBRANCH   1  11
BRANCH   4  14
ATOM     14  N   UNL     1       3.814   5.898  18.760  0.00  0.00    +0.000 N 
ATOM     15  C   UNL     1       3.600   5.989  17.318  0.00  0.00    +0.000 C 
ATOM     16  C   UNL     1       3.827   4.611  16.696  0.00  0.00    +0.000 C 
ATOM     17  C   UNL     1       5.231   4.066  17.011  0.00  0.00    +0.000 C 
ATOM     18  C   UNL     1       5.394   4.029  18.546  0.00  0.00    +0.000 C 
ATOM     19  C   UNL     1       5.115   5.385  19.198  0.00  0.00    +0.000 C 
BRANCH  17  20
ATOM     20  C   UNL     1       6.382   4.867  16.355  0.00  0.00    +0.000 C 
BRANCH  20  21
ATOM     21  C   UNL     1       6.578   4.644  14.872  0.00  0.00    +0.000 A 
ATOM     22  C   UNL     1       7.554   5.369  14.170  0.00  0.00    +0.000 A 
ATOM     23  C   UNL     1       7.772   5.138  12.810  0.00  0.00    +0.000 A 
ATOM     24  C   UNL     1       7.034   4.166  12.140  0.00  0.00    +0.000 A 
ATOM     25  C   UNL     1       6.066   3.437  12.825  0.00  0.00    +0.000 A 
ATOM     26  C   UNL     1       5.832   3.680  14.182  0.00  0.00    +0.000 A 
ENDBRANCH  20  21
ENDBRANCH  17  20
ENDBRANCH   4  14
BRANCH   3  27
ATOM     27  C   UNL     1       1.828   3.998  20.556  0.00  0.00    +0.000 C 
ATOM     28  N   UNL     1       1.697   2.848  20.631  0.00  0.00    +0.000 NA
ENDBRANCH   3  27
TORSDOF 6
ENDMDL
MODEL 6
REMARK VINA RESULT:      -7.2      1.636      2.676
REMARK  Name = 
REMARK  7 active torsions:
REMARK  status: ('A' for Active; 'I' for Inactive)
REMARK    1  A    between atoms: C_1  and  O_2
REMARK    2  A    between atoms: O_2  and  C_3
REMARK    3  A    between atoms: C_8  and  C_9
REMARK    4  A    between atoms: C_11  and  C_12
REMARK    5  A    between atoms: C_14  and  N_15
REMARK    6  A    between atoms: C_18  and  C_19
REMARK    7  A    between atoms: C_19  and  C_20
REMARK                            x       y       z     vdW  Elec       q    Type
REMARK                         _______ _______ _______ _____ _____    ______ ____
ROOT
ATOM      1  C   UNL     1       2.706   6.716  19.536  0.00  0.00    +0.000 A 
ATOM      2  N   UNL     1       3.014   5.596  20.177  0.00  0.00    +0.000 NA
ATOM      3  C   UNL     1       3.832   4.925  19.293  0.00  0.00    +0.000 A 
ATOM      4  C   UNL     1       4.011   5.667  18.137  0.00  0.00    +0.000 A 
ATOM      5  O   UNL     1       3.295   6.823  18.314  0.00  0.00    +0.000 OA
ENDROOT
BRANCH   1  11
ATOM      6  C   UNL     1       1.505   8.960  19.231  0.00  0.00    +0.000 A 
ATOM      7  C   UNL     1       0.500   9.833  19.684  0.00  0.00    +0.000 A 
ATOM      8  C   UNL     1      -0.181   9.596  20.874  0.00  0.00    +0.000 A 
ATOM      9  C   UNL     1       0.105   8.460  21.610  0.00  0.00    +0.000 A 
ATOM     10  C   UNL     1       1.054   7.550  21.143  0.00  0.00    +0.000 A 
ATOM     11  C   UNL     1       1.766   7.768  19.942  0.00  0.00    +0.000 A 
BRANCH   6  13
ATOM     12  C   UNL     1       2.267  10.652  17.772  0.00  0.00    +0.000 C 
ATOM     13  O   UNL     1       2.217   9.256  18.089  0.00  0.00    +0.000 OA
ENDBRANCH   6  13
ENDBRANCH   1  11
BRANCH   4  14
ATOM     14  N   UNL     1       4.656   5.531  16.949  0.00  0.00    +0.000 N 
ATOM     15  C   UNL     1       4.416   4.410  16.043  0.00  0.00    +0.000 C 
ATOM     16  C   UNL     1       5.711   3.615  15.883  0.00  0.00    +0.000 C 
ATOM     17  C   UNL     1       6.863   4.497  15.372  0.00  0.00    +0.000 C 
ATOM     18  C   UNL     1       7.037   5.673  16.358  0.00  0.00    +0.000 C 
ATOM     19  C   UNL     1       5.737   6.449  16.579  0.00  0.00    +0.000 C 
BRANCH  17  20
ATOM     20  C   UNL     1       6.668   5.017  13.926  0.00  0.00    +0.000 C 
BRANCH  20  21
ATOM     21  C   UNL     1       6.314   3.971  12.893  0.00  0.00    +0.000 A 
ATOM     22  C   UNL     1       7.318   3.179  12.314  0.00  0.00    +0.000 A 
ATOM     23  C   UNL     1       6.996   2.181  11.392  0.00  0.00    +0.000 A 
ATOM     24  C   UNL     1       5.666   1.946  11.053  0.00  0.00    +0.000 A 
ATOM     25  C   UNL     1       4.659   2.722  11.623  0.00  0.00    +0.000 A 
ATOM     26  C   UNL     1       4.982   3.735  12.532  0.00  0.00    +0.000 A 
ENDBRANCH  20  21
ENDBRANCH  17  20
ENDBRANCH   4  14
BRANCH   3  27
ATOM     27  C   UNL     1       4.317   3.607  19.587  0.00  0.00    +0.000 C 
ATOM     28  N   UNL     1       4.725   2.546  19.819  0.00  0.00    +0.000 NA
ENDBRANCH   3  27
TORSDOF 6
ENDMDL
MODEL 7
REMARK VINA RESULT:      -7.1      1.918      8.978
REMARK  Name = 
REMARK  7 active torsions:
REMARK  status: ('A' for Active; 'I' for Inactive)
REMARK    1  A    between atoms: C_1  and  O_2
REMARK    2  A    between atoms: O_2  and  C_3
REMARK    3  A    between atoms: C_8  and  C_9
REMARK    4  A    between atoms: C_11  and  C_12
REMARK    5  A    between atoms: C_14  and  N_15
REMARK    6  A    between atoms: C_18  and  C_19
REMARK    7  A    between atoms: C_19  and  C_20
REMARK                            x       y       z     vdW  Elec       q    Type
REMARK                         _______ _______ _______ _____ _____    ______ ____
ROOT
ATOM      1  C   UNL     1       3.981   5.403  17.773  0.00  0.00    +0.000 A 
ATOM      2  N   UNL     1       3.175   4.492  18.303  0.00  0.00    +0.000 NA
ATOM      3  C   UNL     1       2.328   5.229  19.104  0.00  0.00    +0.000 A 
ATOM      4  C   UNL     1       2.636   6.577  19.028  0.00  0.00    +0.000 A 
ATOM      5  O   UNL     1       3.690   6.676  18.156  0.00  0.00    +0.000 OA
ENDROOT
BRANCH   1  11
ATOM      6  C   UNL     1       6.444   4.811  17.382  0.00  0.00    +0.000 A 
ATOM      7  C   UNL     1       7.460   4.541  16.448  0.00  0.00    +0.000 A 
ATOM      8  C   UNL     1       7.258   4.733  15.085  0.00  0.00    +0.000 A 
ATOM      9  C   UNL     1       6.024   5.161  14.630  0.00  0.00    +0.000 A 
ATOM     10  C   UNL     1       4.984   5.372  15.537  0.00  0.00    +0.000 A 
ATOM     11  C   UNL     1       5.162   5.191  16.927  0.00  0.00    +0.000 A 
BRANCH   6  13
ATOM     12  C   UNL     1       7.520   5.716  19.277  0.00  0.00    +0.000 C 
ATOM     13  O   UNL     1       6.692   4.683  18.731  0.00  0.00    +0.000 OA
ENDBRANCH   6  13
ENDBRANCH   1  11
BRANCH   4  14
ATOM     14  N   UNL     1       2.198   7.739  19.581  0.00  0.00    +0.000 N 
ATOM     15  C   UNL     1       1.799   7.844  20.982  0.00  0.00    +0.000 C 
ATOM     16  C   UNL     1       0.322   8.232  21.048  0.00  0.00    +0.000 C 
ATOM     17  C   UNL     1       0.041   9.544  20.296  0.00  0.00    +0.000 C 
ATOM     18  C   UNL     1       0.516   9.368  18.838  0.00  0.00    +0.000 C 
ATOM     19  C   UNL     1       1.977   8.923  18.746  0.00  0.00    +0.000 C 
BRANCH  17  20
ATOM     20  C   UNL     1       0.691  10.793  20.939  0.00  0.00    +0.000 C 
BRANCH  20  21
ATOM     21  C   UNL     1      -0.243  11.700  21.708  0.00  0.00    +0.000 A 
ATOM     22  C   UNL     1      -0.267  13.079  21.444  0.00  0.00    +0.000 A 
ATOM     23  C   UNL     1      -1.158  13.918  22.118  0.00  0.00    +0.000 A 
ATOM     24  C   UNL     1      -2.050  13.388  23.046  0.00  0.00    +0.000 A 
ATOM     25  C   UNL     1      -2.040  12.021  23.314  0.00  0.00    +0.000 A 
ATOM     26  C   UNL     1      -1.135  11.182  22.655  0.00  0.00    +0.000 A 
ENDBRANCH  20  21
ENDBRANCH  17  20
ENDBRANCH   4  14
BRANCH   3  27
ATOM     27  C   UNL     1       1.345   4.588  19.930  0.00  0.00    +0.000 C 
ATOM     28  N   UNL     1       0.563   4.063  20.608  0.00  0.00    +0.000 NA
ENDBRANCH   3  27
TORSDOF 6
ENDMDL
MODEL 8
REMARK VINA RESULT:      -7.1      3.649      9.224
REMARK  Name = 
REMARK  7 active torsions:
REMARK  status: ('A' for Active; 'I' for Inactive)
REMARK    1  A    between atoms: C_1  and  O_2
REMARK    2  A    between atoms: O_2  and  C_3
REMARK    3  A    between atoms: C_8  and  C_9
REMARK    4  A    between atoms: C_11  and  C_12
REMARK    5  A    between atoms: C_14  and  N_15
REMARK    6  A    between atoms: C_18  and  C_19
REMARK    7  A    between atoms: C_19  and  C_20
REMARK                            x       y       z     vdW  Elec       q    Type
REMARK                         _______ _______ _______ _____ _____    ______ ____
ROOT
ATOM      1  C   UNL     1       1.692   8.221  19.961  0.00  0.00    +0.000 A 
ATOM      2  N   UNL     1       1.257   8.073  21.206  0.00  0.00    +0.000 NA
ATOM      3  C   UNL     1       0.766   9.319  21.533  0.00  0.00    +0.000 A 
ATOM      4  C   UNL     1       0.904  10.193  20.466  0.00  0.00    +0.000 A 
ATOM      5  O   UNL     1       1.485   9.468  19.458  0.00  0.00    +0.000 OA
ENDROOT
BRANCH   1  11
ATOM      6  C   UNL     1       2.479   5.861  19.344  0.00  0.00    +0.000 A 
ATOM      7  C   UNL     1       3.136   5.042  18.409  0.00  0.00    +0.000 A 
ATOM      8  C   UNL     1       3.819   5.585  17.326  0.00  0.00    +0.000 A 
ATOM      9  C   UNL     1       3.824   6.956  17.138  0.00  0.00    +0.000 A 
ATOM     10  C   UNL     1       3.123   7.780  18.020  0.00  0.00    +0.000 A 
ATOM     11  C   UNL     1       2.425   7.256  19.132  0.00  0.00    +0.000 A 
BRANCH   6  13
ATOM     12  C   UNL     1       1.122   4.117  20.172  0.00  0.00    +0.000 C 
ATOM     13  O   UNL     1       1.873   5.304  20.449  0.00  0.00    +0.000 OA
ENDBRANCH   6  13
ENDBRANCH   1  11
BRANCH   4  14
ATOM     14  N   UNL     1       0.644  11.500  20.201  0.00  0.00    +0.000 N 
ATOM     15  C   UNL     1      -0.714  12.025  20.077  0.00  0.00    +0.000 C 
ATOM     16  C   UNL     1      -0.908  12.567  18.661  0.00  0.00    +0.000 C 
ATOM     17  C   UNL     1       0.133  13.645  18.315  0.00  0.00    +0.000 C 
ATOM     18  C   UNL     1       1.537  13.029  18.498  0.00  0.00    +0.000 C 
ATOM     19  C   UNL     1       1.735  12.428  19.891  0.00  0.00    +0.000 C 
BRANCH  17  20
ATOM     20  C   UNL     1      -0.008  14.948  19.139  0.00  0.00    +0.000 C 
BRANCH  20  21
ATOM     21  C   UNL     1       0.302  16.231  18.402  0.00  0.00    +0.000 A 
ATOM     22  C   UNL     1       1.630  16.572  18.102  0.00  0.00    +0.000 A 
ATOM     23  C   UNL     1       1.924  17.733  17.383  0.00  0.00    +0.000 A 
ATOM     24  C   UNL     1       0.893  18.555  16.934  0.00  0.00    +0.000 A 
ATOM     25  C   UNL     1      -0.430  18.226  17.220  0.00  0.00    +0.000 A 
ATOM     26  C   UNL     1      -0.724  17.075  17.957  0.00  0.00    +0.000 A 
ENDBRANCH  20  21
ENDBRANCH  17  20
ENDBRANCH   4  14
BRANCH   3  27
ATOM     27  C   UNL     1       0.273   9.599  22.852  0.00  0.00    +0.000 C 
ATOM     28  N   UNL     1      -0.109   9.827  23.923  0.00  0.00    +0.000 NA
ENDBRANCH   3  27
TORSDOF 6
ENDMDL
MODEL 9
REMARK VINA RESULT:      -7.0      1.882      8.960
REMARK  Name = 
REMARK  7 active torsions:
REMARK  status: ('A' for Active; 'I' for Inactive)
REMARK    1  A    between atoms: C_1  and  O_2
REMARK    2  A    between atoms: O_2  and  C_3
REMARK    3  A    between atoms: C_8  and  C_9
REMARK    4  A    between atoms: C_11  and  C_12
REMARK    5  A    between atoms: C_14  and  N_15
REMARK    6  A    between atoms: C_18  and  C_19
REMARK    7  A    between atoms: C_19  and  C_20
REMARK                            x       y       z     vdW  Elec       q    Type
REMARK                         _______ _______ _______ _____ _____    ______ ____
ROOT
ATOM      1  C   UNL     1       3.991   5.490  17.378  0.00  0.00    +0.000 A 
ATOM      2  N   UNL     1       3.277   4.602  18.059  0.00  0.00    +0.000 NA
ATOM      3  C   UNL     1       2.468   5.378  18.862  0.00  0.00    +0.000 A 
ATOM      4  C   UNL     1       2.704   6.724  18.636  0.00  0.00    +0.000 A 
ATOM      5  O   UNL     1       3.673   6.780  17.667  0.00  0.00    +0.000 OA
ENDROOT
BRANCH   1  11
ATOM      6  C   UNL     1       6.454   5.596  16.675  0.00  0.00    +0.000 A 
ATOM      7  C   UNL     1       7.435   5.206  15.746  0.00  0.00    +0.000 A 
ATOM      8  C   UNL     1       7.093   4.563  14.561  0.00  0.00    +0.000 A 
ATOM      9  C   UNL     1       5.767   4.264  14.303  0.00  0.00    +0.000 A 
ATOM     10  C   UNL     1       4.787   4.586  15.243  0.00  0.00    +0.000 A 
ATOM     11  C   UNL     1       5.104   5.245  16.453  0.00  0.00    +0.000 A 
BRANCH   6  13
ATOM     12  C   UNL     1       7.542   7.500  17.547  0.00  0.00    +0.000 C 
ATOM     13  O   UNL     1       6.811   6.297  17.806  0.00  0.00    +0.000 OA
ENDBRANCH   6  13
ENDBRANCH   1  11
BRANCH   4  14
ATOM     14  N   UNL     1       2.260   7.915  19.117  0.00  0.00    +0.000 N 
ATOM     15  C   UNL     1       1.824   8.094  20.500  0.00  0.00    +0.000 C 
ATOM     16  C   UNL     1       0.349   8.494  20.507  0.00  0.00    +0.000 C 
ATOM     17  C   UNL     1       0.098   9.767  19.682  0.00  0.00    +0.000 C 
ATOM     18  C   UNL     1       0.611   9.515  18.247  0.00  0.00    +0.000 C 
ATOM     19  C   UNL     1       2.071   9.057  18.218  0.00  0.00    +0.000 C 
BRANCH  17  20
ATOM     20  C   UNL     1       0.740  11.043  20.278  0.00  0.00    +0.000 C 
BRANCH  20  21
ATOM     21  C   UNL     1      -0.186  11.939  21.069  0.00  0.00    +0.000 A 
ATOM     22  C   UNL     1      -0.650  11.540  22.332  0.00  0.00    +0.000 A 
ATOM     23  C   UNL     1      -1.470  12.380  23.089  0.00  0.00    +0.000 A 
ATOM     24  C   UNL     1      -1.818  13.638  22.604  0.00  0.00    +0.000 A 
ATOM     25  C   UNL     1      -1.360  14.049  21.355  0.00  0.00    +0.000 A 
ATOM     26  C   UNL     1      -0.556  13.201  20.587  0.00  0.00    +0.000 A 
ENDBRANCH  20  21
ENDBRANCH  17  20
ENDBRANCH   4  14
BRANCH   3  27
ATOM     27  C   UNL     1       1.591   4.780  19.828  0.00  0.00    +0.000 C 
ATOM     28  N   UNL     1       0.881   4.313  20.617  0.00  0.00    +0.000 NA
ENDBRANCH   3  27
TORSDOF 6
ENDMDL
