MODEL 1
REMARK VINA RESULT:      -8.4      0.000      0.000
REMARK  Name = 
REMARK  7 active torsions:
REMARK  status: ('A' for Active; 'I' for Inactive)
REMARK    1  A    between atoms: C_1  and  C_2
REMARK    2  A    between atoms: C_3  and  C_4
REMARK    3  A    between atoms: C_4  and  O_5
REMARK    4  A    between atoms: C_4  and  C_6
REMARK    5  A    between atoms: C_6  and  N_7
REMARK    6  A    between atoms: N_15  and  C_16
REMARK    7  A    between atoms: C_18  and  C_19
REMARK                            x       y       z     vdW  Elec       q    Type
REMARK                         _______ _______ _______ _____ _____    ______ ____
ROOT
ATOM      1  N   UNL     1       4.436   3.390  17.567  0.00  0.00    +0.000 NA
ATOM      2  C   UNL     1       4.794   3.930  18.890  0.00  0.00    +0.000 C 
ATOM      3  C   UNL     1       5.413   5.335  18.869  0.00  0.00    +0.000 C 
ATOM      4  C   UNL     1       6.564   5.490  17.853  0.00  0.00    +0.000 C 
ATOM      5  C   UNL     1       6.273   4.762  16.526  0.00  0.00    +0.000 C 
ATOM      6  C   UNL     1       5.613   3.396  16.698  0.00  0.00    +0.000 C 
ATOM      7  C   UNL     1       7.923   5.083  18.454  0.00  0.00    +0.000 C 
ATOM      8  C   UNL     1       8.496   6.369  19.030  0.00  0.00    +0.000 C 
ATOM      9  N   UNL     1       7.882   7.417  18.270  0.00  0.00    +0.000 N 
ATOM     10  C   UNL     1       6.753   6.983  17.574  0.00  0.00    +0.000 C 
ATOM     11  O   UNL     1       5.973   7.648  16.906  0.00  0.00    +0.000 OA
ENDROOT
BRANCH   9  12
ATOM     12  C   UNL     1       8.258   8.745  18.279  0.00  0.00    +0.000 A 
ATOM     13  C   UNL     1       9.222   9.409  18.999  0.00  0.00    +0.000 A 
ATOM     14  C   UNL     1       9.142  10.761  18.572  0.00  0.00    +0.000 A 
ATOM     15  N   UNL     1       8.196  10.894  17.631  0.00  0.00    +0.000 NA
ATOM     16  O   UNL     1       7.639   9.640  17.462  0.00  0.00    +0.000 OA
BRANCH  14  17
ATOM     17  C   UNL     1       9.937  11.899  19.033  0.00  0.00    +0.000 A 
ATOM     18  C   UNL     1      11.303  11.748  19.305  0.00  0.00    +0.000 A 
ATOM     19  C   UNL     1      12.066  12.833  19.744  0.00  0.00    +0.000 A 
ATOM     20  C   UNL     1      11.470  14.081  19.914  0.00  0.00    +0.000 A 
ATOM     21  C   UNL     1      10.114  14.246  19.645  0.00  0.00    +0.000 A 
ATOM     22  C   UNL     1       9.348  13.160  19.208  0.00  0.00    +0.000 A 
ENDBRANCH  14  17
ENDBRANCH   9  12
BRANCH   1  23
ATOM     23  C   UNL     1       3.241   4.059  17.014  0.00  0.00    +0.000 C 
BRANCH  23  24
ATOM     24  C   UNL     1       2.129   4.605  17.963  0.00  0.00    +0.000 C 
BRANCH  24  27
ATOM     25  C   UNL     1       1.718   5.336  20.861  0.00  0.00    +0.000 C 
ATOM     26  C   UNL     1       1.826   6.375  19.774  0.00  0.00    +0.000 A 
ATOM     27  C   UNL     1       2.064   6.065  18.402  0.00  0.00    +0.000 A 
ATOM     28  C   UNL     1       2.124   7.128  17.464  0.00  0.00    +0.000 A 
ATOM     29  C   UNL     1       1.925   8.459  17.855  0.00  0.00    +0.000 A 
ATOM     30  C   UNL     1       1.662   8.709  19.186  0.00  0.00    +0.000 A 
ATOM     31  C   UNL     1       1.613   7.709  20.129  0.00  0.00    +0.000 A 
ATOM     32  C   UNL     1       1.260   8.296  21.441  0.00  0.00    +0.000 C 
ATOM     33  O   UNL     1       1.141   9.706  21.157  0.00  0.00    +0.000 OA
ATOM     34  C   UNL     1       1.365   9.980  19.840  0.00  0.00    +0.000 C 
ATOM     35  O   UNL     1       1.315  11.074  19.308  0.00  0.00    +0.000 OA
ENDBRANCH  24  27
BRANCH  24  36
ATOM     36  O   UNL     1       0.881   4.346  17.283  0.00  0.00    +0.000 OA
ATOM     37  H   UNL     1       0.459   5.209  17.120  0.00  0.00    +0.000 HD
ENDBRANCH  24  36
ENDBRANCH  23  24
ENDBRANCH   1  23
TORSDOF 6
ENDMDL
MODEL 2
REMARK VINA RESULT:      -8.3      3.956      9.594
REMARK  Name = 
REMARK  7 active torsions:
REMARK  status: ('A' for Active; 'I' for Inactive)
REMARK    1  A    between atoms: C_1  and  C_2
REMARK    2  A    between atoms: C_3  and  C_4
REMARK    3  A    between atoms: C_4  and  O_5
REMARK    4  A    between atoms: C_4  and  C_6
REMARK    5  A    between atoms: C_6  and  N_7
REMARK    6  A    between atoms: N_15  and  C_16
REMARK    7  A    between atoms: C_18  and  C_19
REMARK                            x       y       z     vdW  Elec       q    Type
REMARK                         _______ _______ _______ _____ _____    ______ ____
ROOT
ATOM      1  N   UNL     1       0.804  15.119  19.455  0.00  0.00    +0.000 NA
ATOM      2  C   UNL     1       1.215  14.338  20.634  0.00  0.00    +0.000 C 
ATOM      3  C   UNL     1       1.713  12.919  20.327  0.00  0.00    +0.000 C 
ATOM      4  C   UNL     1       0.771  12.117  19.405  0.00  0.00    +0.000 C 
ATOM      5  C   UNL     1       0.186  12.984  18.273  0.00  0.00    +0.000 C 
ATOM      6  C   UNL     1      -0.223  14.388  18.714  0.00  0.00    +0.000 C 
ATOM      7  C   UNL     1      -0.324  11.380  20.200  0.00  0.00    +0.000 C 
ATOM      8  C   UNL     1       0.264  10.008  20.495  0.00  0.00    +0.000 C 
ATOM      9  N   UNL     1       1.225   9.789  19.454  0.00  0.00    +0.000 N 
ATOM     10  C   UNL     1       1.573  10.967  18.791  0.00  0.00    +0.000 C 
ATOM     11  O   UNL     1       2.416  11.124  17.918  0.00  0.00    +0.000 OA
ENDROOT
BRANCH   9  12
ATOM     12  C   UNL     1       1.851   8.591  19.175  0.00  0.00    +0.000 A 
ATOM     13  C   UNL     1       2.547   8.169  18.069  0.00  0.00    +0.000 A 
ATOM     14  C   UNL     1       2.960   6.844  18.371  0.00  0.00    +0.000 A 
ATOM     15  N   UNL     1       2.551   6.501  19.601  0.00  0.00    +0.000 NA
ATOM     16  O   UNL     1       1.850   7.586  20.093  0.00  0.00    +0.000 OA
BRANCH  14  17
ATOM     17  C   UNL     1       3.722   5.924  17.527  0.00  0.00    +0.000 A 
ATOM     18  C   UNL     1       4.665   6.414  16.613  0.00  0.00    +0.000 A 
ATOM     19  C   UNL     1       5.396   5.539  15.806  0.00  0.00    +0.000 A 
ATOM     20  C   UNL     1       5.194   4.164  15.907  0.00  0.00    +0.000 A 
ATOM     21  C   UNL     1       4.263   3.664  16.813  0.00  0.00    +0.000 A 
ATOM     22  C   UNL     1       3.528   4.538  17.620  0.00  0.00    +0.000 A 
ENDBRANCH  14  17
ENDBRANCH   9  12
BRANCH   1  23
ATOM     23  C   UNL     1       1.969  15.552  18.657  0.00  0.00    +0.000 C 
BRANCH  23  24
ATOM     24  C   UNL     1       3.245  16.112  19.360  0.00  0.00    +0.000 C 
BRANCH  24  27
ATOM     25  C   UNL     1       5.184  15.976  21.667  0.00  0.00    +0.000 C 
ATOM     26  C   UNL     1       5.532  15.472  20.290  0.00  0.00    +0.000 A 
ATOM     27  C   UNL     1       4.624  15.481  19.190  0.00  0.00    +0.000 A 
ATOM     28  C   UNL     1       5.072  15.000  17.933  0.00  0.00    +0.000 A 
ATOM     29  C   UNL     1       6.387  14.549  17.750  0.00  0.00    +0.000 A 
ATOM     30  C   UNL     1       7.241  14.591  18.833  0.00  0.00    +0.000 A 
ATOM     31  C   UNL     1       6.840  15.034  20.071  0.00  0.00    +0.000 A 
ATOM     32  C   UNL     1       7.996  15.004  20.995  0.00  0.00    +0.000 C 
ATOM     33  O   UNL     1       9.066  14.486  20.177  0.00  0.00    +0.000 OA
ATOM     34  C   UNL     1       8.656  14.240  18.899  0.00  0.00    +0.000 C 
ATOM     35  O   UNL     1       9.341  13.818  17.986  0.00  0.00    +0.000 OA
ENDBRANCH  24  27
BRANCH  24  36
ATOM     36  O   UNL     1       3.378  17.472  18.891  0.00  0.00    +0.000 OA
ATOM     37  H   UNL     1       2.525  17.721  18.490  0.00  0.00    +0.000 HD
ENDBRANCH  24  36
ENDBRANCH  23  24
ENDBRANCH   1  23
TORSDOF 6
ENDMDL
MODEL 3
REMARK VINA RESULT:      -8.3      3.945      8.672
REMARK  Name = 
REMARK  7 active torsions:
REMARK  status: ('A' for Active; 'I' for Inactive)
REMARK    1  A    between atoms: C_1  and  C_2
REMARK    2  A    between atoms: C_3  and  C_4
REMARK    3  A    between atoms: C_4  and  O_5
REMARK    4  A    between atoms: C_4  and  C_6
REMARK    5  A    between atoms: C_6  and  N_7
REMARK    6  A    between atoms: N_15  and  C_16
REMARK    7  A    between atoms: C_18  and  C_19
REMARK                            x       y       z     vdW  Elec       q    Type
REMARK                         _______ _______ _______ _____ _____    ______ ____
ROOT
ATOM      1  N   UNL     1      -0.644  13.009  20.286  0.00  0.00    +0.000 NA
ATOM      2  C   UNL     1       0.379  12.493  21.211  0.00  0.00    +0.000 C 
ATOM      3  C   UNL     1       1.194  11.307  20.677  0.00  0.00    +0.000 C 
ATOM      4  C   UNL     1       0.327  10.175  20.088  0.00  0.00    +0.000 C 
ATOM      5  C   UNL     1      -0.862  10.716  19.271  0.00  0.00    +0.000 C 
ATOM      6  C   UNL     1      -1.548  11.927  19.898  0.00  0.00    +0.000 C 
ATOM      7  C   UNL     1      -0.118   9.168  21.167  0.00  0.00    +0.000 C 
ATOM      8  C   UNL     1       0.962   8.097  21.170  0.00  0.00    +0.000 C 
ATOM      9  N   UNL     1       1.530   8.144  19.855  0.00  0.00    +0.000 N 
ATOM     10  C   UNL     1       1.214   9.322  19.178  0.00  0.00    +0.000 C 
ATOM     11  O   UNL     1       1.607   9.694  18.080  0.00  0.00    +0.000 OA
ENDROOT
BRANCH   9  12
ATOM     12  C   UNL     1       2.391   7.210  19.317  0.00  0.00    +0.000 A 
ATOM     13  C   UNL     1       3.403   7.335  18.396  0.00  0.00    +0.000 A 
ATOM     14  C   UNL     1       3.935   6.026  18.245  0.00  0.00    +0.000 A 
ATOM     15  N   UNL     1       3.291   5.169  19.051  0.00  0.00    +0.000 NA
ATOM     16  O   UNL     1       2.322   5.907  19.705  0.00  0.00    +0.000 OA
BRANCH  14  17
ATOM     17  C   UNL     1       5.024   5.593  17.371  0.00  0.00    +0.000 A 
ATOM     18  C   UNL     1       6.186   5.023  17.910  0.00  0.00    +0.000 A 
ATOM     19  C   UNL     1       7.227   4.606  17.078  0.00  0.00    +0.000 A 
ATOM     20  C   UNL     1       7.117   4.752  15.696  0.00  0.00    +0.000 A 
ATOM     21  C   UNL     1       5.967   5.313  15.147  0.00  0.00    +0.000 A 
ATOM     22  C   UNL     1       4.925   5.734  15.979  0.00  0.00    +0.000 A 
ENDBRANCH  14  17
ENDBRANCH   9  12
BRANCH   1  23
ATOM     23  C   UNL     1      -0.036  13.753  19.164  0.00  0.00    +0.000 C 
BRANCH  23  24
ATOM     24  C   UNL     1       0.922  14.956  19.438  0.00  0.00    +0.000 C 
BRANCH  24  27
ATOM     25  C   UNL     1       2.874  14.903  21.738  0.00  0.00    +0.000 C 
ATOM     26  C   UNL     1       3.322  14.905  20.299  0.00  0.00    +0.000 A 
ATOM     27  C   UNL     1       2.425  14.885  19.189  0.00  0.00    +0.000 A 
ATOM     28  C   UNL     1       2.965  14.912  17.877  0.00  0.00    +0.000 A 
ATOM     29  C   UNL     1       4.347  14.987  17.658  0.00  0.00    +0.000 A 
ATOM     30  C   UNL     1       5.175  15.039  18.760  0.00  0.00    +0.000 A 
ATOM     31  C   UNL     1       4.692  14.999  20.047  0.00  0.00    +0.000 A 
ATOM     32  C   UNL     1       5.823  15.127  20.993  0.00  0.00    +0.000 C 
ATOM     33  O   UNL     1       6.975  15.219  20.129  0.00  0.00    +0.000 OA
ATOM     34  C   UNL     1       6.627  15.177  18.811  0.00  0.00    +0.000 C 
ATOM     35  O   UNL     1       7.382  15.250  17.858  0.00  0.00    +0.000 OA
ENDBRANCH  24  27
BRANCH  24  36
ATOM     36  O   UNL     1       0.438  16.031  18.605  0.00  0.00    +0.000 OA
ATOM     37  H   UNL     1       0.494  16.849  19.131  0.00  0.00    +0.000 HD
ENDBRANCH  24  36
ENDBRANCH  23  24
ENDBRANCH   1  23
TORSDOF 6
ENDMDL
MODEL 4
REMARK VINA RESULT:      -8.1      4.133     10.067
REMARK  Name = 
REMARK  7 active torsions:
REMARK  status: ('A' for Active; 'I' for Inactive)
REMARK    1  A    between atoms: C_1  and  C_2
REMARK    2  A    between atoms: C_3  and  C_4
REMARK    3  A    between atoms: C_4  and  O_5
REMARK    4  A    between atoms: C_4  and  C_6
REMARK    5  A    between atoms: C_6  and  N_7
REMARK    6  A    between atoms: N_15  and  C_16
REMARK    7  A    between atoms: C_18  and  C_19
REMARK                            x       y       z     vdW  Elec       q    Type
REMARK                         _______ _______ _______ _____ _____    ______ ____
ROOT
ATOM      1  N   UNL     1       1.075  15.295  19.335  0.00  0.00    +0.000 NA
ATOM      2  C   UNL     1       1.626  14.616  20.520  0.00  0.00    +0.000 C 
ATOM      3  C   UNL     1       1.948  13.128  20.321  0.00  0.00    +0.000 C 
ATOM      4  C   UNL     1       0.796  12.325  19.681  0.00  0.00    +0.000 C 
ATOM      5  C   UNL     1       0.090  13.112  18.560  0.00  0.00    +0.000 C 
ATOM      6  C   UNL     1      -0.122  14.591  18.876  0.00  0.00    +0.000 C 
ATOM      7  C   UNL     1      -0.195  11.797  20.736  0.00  0.00    +0.000 C 
ATOM      8  C   UNL     1       0.325  10.416  21.104  0.00  0.00    +0.000 C 
ATOM      9  N   UNL     1       1.065   9.985  19.955  0.00  0.00    +0.000 N 
ATOM     10  C   UNL     1       1.383  11.038  19.097  0.00  0.00    +0.000 C 
ATOM     11  O   UNL     1       2.067  11.009  18.083  0.00  0.00    +0.000 OA
ENDROOT
BRANCH   9  12
ATOM     12  C   UNL     1       1.535   8.706  19.734  0.00  0.00    +0.000 A 
ATOM     13  C   UNL     1       2.139   8.140  18.638  0.00  0.00    +0.000 A 
ATOM     14  C   UNL     1       2.401   6.794  19.009  0.00  0.00    +0.000 A 
ATOM     15  N   UNL     1       1.995   6.574  20.268  0.00  0.00    +0.000 NA
ATOM     16  O   UNL     1       1.444   7.762  20.711  0.00  0.00    +0.000 OA
BRANCH  14  17
ATOM     17  C   UNL     1       3.020   5.742  18.204  0.00  0.00    +0.000 A 
ATOM     18  C   UNL     1       4.276   5.944  17.615  0.00  0.00    +0.000 A 
ATOM     19  C   UNL     1       4.872   4.942  16.846  0.00  0.00    +0.000 A 
ATOM     20  C   UNL     1       4.219   3.725  16.660  0.00  0.00    +0.000 A 
ATOM     21  C   UNL     1       2.971   3.510  17.242  0.00  0.00    +0.000 A 
ATOM     22  C   UNL     1       2.373   4.513  18.009  0.00  0.00    +0.000 A 
ENDBRANCH  14  17
ENDBRANCH   9  12
BRANCH   1  23
ATOM     23  C   UNL     1       2.110  15.515  18.305  0.00  0.00    +0.000 C 
BRANCH  23  24
ATOM     24  C   UNL     1       3.329  16.446  18.594  0.00  0.00    +0.000 C 
BRANCH  24  27
ATOM     25  C   UNL     1       5.440  17.821  20.254  0.00  0.00    +0.000 C 
ATOM     26  C   UNL     1       5.750  16.638  19.373  0.00  0.00    +0.000 A 
ATOM     27  C   UNL     1       4.768  15.938  18.610  0.00  0.00    +0.000 A 
ATOM     28  C   UNL     1       5.183  14.852  17.798  0.00  0.00    +0.000 A 
ATOM     29  C   UNL     1       6.532  14.479  17.711  0.00  0.00    +0.000 A 
ATOM     30  C   UNL     1       7.452  15.205  18.438  0.00  0.00    +0.000 A 
ATOM     31  C   UNL     1       7.087  16.255  19.250  0.00  0.00    +0.000 A 
ATOM     32  C   UNL     1       8.304  16.853  19.844  0.00  0.00    +0.000 C 
ATOM     33  O   UNL     1       9.371  16.038  19.316  0.00  0.00    +0.000 OA
ATOM     34  C   UNL     1       8.904  15.065  18.481  0.00  0.00    +0.000 C 
ATOM     35  O   UNL     1       9.571  14.244  17.879  0.00  0.00    +0.000 OA
ENDBRANCH  24  27
BRANCH  24  36
ATOM     36  O   UNL     1       3.286  17.466  17.572  0.00  0.00    +0.000 OA
ATOM     37  H   UNL     1       2.389  17.452  17.192  0.00  0.00    +0.000 HD
ENDBRANCH  24  36
ENDBRANCH  23  24
ENDBRANCH   1  23
TORSDOF 6
ENDMDL
MODEL 5
REMARK VINA RESULT:      -8.1      4.578      9.052
REMARK  Name = 
REMARK  7 active torsions:
REMARK  status: ('A' for Active; 'I' for Inactive)
REMARK    1  A    between atoms: C_1  and  C_2
REMARK    2  A    between atoms: C_3  and  C_4
REMARK    3  A    between atoms: C_4  and  O_5
REMARK    4  A    between atoms: C_4  and  C_6
REMARK    5  A    between atoms: C_6  and  N_7
REMARK    6  A    between atoms: N_15  and  C_16
REMARK    7  A    between atoms: C_18  and  C_19
REMARK                            x       y       z     vdW  Elec       q    Type
REMARK                         _______ _______ _______ _____ _____    ______ ____
ROOT
ATOM      1  N   UNL     1      -0.803  12.950  20.203  0.00  0.00    +0.000 NA
ATOM      2  C   UNL     1       0.237  12.487  21.137  0.00  0.00    +0.000 C 
ATOM      3  C   UNL     1       1.081  11.308  20.633  0.00  0.00    +0.000 C 
ATOM      4  C   UNL     1       0.241  10.138  20.079  0.00  0.00    +0.000 C 
ATOM      5  C   UNL     1      -0.965  10.624  19.253  0.00  0.00    +0.000 C 
ATOM      6  C   UNL     1      -1.680  11.834  19.851  0.00  0.00    +0.000 C 
ATOM      7  C   UNL     1      -0.172   9.150  21.187  0.00  0.00    +0.000 C 
ATOM      8  C   UNL     1       0.936   8.108  21.215  0.00  0.00    +0.000 C 
ATOM      9  N   UNL     1       1.497   8.134  19.896  0.00  0.00    +0.000 N 
ATOM     10  C   UNL     1       1.147   9.284  19.188  0.00  0.00    +0.000 C 
ATOM     11  O   UNL     1       1.525   9.635  18.079  0.00  0.00    +0.000 OA
ENDROOT
BRANCH   9  12
ATOM     12  C   UNL     1       2.380   7.208  19.379  0.00  0.00    +0.000 A 
ATOM     13  C   UNL     1       3.370   7.329  18.435  0.00  0.00    +0.000 A 
ATOM     14  C   UNL     1       3.944   6.034  18.327  0.00  0.00    +0.000 A 
ATOM     15  N   UNL     1       3.344   5.190  19.178  0.00  0.00    +0.000 NA
ATOM     16  O   UNL     1       2.362   5.920  19.820  0.00  0.00    +0.000 OA
BRANCH  14  17
ATOM     17  C   UNL     1       5.032   5.602  17.450  0.00  0.00    +0.000 A 
ATOM     18  C   UNL     1       4.862   5.594  16.059  0.00  0.00    +0.000 A 
ATOM     19  C   UNL     1       5.899   5.183  15.218  0.00  0.00    +0.000 A 
ATOM     20  C   UNL     1       7.118   4.780  15.759  0.00  0.00    +0.000 A 
ATOM     21  C   UNL     1       7.301   4.787  17.139  0.00  0.00    +0.000 A 
ATOM     22  C   UNL     1       6.263   5.195  17.983  0.00  0.00    +0.000 A 
ENDBRANCH  14  17
ENDBRANCH   9  12
BRANCH   1  23
ATOM     23  C   UNL     1      -0.220  13.679  19.058  0.00  0.00    +0.000 C 
BRANCH  23  24
ATOM     24  C   UNL     1       0.277  15.149  19.226  0.00  0.00    +0.000 C 
BRANCH  24  27
ATOM     25  C   UNL     1       1.334  17.369  20.975  0.00  0.00    +0.000 C 
ATOM     26  C   UNL     1       2.213  16.609  20.015  0.00  0.00    +0.000 A 
ATOM     27  C   UNL     1       1.755  15.526  19.207  0.00  0.00    +0.000 A 
ATOM     28  C   UNL     1       2.672  14.901  18.322  0.00  0.00    +0.000 A 
ATOM     29  C   UNL     1       3.996  15.345  18.210  0.00  0.00    +0.000 A 
ATOM     30  C   UNL     1       4.387  16.418  18.984  0.00  0.00    +0.000 A 
ATOM     31  C   UNL     1       3.533  17.041  19.865  0.00  0.00    +0.000 A 
ATOM     32  C   UNL     1       4.236  18.179  20.499  0.00  0.00    +0.000 C 
ATOM     33  O   UNL     1       5.555  18.126  19.916  0.00  0.00    +0.000 OA
ATOM     34  C   UNL     1       5.673  17.106  19.017  0.00  0.00    +0.000 C 
ATOM     35  O   UNL     1       6.660  16.829  18.360  0.00  0.00    +0.000 OA
ENDBRANCH  24  27
BRANCH  24  36
ATOM     36  O   UNL     1      -0.328  15.886  18.141  0.00  0.00    +0.000 OA
ATOM     37  H   UNL     1       0.119  15.608  17.321  0.00  0.00    +0.000 HD
ENDBRANCH  24  36
ENDBRANCH  23  24
ENDBRANCH   1  23
TORSDOF 6
ENDMDL
MODEL 6
REMARK VINA RESULT:      -8.1      4.482      9.082
REMARK  Name = 
REMARK  7 active torsions:
REMARK  status: ('A' for Active; 'I' for Inactive)
REMARK    1  A    between atoms: C_1  and  C_2
REMARK    2  A    between atoms: C_3  and  C_4
REMARK    3  A    between atoms: C_4  and  O_5
REMARK    4  A    between atoms: C_4  and  C_6
REMARK    5  A    between atoms: C_6  and  N_7
REMARK    6  A    between atoms: N_15  and  C_16
REMARK    7  A    between atoms: C_18  and  C_19
REMARK                            x       y       z     vdW  Elec       q    Type
REMARK                         _______ _______ _______ _____ _____    ______ ____
ROOT
ATOM      1  N   UNL     1      -0.801  13.082  20.439  0.00  0.00    +0.000 NA
ATOM      2  C   UNL     1       0.319  12.634  21.285  0.00  0.00    +0.000 C 
ATOM      3  C   UNL     1       1.120  11.451  20.724  0.00  0.00    +0.000 C 
ATOM      4  C   UNL     1       0.240  10.271  20.259  0.00  0.00    +0.000 C 
ATOM      5  C   UNL     1      -1.035  10.744  19.535  0.00  0.00    +0.000 C 
ATOM      6  C   UNL     1      -1.700  11.959  20.177  0.00  0.00    +0.000 C 
ATOM      7  C   UNL     1      -0.071   9.296  21.411  0.00  0.00    +0.000 C 
ATOM      8  C   UNL     1       1.040   8.258  21.355  0.00  0.00    +0.000 C 
ATOM      9  N   UNL     1       1.484   8.269  19.993  0.00  0.00    +0.000 N 
ATOM     10  C   UNL     1       1.069   9.409  19.304  0.00  0.00    +0.000 C 
ATOM     11  O   UNL     1       1.349   9.748  18.162  0.00  0.00    +0.000 OA
ENDROOT
BRANCH   9  12
ATOM     12  C   UNL     1       2.323   7.339  19.412  0.00  0.00    +0.000 A 
ATOM     13  C   UNL     1       2.908   7.298  18.170  0.00  0.00    +0.000 A 
ATOM     14  C   UNL     1       3.669   6.099  18.155  0.00  0.00    +0.000 A 
ATOM     15  N   UNL     1       3.563   5.469  19.334  0.00  0.00    +0.000 NA
ATOM     16  O   UNL     1       2.713   6.237  20.108  0.00  0.00    +0.000 OA
BRANCH  14  17
ATOM     17  C   UNL     1       4.479   5.560  17.063  0.00  0.00    +0.000 A 
ATOM     18  C   UNL     1       4.704   4.181  16.959  0.00  0.00    +0.000 A 
ATOM     19  C   UNL     1       5.476   3.662  15.916  0.00  0.00    +0.000 A 
ATOM     20  C   UNL     1       6.028   4.518  14.965  0.00  0.00    +0.000 A 
ATOM     21  C   UNL     1       5.810   5.890  15.055  0.00  0.00    +0.000 A 
ATOM     22  C   UNL     1       5.040   6.411  16.100  0.00  0.00    +0.000 A 
ENDBRANCH  14  17
ENDBRANCH   9  12
BRANCH   1  23
ATOM     23  C   UNL     1      -0.321  13.798  19.239  0.00  0.00    +0.000 C 
BRANCH  23  24
ATOM     24  C   UNL     1       0.021  15.319  19.310  0.00  0.00    +0.000 C 
BRANCH  24  27
ATOM     25  C   UNL     1       2.147  13.655  17.963  0.00  0.00    +0.000 C 
ATOM     26  C   UNL     1       2.431  15.023  18.528  0.00  0.00    +0.000 A 
ATOM     27  C   UNL     1       1.439  15.853  19.131  0.00  0.00    +0.000 A 
ATOM     28  C   UNL     1       1.830  17.115  19.649  0.00  0.00    +0.000 A 
ATOM     29  C   UNL     1       3.165  17.540  19.605  0.00  0.00    +0.000 A 
ATOM     30  C   UNL     1       4.096  16.690  19.045  0.00  0.00    +0.000 A 
ATOM     31  C   UNL     1       3.755  15.467  18.518  0.00  0.00    +0.000 A 
ATOM     32  C   UNL     1       4.980  14.782  18.047  0.00  0.00    +0.000 C 
ATOM     33  O   UNL     1       6.027  15.733  18.334  0.00  0.00    +0.000 OA
ATOM     34  C   UNL     1       5.541  16.861  18.927  0.00  0.00    +0.000 C 
ATOM     35  O   UNL     1       6.189  17.823  19.297  0.00  0.00    +0.000 OA
ENDBRANCH  24  27
BRANCH  24  36
ATOM     36  O   UNL     1      -0.764  15.940  18.268  0.00  0.00    +0.000 OA
ATOM     37  H   UNL     1      -1.241  15.227  17.807  0.00  0.00    +0.000 HD
ENDBRANCH  24  36
ENDBRANCH  23  24
ENDBRANCH   1  23
TORSDOF 6
ENDMDL
MODEL 7
REMARK VINA RESULT:      -8.0      4.234      9.726
REMARK  Name = 
REMARK  7 active torsions:
REMARK  status: ('A' for Active; 'I' for Inactive)
REMARK    1  A    between atoms: C_1  and  C_2
REMARK    2  A    between atoms: C_3  and  C_4
REMARK    3  A    between atoms: C_4  and  O_5
REMARK    4  A    between atoms: C_4  and  C_6
REMARK    5  A    between atoms: C_6  and  N_7
REMARK    6  A    between atoms: N_15  and  C_16
REMARK    7  A    between atoms: C_18  and  C_19
REMARK                            x       y       z     vdW  Elec       q    Type
REMARK                         _______ _______ _______ _____ _____    ______ ____
ROOT
ATOM      1  N   UNL     1       0.512  15.408  19.562  0.00  0.00    +0.000 NA
ATOM      2  C   UNL     1       0.756  14.603  20.772  0.00  0.00    +0.000 C 
ATOM      3  C   UNL     1       1.284  13.186  20.510  0.00  0.00    +0.000 C 
ATOM      4  C   UNL     1       0.472  12.407  19.454  0.00  0.00    +0.000 C 
ATOM      5  C   UNL     1       0.050  13.298  18.269  0.00  0.00    +0.000 C 
ATOM      6  C   UNL     1      -0.408  14.697  18.675  0.00  0.00    +0.000 C 
ATOM      7  C   UNL     1      -0.725  11.665  20.079  0.00  0.00    +0.000 C 
ATOM      8  C   UNL     1      -0.189  10.284  20.426  0.00  0.00    +0.000 C 
ATOM      9  N   UNL     1       0.903  10.076  19.522  0.00  0.00    +0.000 N 
ATOM     10  C   UNL     1       1.344  11.262  18.934  0.00  0.00    +0.000 C 
ATOM     11  O   UNL     1       2.299  11.428  18.187  0.00  0.00    +0.000 OA
ENDROOT
BRANCH   9  12
ATOM     12  C   UNL     1       1.555   8.878  19.309  0.00  0.00    +0.000 A 
ATOM     13  C   UNL     1       2.169   8.367  18.192  0.00  0.00    +0.000 A 
ATOM     14  C   UNL     1       2.667   7.097  18.587  0.00  0.00    +0.000 A 
ATOM     15  N   UNL     1       2.384   6.871  19.878  0.00  0.00    +0.000 NA
ATOM     16  O   UNL     1       1.681   7.975  20.320  0.00  0.00    +0.000 OA
BRANCH  14  17
ATOM     17  C   UNL     1       3.392   6.121  17.773  0.00  0.00    +0.000 A 
ATOM     18  C   UNL     1       3.011   4.773  17.773  0.00  0.00    +0.000 A 
ATOM     19  C   UNL     1       3.699   3.839  16.996  0.00  0.00    +0.000 A 
ATOM     20  C   UNL     1       4.776   4.244  16.208  0.00  0.00    +0.000 A 
ATOM     21  C   UNL     1       5.163   5.581  16.197  0.00  0.00    +0.000 A 
ATOM     22  C   UNL     1       4.476   6.517  16.977  0.00  0.00    +0.000 A 
ENDBRANCH  14  17
ENDBRANCH   9  12
BRANCH   1  23
ATOM     23  C   UNL     1       1.777  15.846  18.938  0.00  0.00    +0.000 C 
BRANCH  23  24
ATOM     24  C   UNL     1       2.953  16.374  19.818  0.00  0.00    +0.000 C 
BRANCH  24  27
ATOM     25  C   UNL     1       4.169  14.903  22.155  0.00  0.00    +0.000 C 
ATOM     26  C   UNL     1       4.925  15.149  20.875  0.00  0.00    +0.000 A 
ATOM     27  C   UNL     1       4.365  15.802  19.736  0.00  0.00    +0.000 A 
ATOM     28  C   UNL     1       5.182  15.998  18.593  0.00  0.00    +0.000 A 
ATOM     29  C   UNL     1       6.523  15.592  18.576  0.00  0.00    +0.000 A 
ATOM     30  C   UNL     1       7.033  14.996  19.712  0.00  0.00    +0.000 A 
ATOM     31  C   UNL     1       6.269  14.774  20.834  0.00  0.00    +0.000 A 
ATOM     32  C   UNL     1       7.118  14.173  21.887  0.00  0.00    +0.000 C 
ATOM     33  O   UNL     1       8.409  14.058  21.252  0.00  0.00    +0.000 OA
ATOM     34  C   UNL     1       8.394  14.539  19.976  0.00  0.00    +0.000 C 
ATOM     35  O   UNL     1       9.337  14.588  19.208  0.00  0.00    +0.000 OA
ENDBRANCH  24  27
BRANCH  24  36
ATOM     36  O   UNL     1       3.080  17.775  19.492  0.00  0.00    +0.000 OA
ATOM     37  H   UNL     1       2.365  17.989  18.865  0.00  0.00    +0.000 HD
ENDBRANCH  24  36
ENDBRANCH  23  24
ENDBRANCH   1  23
TORSDOF 6
ENDMDL
MODEL 8
REMARK VINA RESULT:      -7.7      5.912      7.972
REMARK  Name = 
REMARK  7 active torsions:
REMARK  status: ('A' for Active; 'I' for Inactive)
REMARK    1  A    between atoms: C_1  and  C_2
REMARK    2  A    between atoms: C_3  and  C_4
REMARK    3  A    between atoms: C_4  and  O_5
REMARK    4  A    between atoms: C_4  and  C_6
REMARK    5  A    between atoms: C_6  and  N_7
REMARK    6  A    between atoms: N_15  and  C_16
REMARK    7  A    between atoms: C_18  and  C_19
REMARK                            x       y       z     vdW  Elec       q    Type
REMARK                         _______ _______ _______ _____ _____    ______ ____
ROOT
ATOM      1  N   UNL     1      -0.123  14.327  20.602  0.00  0.00    +0.000 NA
ATOM      2  C   UNL     1       0.364  14.231  19.215  0.00  0.00    +0.000 C 
ATOM      3  C   UNL     1       1.891  14.261  19.063  0.00  0.00    +0.000 C 
ATOM      4  C   UNL     1       2.569  15.414  19.834  0.00  0.00    +0.000 C 
ATOM      5  C   UNL     1       1.933  15.642  21.219  0.00  0.00    +0.000 C 
ATOM      6  C   UNL     1       0.410  15.536  21.229  0.00  0.00    +0.000 C 
ATOM      7  C   UNL     1       2.629  16.707  18.999  0.00  0.00    +0.000 C 
ATOM      8  C   UNL     1       3.965  16.643  18.275  0.00  0.00    +0.000 C 
ATOM      9  N   UNL     1       4.789  15.808  19.098  0.00  0.00    +0.000 N 
ATOM     10  C   UNL     1       4.047  15.060  20.013  0.00  0.00    +0.000 C 
ATOM     11  O   UNL     1       4.446  14.205  20.792  0.00  0.00    +0.000 OA
ENDROOT
BRANCH   9  12
ATOM     12  C   UNL     1       6.152  15.641  18.966  0.00  0.00    +0.000 A 
ATOM     13  C   UNL     1       6.888  14.706  18.280  0.00  0.00    +0.000 A 
ATOM     14  C   UNL     1       8.245  15.054  18.512  0.00  0.00    +0.000 A 
ATOM     15  N   UNL     1       8.317  16.153  19.277  0.00  0.00    +0.000 NA
ATOM     16  O   UNL     1       7.013  16.507  19.569  0.00  0.00    +0.000 OA
BRANCH  14  17
ATOM     17  C   UNL     1       9.445  14.375  18.024  0.00  0.00    +0.000 A 
ATOM     18  C   UNL     1       9.464  12.980  17.881  0.00  0.00    +0.000 A 
ATOM     19  C   UNL     1      10.607  12.328  17.414  0.00  0.00    +0.000 A 
ATOM     20  C   UNL     1      11.743  13.063  17.082  0.00  0.00    +0.000 A 
ATOM     21  C   UNL     1      11.737  14.449  17.217  0.00  0.00    +0.000 A 
ATOM     22  C   UNL     1      10.594  15.104  17.687  0.00  0.00    +0.000 A 
ENDBRANCH  14  17
ENDBRANCH   9  12
BRANCH   1  23
ATOM     23  C   UNL     1       0.114  13.074  21.348  0.00  0.00    +0.000 C 
BRANCH  23  24
ATOM     24  C   UNL     1      -0.780  11.820  21.093  0.00  0.00    +0.000 C 
BRANCH  24  27
ATOM     25  C   UNL     1      -3.450  12.857  20.146  0.00  0.00    +0.000 C 
ATOM     26  C   UNL     1      -2.603  11.931  19.313  0.00  0.00    +0.000 A 
ATOM     27  C   UNL     1      -1.317  11.458  19.711  0.00  0.00    +0.000 A 
ATOM     28  C   UNL     1      -0.621  10.570  18.851  0.00  0.00    +0.000 A 
ATOM     29  C   UNL     1      -1.183  10.132  17.644  0.00  0.00    +0.000 A 
ATOM     30  C   UNL     1      -2.443  10.587  17.315  0.00  0.00    +0.000 A 
ATOM     31  C   UNL     1      -3.143  11.461  18.113  0.00  0.00    +0.000 A 
ATOM     32  C   UNL     1      -4.472  11.711  17.511  0.00  0.00    +0.000 C 
ATOM     33  O   UNL     1      -4.445  10.924  16.301  0.00  0.00    +0.000 OA
ATOM     34  C   UNL     1      -3.269  10.246  16.161  0.00  0.00    +0.000 C 
ATOM     35  O   UNL     1      -2.969   9.493  15.252  0.00  0.00    +0.000 OA
ENDBRANCH  24  27
BRANCH  24  36
ATOM     36  O   UNL     1       0.015  10.689  21.512  0.00  0.00    +0.000 OA
ATOM     37  H   UNL     1       0.312  10.232  20.704  0.00  0.00    +0.000 HD
ENDBRANCH  24  36
ENDBRANCH  23  24
ENDBRANCH   1  23
TORSDOF 6
ENDMDL
MODEL 9
REMARK VINA RESULT:      -7.7      3.915     10.071
REMARK  Name = 
REMARK  7 active torsions:
REMARK  status: ('A' for Active; 'I' for Inactive)
REMARK    1  A    between atoms: C_1  and  C_2
REMARK    2  A    between atoms: C_3  and  C_4
REMARK    3  A    between atoms: C_4  and  O_5
REMARK    4  A    between atoms: C_4  and  C_6
REMARK    5  A    between atoms: C_6  and  N_7
REMARK    6  A    between atoms: N_15  and  C_16
REMARK    7  A    between atoms: C_18  and  C_19
REMARK                            x       y       z     vdW  Elec       q    Type
REMARK                         _______ _______ _______ _____ _____    ______ ____
ROOT
ATOM      1  N   UNL     1       2.258  16.202  19.967  0.00  0.00    +0.000 NA
ATOM      2  C   UNL     1       2.592  15.197  20.991  0.00  0.00    +0.000 C 
ATOM      3  C   UNL     1       2.732  13.761  20.466  0.00  0.00    +0.000 C 
ATOM      4  C   UNL     1       1.553  13.308  19.578  0.00  0.00    +0.000 C 
ATOM      5  C   UNL     1       1.074  14.426  18.632  0.00  0.00    +0.000 C 
ATOM      6  C   UNL     1       1.030  15.809  19.275  0.00  0.00    +0.000 C 
ATOM      7  C   UNL     1       0.400  12.714  20.410  0.00  0.00    +0.000 C 
ATOM      8  C   UNL     1       0.693  11.223  20.473  0.00  0.00    +0.000 C 
ATOM      9  N   UNL     1       1.481  10.953  19.307  0.00  0.00    +0.000 N 
ATOM     10  C   UNL     1       2.020  12.112  18.746  0.00  0.00    +0.000 C 
ATOM     11  O   UNL     1       2.792  12.208  17.802  0.00  0.00    +0.000 OA
ENDROOT
BRANCH   9  12
ATOM     12  C   UNL     1       1.796   9.701  18.819  0.00  0.00    +0.000 A 
ATOM     13  C   UNL     1       1.946   8.493  19.455  0.00  0.00    +0.000 A 
ATOM     14  C   UNL     1       2.264   7.566  18.427  0.00  0.00    +0.000 A 
ATOM     15  N   UNL     1       2.280   8.184  17.237  0.00  0.00    +0.000 NA
ATOM     16  O   UNL     1       2.003   9.514  17.487  0.00  0.00    +0.000 OA
BRANCH  14  17
ATOM     17  C   UNL     1       2.541   6.136  18.558  0.00  0.00    +0.000 A 
ATOM     18  C   UNL     1       1.790   5.197  17.838  0.00  0.00    +0.000 A 
ATOM     19  C   UNL     1       2.053   3.831  17.959  0.00  0.00    +0.000 A 
ATOM     20  C   UNL     1       3.073   3.389  18.799  0.00  0.00    +0.000 A 
ATOM     21  C   UNL     1       3.829   4.311  19.518  0.00  0.00    +0.000 A 
ATOM     22  C   UNL     1       3.565   5.679  19.400  0.00  0.00    +0.000 A 
ENDBRANCH  14  17
ENDBRANCH   9  12
BRANCH   1  23
ATOM     23  C   UNL     1       3.411  16.487  19.090  0.00  0.00    +0.000 C 
BRANCH  23  24
ATOM     24  C   UNL     1       4.857  16.537  19.675  0.00  0.00    +0.000 C 
BRANCH  24  27
ATOM     25  C   UNL     1       6.798  15.541  21.759  0.00  0.00    +0.000 C 
ATOM     26  C   UNL     1       6.854  15.088  20.323  0.00  0.00    +0.000 A 
ATOM     27  C   UNL     1       5.925  15.506  19.323  0.00  0.00    +0.000 A 
ATOM     28  C   UNL     1       6.091  15.030  17.997  0.00  0.00    +0.000 A 
ATOM     29  C   UNL     1       7.159  14.190  17.652  0.00  0.00    +0.000 A 
ATOM     30  C   UNL     1       8.053  13.840  18.642  0.00  0.00    +0.000 A 
ATOM     31  C   UNL     1       7.917  14.267  19.943  0.00  0.00    +0.000 A 
ATOM     32  C   UNL     1       9.059  13.765  20.740  0.00  0.00    +0.000 C 
ATOM     33  O   UNL     1       9.828  13.006  19.784  0.00  0.00    +0.000 OA
ATOM     34  C   UNL     1       9.267  13.036  18.540  0.00  0.00    +0.000 C 
ATOM     35  O   UNL     1       9.701  12.503  17.536  0.00  0.00    +0.000 OA
ENDBRANCH  24  27
BRANCH  24  36
ATOM     36  O   UNL     1       5.396  17.813  19.263  0.00  0.00    +0.000 OA
ATOM     37  H   UNL     1       5.565  17.756  18.305  0.00  0.00    +0.000 HD
ENDBRANCH  24  36
ENDBRANCH  23  24
ENDBRANCH   1  23
TORSDOF 6
ENDMDL
