MODEL 1
REMARK VINA RESULT:      -7.8      0.000      0.000
REMARK  Name = 
REMARK  8 active torsions:
REMARK  status: ('A' for Active; 'I' for Inactive)
REMARK    1  A    between atoms: C_1  and  C_2
REMARK    2  A    between atoms: C_2  and  O_3
REMARK    3  A    between atoms: O_3  and  C_4
REMARK    4  A    between atoms: C_7  and  N_8
REMARK    5  A    between atoms: N_8  and  S_9
REMARK    6  A    between atoms: S_9  and  C_12
REMARK    7  A    between atoms: C_15  and  C_16
REMARK    8  A    between atoms: C_19  and  O_20
REMARK                            x       y       z     vdW  Elec       q    Type
REMARK                         _______ _______ _______ _____ _____    ______ ____
ROOT
ATOM      1  S   UNL     1       7.119   6.297  17.561  0.00  0.00    +0.000 S 
ATOM      2  O   UNL     1       7.700   6.259  18.888  0.00  0.00    +0.000 OA
ATOM      3  O   UNL     1       7.316   7.440  16.700  0.00  0.00    +0.000 OA
ENDROOT
BRANCH   1   4
ATOM      4  C   UNL     1       5.351   6.216  17.850  0.00  0.00    +0.000 A 
ATOM      5  C   UNL     1       4.330   6.971  17.283  0.00  0.00    +0.000 A 
ATOM      6  C   UNL     1       3.107   6.504  17.805  0.00  0.00    +0.000 A 
ATOM      7  C   UNL     1       3.420   5.507  18.702  0.00  0.00    +0.000 A 
ATOM      8  O   UNL     1       4.774   5.339  18.750  0.00  0.00    +0.000 OA
BRANCH   7   9
ATOM      9  C   UNL     1       2.603   4.665  19.560  0.00  0.00    +0.000 A 
ATOM     10  C   UNL     1       1.593   3.837  19.095  0.00  0.00    +0.000 A 
ATOM     11  C   UNL     1       0.949   2.996  20.002  0.00  0.00    +0.000 A 
ATOM     12  C   UNL     1       1.341   3.045  21.327  0.00  0.00    +0.000 A 
ATOM     13  N   UNL     1       2.302   3.874  21.761  0.00  0.00    +0.000 NA
ATOM     14  N   UNL     1       2.948   4.688  20.868  0.00  0.00    +0.000 NA
BRANCH  12  15
ATOM     15  O   UNL     1       0.783   2.234  22.269  0.00  0.00    +0.000 OA
ATOM     16  H   UNL     1       1.127   2.490  23.137  0.00  0.00    +0.000 HD
ENDBRANCH  12  15
ENDBRANCH   7   9
ENDBRANCH   1   4
BRANCH   1  17
ATOM     17  N   UNL     1       7.661   4.899  16.773  0.00  0.00    +0.000 N 
ATOM     18  H   UNL     1       8.681   4.929  16.775  0.00  0.00    +0.000 HD
BRANCH  17  22
ATOM     19  C   UNL     1       6.112   3.904  12.976  0.00  0.00    +0.000 A 
ATOM     20  C   UNL     1       7.250   4.708  13.075  0.00  0.00    +0.000 A 
ATOM     21  C   UNL     1       7.758   5.068  14.327  0.00  0.00    +0.000 A 
ATOM     22  C   UNL     1       7.119   4.620  15.482  0.00  0.00    +0.000 A 
ATOM     23  C   UNL     1       5.950   3.871  15.387  0.00  0.00    +0.000 A 
ATOM     24  C   UNL     1       5.439   3.521  14.134  0.00  0.00    +0.000 A 
BRANCH  19  25
ATOM     25  O   UNL     1       5.752   3.557  11.703  0.00  0.00    +0.000 OA
BRANCH  25  27
ATOM     26  C   UNL     1       3.607   3.609  10.662  0.00  0.00    +0.000 C 
ATOM     27  C   UNL     1       4.532   2.825  11.574  0.00  0.00    +0.000 C 
ENDBRANCH  25  27
ENDBRANCH  19  25
ENDBRANCH  17  22
ENDBRANCH   1  17
TORSDOF 7
ENDMDL
MODEL 2
REMARK VINA RESULT:      -7.8      3.590      5.912
REMARK  Name = 
REMARK  8 active torsions:
REMARK  status: ('A' for Active; 'I' for Inactive)
REMARK    1  A    between atoms: C_1  and  C_2
REMARK    2  A    between atoms: C_2  and  O_3
REMARK    3  A    between atoms: O_3  and  C_4
REMARK    4  A    between atoms: C_7  and  N_8
REMARK    5  A    between atoms: N_8  and  S_9
REMARK    6  A    between atoms: S_9  and  C_12
REMARK    7  A    between atoms: C_15  and  C_16
REMARK    8  A    between atoms: C_19  and  O_20
REMARK                            x       y       z     vdW  Elec       q    Type
REMARK                         _______ _______ _______ _____ _____    ______ ____
ROOT
ATOM      1  S   UNL     1       3.603   2.854  18.277  0.00  0.00    +0.000 S 
ATOM      2  O   UNL     1       2.474   2.374  17.505  0.00  0.00    +0.000 OA
ATOM      3  O   UNL     1       4.236   2.010  19.264  0.00  0.00    +0.000 OA
ENDROOT
BRANCH   1   4
ATOM      4  C   UNL     1       2.951   4.252  19.191  0.00  0.00    +0.000 A 
ATOM      5  C   UNL     1       2.540   4.323  20.517  0.00  0.00    +0.000 A 
ATOM      6  C   UNL     1       2.144   5.651  20.776  0.00  0.00    +0.000 A 
ATOM      7  C   UNL     1       2.290   6.340  19.592  0.00  0.00    +0.000 A 
ATOM      8  O   UNL     1       2.759   5.499  18.624  0.00  0.00    +0.000 OA
BRANCH   7   9
ATOM      9  C   UNL     1       2.033   7.722  19.222  0.00  0.00    +0.000 A 
ATOM     10  C   UNL     1       2.365   8.267  17.991  0.00  0.00    +0.000 A 
ATOM     11  C   UNL     1       1.971   9.575  17.713  0.00  0.00    +0.000 A 
ATOM     12  C   UNL     1       1.282  10.270  18.690  0.00  0.00    +0.000 A 
ATOM     13  N   UNL     1       0.996   9.733  19.885  0.00  0.00    +0.000 NA
ATOM     14  N   UNL     1       1.366   8.441  20.153  0.00  0.00    +0.000 NA
BRANCH  12  15
ATOM     15  O   UNL     1       0.836  11.541  18.485  0.00  0.00    +0.000 OA
ATOM     16  H   UNL     1       1.340  12.139  19.056  0.00  0.00    +0.000 HD
ENDBRANCH  12  15
ENDBRANCH   7   9
ENDBRANCH   1   4
BRANCH   1  17
ATOM     17  N   UNL     1       4.758   3.364  17.148  0.00  0.00    +0.000 N 
ATOM     18  H   UNL     1       5.308   2.543  16.889  0.00  0.00    +0.000 HD
BRANCH  17  22
ATOM     19  C   UNL     1       7.261   6.642  18.040  0.00  0.00    +0.000 A 
ATOM     20  C   UNL     1       7.281   5.509  18.856  0.00  0.00    +0.000 A 
ATOM     21  C   UNL     1       6.437   4.426  18.589  0.00  0.00    +0.000 A 
ATOM     22  C   UNL     1       5.571   4.484  17.498  0.00  0.00    +0.000 A 
ATOM     23  C   UNL     1       5.504   5.636  16.720  0.00  0.00    +0.000 A 
ATOM     24  C   UNL     1       6.341   6.721  16.995  0.00  0.00    +0.000 A 
BRANCH  19  25
ATOM     25  O   UNL     1       8.181   7.603  18.355  0.00  0.00    +0.000 OA
BRANCH  25  27
ATOM     26  C   UNL     1       8.823   9.895  18.511  0.00  0.00    +0.000 C 
ATOM     27  C   UNL     1       7.978   8.886  17.757  0.00  0.00    +0.000 C 
ENDBRANCH  25  27
ENDBRANCH  19  25
ENDBRANCH  17  22
ENDBRANCH   1  17
TORSDOF 7
ENDMDL
MODEL 3
REMARK VINA RESULT:      -7.8      3.190      7.823
REMARK  Name = 
REMARK  8 active torsions:
REMARK  status: ('A' for Active; 'I' for Inactive)
REMARK    1  A    between atoms: C_1  and  C_2
REMARK    2  A    between atoms: C_2  and  O_3
REMARK    3  A    between atoms: O_3  and  C_4
REMARK    4  A    between atoms: C_7  and  N_8
REMARK    5  A    between atoms: N_8  and  S_9
REMARK    6  A    between atoms: S_9  and  C_12
REMARK    7  A    between atoms: C_15  and  C_16
REMARK    8  A    between atoms: C_19  and  O_20
REMARK                            x       y       z     vdW  Elec       q    Type
REMARK                         _______ _______ _______ _____ _____    ______ ____
ROOT
ATOM      1  S   UNL     1       2.820   4.661  19.579  0.00  0.00    +0.000 S 
ATOM      2  O   UNL     1       2.973   3.480  20.405  0.00  0.00    +0.000 OA
ATOM      3  O   UNL     1       1.841   4.697  18.516  0.00  0.00    +0.000 OA
ENDROOT
BRANCH   1   4
ATOM      4  C   UNL     1       4.410   4.845  18.771  0.00  0.00    +0.000 A 
ATOM      5  C   UNL     1       5.641   5.190  19.317  0.00  0.00    +0.000 A 
ATOM      6  C   UNL     1       6.595   5.164  18.279  0.00  0.00    +0.000 A 
ATOM      7  C   UNL     1       5.912   4.843  17.127  0.00  0.00    +0.000 A 
ATOM      8  O   UNL     1       4.588   4.667  17.410  0.00  0.00    +0.000 OA
BRANCH   7   9
ATOM      9  C   UNL     1       6.335   4.682  15.746  0.00  0.00    +0.000 A 
ATOM     10  C   UNL     1       5.731   3.816  14.848  0.00  0.00    +0.000 A 
ATOM     11  C   UNL     1       6.156   3.828  13.520  0.00  0.00    +0.000 A 
ATOM     12  C   UNL     1       7.178   4.692  13.171  0.00  0.00    +0.000 A 
ATOM     13  N   UNL     1       7.769   5.502  14.063  0.00  0.00    +0.000 NA
ATOM     14  N   UNL     1       7.338   5.505  15.363  0.00  0.00    +0.000 NA
BRANCH  12  15
ATOM     15  O   UNL     1       7.631   4.785  11.889  0.00  0.00    +0.000 OA
ATOM     16  H   UNL     1       8.569   5.021  11.912  0.00  0.00    +0.000 HD
ENDBRANCH  12  15
ENDBRANCH   7   9
ENDBRANCH   1   4
BRANCH   1  17
ATOM     17  N   UNL     1       2.539   5.946  20.646  0.00  0.00    +0.000 N 
ATOM     18  H   UNL     1       1.910   5.601  21.373  0.00  0.00    +0.000 HD
BRANCH  17  22
ATOM     19  C   UNL     1       1.095   9.542  18.976  0.00  0.00    +0.000 A 
ATOM     20  C   UNL     1       1.943   8.719  18.231  0.00  0.00    +0.000 A 
ATOM     21  C   UNL     1       2.451   7.538  18.782  0.00  0.00    +0.000 A 
ATOM     22  C   UNL     1       2.106   7.185  20.085  0.00  0.00    +0.000 A 
ATOM     23  C   UNL     1       1.312   8.033  20.852  0.00  0.00    +0.000 A 
ATOM     24  C   UNL     1       0.814   9.217  20.303  0.00  0.00    +0.000 A 
BRANCH  19  25
ATOM     25  O   UNL     1       0.603  10.629  18.309  0.00  0.00    +0.000 OA
BRANCH  25  27
ATOM     26  C   UNL     1      -1.603  10.131  17.551  0.00  0.00    +0.000 C 
ATOM     27  C   UNL     1      -0.775  10.934  18.536  0.00  0.00    +0.000 C 
ENDBRANCH  25  27
ENDBRANCH  19  25
ENDBRANCH  17  22
ENDBRANCH   1  17
TORSDOF 7
ENDMDL
MODEL 4
REMARK VINA RESULT:      -7.7      3.537      5.997
REMARK  Name = 
REMARK  8 active torsions:
REMARK  status: ('A' for Active; 'I' for Inactive)
REMARK    1  A    between atoms: C_1  and  C_2
REMARK    2  A    between atoms: C_2  and  O_3
REMARK    3  A    between atoms: O_3  and  C_4
REMARK    4  A    between atoms: C_7  and  N_8
REMARK    5  A    between atoms: N_8  and  S_9
REMARK    6  A    between atoms: S_9  and  C_12
REMARK    7  A    between atoms: C_15  and  C_16
REMARK    8  A    between atoms: C_19  and  O_20
REMARK                            x       y       z     vdW  Elec       q    Type
REMARK                         _______ _______ _______ _____ _____    ______ ____
ROOT
ATOM      1  S   UNL     1       2.550   2.995  18.289  0.00  0.00    +0.000 S 
ATOM      2  O   UNL     1       1.793   3.224  17.075  0.00  0.00    +0.000 OA
ATOM      3  O   UNL     1       2.188   1.930  19.196  0.00  0.00    +0.000 OA
ENDROOT
BRANCH   1   4
ATOM      4  C   UNL     1       2.349   4.510  19.228  0.00  0.00    +0.000 A 
ATOM      5  C   UNL     1       2.389   4.705  20.604  0.00  0.00    +0.000 A 
ATOM      6  C   UNL     1       2.215   6.083  20.849  0.00  0.00    +0.000 A 
ATOM      7  C   UNL     1       2.035   6.679  19.620  0.00  0.00    +0.000 A 
ATOM      8  O   UNL     1       2.096   5.734  18.636  0.00  0.00    +0.000 OA
BRANCH   7   9
ATOM      9  C   UNL     1       1.796   8.057  19.222  0.00  0.00    +0.000 A 
ATOM     10  C   UNL     1       1.170   8.996  20.027  0.00  0.00    +0.000 A 
ATOM     11  C   UNL     1       1.094  10.314  19.578  0.00  0.00    +0.000 A 
ATOM     12  C   UNL     1       1.632  10.612  18.340  0.00  0.00    +0.000 A 
ATOM     13  N   UNL     1       2.208   9.682  17.564  0.00  0.00    +0.000 NA
ATOM     14  N   UNL     1       2.301   8.390  18.012  0.00  0.00    +0.000 NA
BRANCH  12  15
ATOM     15  O   UNL     1       1.625  11.881  17.843  0.00  0.00    +0.000 OA
ATOM     16  H   UNL     1       2.486  12.057  17.437  0.00  0.00    +0.000 HD
ENDBRANCH  12  15
ENDBRANCH   7   9
ENDBRANCH   1   4
BRANCH   1  17
ATOM     17  N   UNL     1       4.162   2.800  17.806  0.00  0.00    +0.000 N 
ATOM     18  H   UNL     1       4.591   2.137  18.453  0.00  0.00    +0.000 HD
BRANCH  17  22
ATOM     19  C   UNL     1       6.366   6.375  17.395  0.00  0.00    +0.000 A 
ATOM     20  C   UNL     1       5.582   5.914  16.335  0.00  0.00    +0.000 A 
ATOM     21  C   UNL     1       4.868   4.717  16.447  0.00  0.00    +0.000 A 
ATOM     22  C   UNL     1       4.943   3.981  17.628  0.00  0.00    +0.000 A 
ATOM     23  C   UNL     1       5.772   4.404  18.663  0.00  0.00    +0.000 A 
ATOM     24  C   UNL     1       6.493   5.596  18.544  0.00  0.00    +0.000 A 
BRANCH  19  25
ATOM     25  O   UNL     1       6.957   7.591  17.197  0.00  0.00    +0.000 OA
BRANCH  25  27
ATOM     26  C   UNL     1       8.292   9.374  18.052  0.00  0.00    +0.000 C 
ATOM     27  C   UNL     1       8.105   7.869  18.002  0.00  0.00    +0.000 C 
ENDBRANCH  25  27
ENDBRANCH  19  25
ENDBRANCH  17  22
ENDBRANCH   1  17
TORSDOF 7
ENDMDL
MODEL 5
REMARK VINA RESULT:      -7.6      3.375      7.801
REMARK  Name = 
REMARK  8 active torsions:
REMARK  status: ('A' for Active; 'I' for Inactive)
REMARK    1  A    between atoms: C_1  and  C_2
REMARK    2  A    between atoms: C_2  and  O_3
REMARK    3  A    between atoms: O_3  and  C_4
REMARK    4  A    between atoms: C_7  and  N_8
REMARK    5  A    between atoms: N_8  and  S_9
REMARK    6  A    between atoms: S_9  and  C_12
REMARK    7  A    between atoms: C_15  and  C_16
REMARK    8  A    between atoms: C_19  and  O_20
REMARK                            x       y       z     vdW  Elec       q    Type
REMARK                         _______ _______ _______ _____ _____    ______ ____
ROOT
ATOM      1  S   UNL     1       1.941   4.400  20.637  0.00  0.00    +0.000 S 
ATOM      2  O   UNL     1       2.191   3.566  21.796  0.00  0.00    +0.000 OA
ATOM      3  O   UNL     1       0.598   4.585  20.136  0.00  0.00    +0.000 OA
ENDROOT
BRANCH   1   4
ATOM      4  C   UNL     1       2.839   3.594  19.310  0.00  0.00    +0.000 A 
ATOM      5  C   UNL     1       2.795   2.268  18.896  0.00  0.00    +0.000 A 
ATOM      6  C   UNL     1       3.655   2.135  17.786  0.00  0.00    +0.000 A 
ATOM      7  C   UNL     1       4.224   3.372  17.581  0.00  0.00    +0.000 A 
ATOM      8  O   UNL     1       3.752   4.256  18.509  0.00  0.00    +0.000 OA
BRANCH   7   9
ATOM      9  C   UNL     1       5.191   3.861  16.612  0.00  0.00    +0.000 A 
ATOM     10  C   UNL     1       4.931   3.986  15.257  0.00  0.00    +0.000 A 
ATOM     11  C   UNL     1       5.901   4.568  14.442  0.00  0.00    +0.000 A 
ATOM     12  C   UNL     1       7.085   4.975  15.029  0.00  0.00    +0.000 A 
ATOM     13  N   UNL     1       7.328   4.818  16.338  0.00  0.00    +0.000 NA
ATOM     14  N   UNL     1       6.368   4.264  17.143  0.00  0.00    +0.000 NA
BRANCH  12  15
ATOM     15  O   UNL     1       8.071   5.579  14.307  0.00  0.00    +0.000 OA
ATOM     16  H   UNL     1       7.660   6.138  13.633  0.00  0.00    +0.000 HD
ENDBRANCH  12  15
ENDBRANCH   7   9
ENDBRANCH   1   4
BRANCH   1  17
ATOM     17  N   UNL     1       2.623   5.910  20.990  0.00  0.00    +0.000 N 
ATOM     18  H   UNL     1       2.631   6.006  22.006  0.00  0.00    +0.000 HD
BRANCH  17  22
ATOM     19  C   UNL     1       1.153   9.359  19.053  0.00  0.00    +0.000 A 
ATOM     20  C   UNL     1       0.764   9.078  20.364  0.00  0.00    +0.000 A 
ATOM     21  C   UNL     1       1.221   7.924  21.009  0.00  0.00    +0.000 A 
ATOM     22  C   UNL     1       2.071   7.051  20.333  0.00  0.00    +0.000 A 
ATOM     23  C   UNL     1       2.411   7.295  19.005  0.00  0.00    +0.000 A 
ATOM     24  C   UNL     1       1.944   8.444  18.360  0.00  0.00    +0.000 A 
BRANCH  19  25
ATOM     25  O   UNL     1       0.704  10.549  18.554  0.00  0.00    +0.000 OA
BRANCH  25  27
ATOM     26  C   UNL     1      -1.212  11.929  18.212  0.00  0.00    +0.000 C 
ATOM     27  C   UNL     1      -0.417  11.128  19.226  0.00  0.00    +0.000 C 
ENDBRANCH  25  27
ENDBRANCH  19  25
ENDBRANCH  17  22
ENDBRANCH   1  17
TORSDOF 7
ENDMDL
MODEL 6
REMARK VINA RESULT:      -7.6      3.504      5.747
REMARK  Name = 
REMARK  8 active torsions:
REMARK  status: ('A' for Active; 'I' for Inactive)
REMARK    1  A    between atoms: C_1  and  C_2
REMARK    2  A    between atoms: C_2  and  O_3
REMARK    3  A    between atoms: O_3  and  C_4
REMARK    4  A    between atoms: C_7  and  N_8
REMARK    5  A    between atoms: N_8  and  S_9
REMARK    6  A    between atoms: S_9  and  C_12
REMARK    7  A    between atoms: C_15  and  C_16
REMARK    8  A    between atoms: C_19  and  O_20
REMARK                            x       y       z     vdW  Elec       q    Type
REMARK                         _______ _______ _______ _____ _____    ______ ____
ROOT
ATOM      1  S   UNL     1       3.530   2.565  18.856  0.00  0.00    +0.000 S 
ATOM      2  O   UNL     1       2.341   1.840  18.455  0.00  0.00    +0.000 OA
ATOM      3  O   UNL     1       4.451   2.001  19.817  0.00  0.00    +0.000 OA
ENDROOT
BRANCH   1   4
ATOM      4  C   UNL     1       2.900   4.060  19.620  0.00  0.00    +0.000 A 
ATOM      5  C   UNL     1       2.458   4.266  20.922  0.00  0.00    +0.000 A 
ATOM      6  C   UNL     1       2.097   5.623  21.046  0.00  0.00    +0.000 A 
ATOM      7  C   UNL     1       2.293   6.194  19.808  0.00  0.00    +0.000 A 
ATOM      8  O   UNL     1       2.760   5.254  18.935  0.00  0.00    +0.000 OA
BRANCH   7   9
ATOM      9  C   UNL     1       2.088   7.542  19.305  0.00  0.00    +0.000 A 
ATOM     10  C   UNL     1       2.413   7.945  18.019  0.00  0.00    +0.000 A 
ATOM     11  C   UNL     1       2.069   9.235  17.617  0.00  0.00    +0.000 A 
ATOM     12  C   UNL     1       1.437  10.056  18.533  0.00  0.00    +0.000 A 
ATOM     13  N   UNL     1       1.158   9.656  19.782  0.00  0.00    +0.000 NA
ATOM     14  N   UNL     1       1.477   8.382  20.172  0.00  0.00    +0.000 NA
BRANCH  12  15
ATOM     15  O   UNL     1       1.043  11.320  18.210  0.00  0.00    +0.000 OA
ATOM     16  H   UNL     1       0.657  11.303  17.323  0.00  0.00    +0.000 HD
ENDBRANCH  12  15
ENDBRANCH   7   9
ENDBRANCH   1   4
BRANCH   1  17
ATOM     17  N   UNL     1       4.363   2.929  17.427  0.00  0.00    +0.000 N 
ATOM     18  H   UNL     1       4.964   2.130  17.217  0.00  0.00    +0.000 HD
BRANCH  17  22
ATOM     19  C   UNL     1       6.325   6.664  17.394  0.00  0.00    +0.000 A 
ATOM     20  C   UNL     1       5.446   6.330  16.361  0.00  0.00    +0.000 A 
ATOM     21  C   UNL     1       4.810   5.085  16.344  0.00  0.00    +0.000 A 
ATOM     22  C   UNL     1       5.059   4.173  17.369  0.00  0.00    +0.000 A 
ATOM     23  C   UNL     1       5.982   4.477  18.365  0.00  0.00    +0.000 A 
ATOM     24  C   UNL     1       6.624   5.719  18.374  0.00  0.00    +0.000 A 
BRANCH  19  25
ATOM     25  O   UNL     1       6.829   7.934  17.343  0.00  0.00    +0.000 OA
BRANCH  25  27
ATOM     26  C   UNL     1       8.365   9.574  18.143  0.00  0.00    +0.000 C 
ATOM     27  C   UNL     1       8.159   8.102  17.841  0.00  0.00    +0.000 C 
ENDBRANCH  25  27
ENDBRANCH  19  25
ENDBRANCH  17  22
ENDBRANCH   1  17
TORSDOF 7
ENDMDL
MODEL 7
REMARK VINA RESULT:      -7.5      0.828      1.295
REMARK  Name = 
REMARK  8 active torsions:
REMARK  status: ('A' for Active; 'I' for Inactive)
REMARK    1  A    between atoms: C_1  and  C_2
REMARK    2  A    between atoms: C_2  and  O_3
REMARK    3  A    between atoms: O_3  and  C_4
REMARK    4  A    between atoms: C_7  and  N_8
REMARK    5  A    between atoms: N_8  and  S_9
REMARK    6  A    between atoms: S_9  and  C_12
REMARK    7  A    between atoms: C_15  and  C_16
REMARK    8  A    between atoms: C_19  and  O_20
REMARK                            x       y       z     vdW  Elec       q    Type
REMARK                         _______ _______ _______ _____ _____    ______ ____
ROOT
ATOM      1  S   UNL     1       7.255   5.666  17.174  0.00  0.00    +0.000 S 
ATOM      2  O   UNL     1       7.545   4.251  17.288  0.00  0.00    +0.000 OA
ATOM      3  O   UNL     1       7.927   6.629  18.016  0.00  0.00    +0.000 OA
ENDROOT
BRANCH   1   4
ATOM      4  C   UNL     1       5.516   5.797  17.594  0.00  0.00    +0.000 A 
ATOM      5  C   UNL     1       4.568   6.711  17.147  0.00  0.00    +0.000 A 
ATOM      6  C   UNL     1       3.333   6.375  17.738  0.00  0.00    +0.000 A 
ATOM      7  C   UNL     1       3.573   5.292  18.555  0.00  0.00    +0.000 A 
ATOM      8  O   UNL     1       4.892   4.948  18.489  0.00  0.00    +0.000 OA
BRANCH   7   9
ATOM      9  C   UNL     1       2.712   4.512  19.429  0.00  0.00    +0.000 A 
ATOM     10  C   UNL     1       1.803   3.568  18.977  0.00  0.00    +0.000 A 
ATOM     11  C   UNL     1       1.110   2.806  19.916  0.00  0.00    +0.000 A 
ATOM     12  C   UNL     1       1.353   3.045  21.256  0.00  0.00    +0.000 A 
ATOM     13  N   UNL     1       2.217   3.982  21.673  0.00  0.00    +0.000 NA
ATOM     14  N   UNL     1       2.913   4.719  20.750  0.00  0.00    +0.000 NA
BRANCH  12  15
ATOM     15  O   UNL     1       0.740   2.322  22.235  0.00  0.00    +0.000 OA
ATOM     16  H   UNL     1       0.541   2.914  22.975  0.00  0.00    +0.000 HD
ENDBRANCH  12  15
ENDBRANCH   7   9
ENDBRANCH   1   4
BRANCH   1  17
ATOM     17  N   UNL     1       7.509   6.067  15.548  0.00  0.00    +0.000 N 
ATOM     18  H   UNL     1       7.202   7.033  15.424  0.00  0.00    +0.000 HD
BRANCH  17  22
ATOM     19  C   UNL     1       5.882   3.607  12.530  0.00  0.00    +0.000 A 
ATOM     20  C   UNL     1       5.211   3.753  13.746  0.00  0.00    +0.000 A 
ATOM     21  C   UNL     1       5.752   4.544  14.766  0.00  0.00    +0.000 A 
ATOM     22  C   UNL     1       6.972   5.187  14.561  0.00  0.00    +0.000 A 
ATOM     23  C   UNL     1       7.673   4.993  13.375  0.00  0.00    +0.000 A 
ATOM     24  C   UNL     1       7.135   4.195  12.362  0.00  0.00    +0.000 A 
BRANCH  19  25
ATOM     25  O   UNL     1       5.223   2.872  11.585  0.00  0.00    +0.000 OA
BRANCH  25  27
ATOM     26  C   UNL     1       3.581   3.798  10.123  0.00  0.00    +0.000 C 
ATOM     27  C   UNL     1       3.821   3.124  11.461  0.00  0.00    +0.000 C 
ENDBRANCH  25  27
ENDBRANCH  19  25
ENDBRANCH  17  22
ENDBRANCH   1  17
TORSDOF 7
ENDMDL
MODEL 8
REMARK VINA RESULT:      -7.5      3.077      7.795
REMARK  Name = 
REMARK  8 active torsions:
REMARK  status: ('A' for Active; 'I' for Inactive)
REMARK    1  A    between atoms: C_1  and  C_2
REMARK    2  A    between atoms: C_2  and  O_3
REMARK    3  A    between atoms: O_3  and  C_4
REMARK    4  A    between atoms: C_7  and  N_8
REMARK    5  A    between atoms: N_8  and  S_9
REMARK    6  A    between atoms: S_9  and  C_12
REMARK    7  A    between atoms: C_15  and  C_16
REMARK    8  A    between atoms: C_19  and  O_20
REMARK                            x       y       z     vdW  Elec       q    Type
REMARK                         _______ _______ _______ _____ _____    ______ ____
ROOT
ATOM      1  S   UNL     1       2.819   4.212  19.765  0.00  0.00    +0.000 S 
ATOM      2  O   UNL     1       3.113   3.089  20.633  0.00  0.00    +0.000 OA
ATOM      3  O   UNL     1       1.852   4.090  18.698  0.00  0.00    +0.000 OA
ENDROOT
BRANCH   1   4
ATOM      4  C   UNL     1       4.380   4.566  18.955  0.00  0.00    +0.000 A 
ATOM      5  C   UNL     1       5.573   5.025  19.503  0.00  0.00    +0.000 A 
ATOM      6  C   UNL     1       6.521   5.108  18.463  0.00  0.00    +0.000 A 
ATOM      7  C   UNL     1       5.868   4.736  17.308  0.00  0.00    +0.000 A 
ATOM      8  O   UNL     1       4.569   4.424  17.592  0.00  0.00    +0.000 OA
BRANCH   7   9
ATOM      9  C   UNL     1       6.301   4.636  15.924  0.00  0.00    +0.000 A 
ATOM     10  C   UNL     1       5.678   3.841  14.975  0.00  0.00    +0.000 A 
ATOM     11  C   UNL     1       6.117   3.911  13.654  0.00  0.00    +0.000 A 
ATOM     12  C   UNL     1       7.169   4.760  13.361  0.00  0.00    +0.000 A 
ATOM     13  N   UNL     1       7.776   5.500  14.300  0.00  0.00    +0.000 NA
ATOM     14  N   UNL     1       7.333   5.447  15.595  0.00  0.00    +0.000 NA
BRANCH  12  15
ATOM     15  O   UNL     1       7.638   4.908  12.090  0.00  0.00    +0.000 OA
ATOM     16  H   UNL     1       7.092   5.566  11.636  0.00  0.00    +0.000 HD
ENDBRANCH  12  15
ENDBRANCH   7   9
ENDBRANCH   1   4
BRANCH   1  17
ATOM     17  N   UNL     1       2.372   5.488  20.786  0.00  0.00    +0.000 N 
ATOM     18  H   UNL     1       1.590   5.159  21.353  0.00  0.00    +0.000 HD
BRANCH  17  22
ATOM     19  C   UNL     1       1.456   9.193  18.985  0.00  0.00    +0.000 A 
ATOM     20  C   UNL     1       2.214   8.249  18.289  0.00  0.00    +0.000 A 
ATOM     21  C   UNL     1       2.548   7.028  18.883  0.00  0.00    +0.000 A 
ATOM     22  C   UNL     1       2.120   6.757  20.182  0.00  0.00    +0.000 A 
ATOM     23  C   UNL     1       1.419   7.719  20.901  0.00  0.00    +0.000 A 
ATOM     24  C   UNL     1       1.095   8.943  20.308  0.00  0.00    +0.000 A 
BRANCH  19  25
ATOM     25  O   UNL     1       1.129  10.315  18.277  0.00  0.00    +0.000 OA
BRANCH  25  27
ATOM     26  C   UNL     1       1.824  12.589  18.472  0.00  0.00    +0.000 C 
ATOM     27  C   UNL     1       0.929  11.505  19.043  0.00  0.00    +0.000 C 
ENDBRANCH  25  27
ENDBRANCH  19  25
ENDBRANCH  17  22
ENDBRANCH   1  17
TORSDOF 7
ENDMDL
MODEL 9
REMARK VINA RESULT:      -7.5      3.350      8.044
REMARK  Name = 
REMARK  8 active torsions:
REMARK  status: ('A' for Active; 'I' for Inactive)
REMARK    1  A    between atoms: C_1  and  C_2
REMARK    2  A    between atoms: C_2  and  O_3
REMARK    3  A    between atoms: O_3  and  C_4
REMARK    4  A    between atoms: C_7  and  N_8
REMARK    5  A    between atoms: N_8  and  S_9
REMARK    6  A    between atoms: S_9  and  C_12
REMARK    7  A    between atoms: C_15  and  C_16
REMARK    8  A    between atoms: C_19  and  O_20
REMARK                            x       y       z     vdW  Elec       q    Type
REMARK                         _______ _______ _______ _____ _____    ______ ____
ROOT
ATOM      1  S   UNL     1       2.913   4.840  19.464  0.00  0.00    +0.000 S 
ATOM      2  O   UNL     1       2.996   3.696  20.351  0.00  0.00    +0.000 OA
ATOM      3  O   UNL     1       1.942   4.876  18.394  0.00  0.00    +0.000 OA
ENDROOT
BRANCH   1   4
ATOM      4  C   UNL     1       4.514   4.893  18.659  0.00  0.00    +0.000 A 
ATOM      5  C   UNL     1       5.773   5.095  19.213  0.00  0.00    +0.000 A 
ATOM      6  C   UNL     1       6.721   5.010  18.173  0.00  0.00    +0.000 A 
ATOM      7  C   UNL     1       6.009   4.797  17.012  0.00  0.00    +0.000 A 
ATOM      8  O   UNL     1       4.674   4.744  17.293  0.00  0.00    +0.000 OA
BRANCH   7   9
ATOM      9  C   UNL     1       6.416   4.642  15.625  0.00  0.00    +0.000 A 
ATOM     10  C   UNL     1       5.817   3.761  14.738  0.00  0.00    +0.000 A 
ATOM     11  C   UNL     1       6.224   3.778  13.405  0.00  0.00    +0.000 A 
ATOM     12  C   UNL     1       7.220   4.664  13.039  0.00  0.00    +0.000 A 
ATOM     13  N   UNL     1       7.807   5.488  13.920  0.00  0.00    +0.000 NA
ATOM     14  N   UNL     1       7.395   5.486  15.227  0.00  0.00    +0.000 NA
BRANCH  12  15
ATOM     15  O   UNL     1       7.652   4.764  11.750  0.00  0.00    +0.000 OA
ATOM     16  H   UNL     1       6.943   4.462  11.165  0.00  0.00    +0.000 HD
ENDBRANCH  12  15
ENDBRANCH   7   9
ENDBRANCH   1   4
BRANCH   1  17
ATOM     17  N   UNL     1       2.700   6.192  20.462  0.00  0.00    +0.000 N 
ATOM     18  H   UNL     1       2.206   5.874  21.297  0.00  0.00    +0.000 HD
BRANCH  17  22
ATOM     19  C   UNL     1       1.109   9.704  18.748  0.00  0.00    +0.000 A 
ATOM     20  C   UNL     1       0.756   9.344  20.050  0.00  0.00    +0.000 A 
ATOM     21  C   UNL     1       1.254   8.168  20.622  0.00  0.00    +0.000 A 
ATOM     22  C   UNL     1       2.108   7.353  19.880  0.00  0.00    +0.000 A 
ATOM     23  C   UNL     1       2.411   7.676  18.561  0.00  0.00    +0.000 A 
ATOM     24  C   UNL     1       1.904   8.847  17.989  0.00  0.00    +0.000 A 
BRANCH  19  25
ATOM     25  O   UNL     1       0.622  10.909  18.324  0.00  0.00    +0.000 OA
BRANCH  25  27
ATOM     26  C   UNL     1      -0.633  12.904  18.695  0.00  0.00    +0.000 C 
ATOM     27  C   UNL     1      -0.467  11.445  19.079  0.00  0.00    +0.000 C 
ENDBRANCH  25  27
ENDBRANCH  19  25
ENDBRANCH  17  22
ENDBRANCH   1  17
TORSDOF 7
ENDMDL
