MODEL 1
REMARK VINA RESULT:      -4.5      0.000      0.000
REMARK  Name = 
REMARK  7 active torsions:
REMARK  status: ('A' for Active; 'I' for Inactive)
REMARK    1  A    between atoms: C_2  and  C_3
REMARK    2  A    between atoms: C_3  and  O_4
REMARK    3  A    between atoms: O_4  and  C_5
REMARK    4  A    between atoms: C_5  and  C_7
REMARK    5  A    between atoms: C_7  and  N_8
REMARK    6  A    between atoms: C_7  and  C_9
REMARK    7  A    between atoms: C_9  and  S_10
REMARK                            x       y       z     vdW  Elec       q    Type
REMARK                         _______ _______ _______ _____ _____    ______ ____
ROOT
ATOM      1  C   UNL     1       6.530   4.406  16.210  0.00  0.00    +0.000 C 
ENDROOT
BRANCH   1   2
ATOM      2  N   UNL     1       7.785   4.361  17.006  0.00  0.00    +0.000 NA
ATOM      3  H   UNL     1       7.858   3.437  17.441  0.00  0.00    +0.000 HD
ATOM      4  H   UNL     1       7.709   5.019  17.782  0.00  0.00    +0.000 HD
ENDBRANCH   1   2
BRANCH   1   5
ATOM      5  C   UNL     1       6.883   4.527  14.722  0.00  0.00    +0.000 C 
ATOM      6  O   UNL     1       7.630   5.385  14.269  0.00  0.00    +0.000 OA
BRANCH   5   7
ATOM      7  O   UNL     1       6.263   3.558  13.995  0.00  0.00    +0.000 OA
BRANCH   7   8
ATOM      8  C   UNL     1       6.398   3.681  12.573  0.00  0.00    +0.000 C 
BRANCH   8  10
ATOM      9  C   UNL     1       4.081   3.199  11.336  0.00  0.00    +0.000 C 
ATOM     10  C   UNL     1       5.122   3.408  11.902  0.00  0.00    +0.000 C 
ENDBRANCH   8  10
ENDBRANCH   7   8
ENDBRANCH   5   7
ENDBRANCH   1   5
BRANCH   1  11
ATOM     11  C   UNL     1       5.687   5.612  16.650  0.00  0.00    +0.000 C 
BRANCH  11  12
ATOM     12  S   UNL     1       5.267   5.592  18.426  0.00  0.00    +0.000 S 
ATOM     13  H   UNL     1       6.428   6.095  18.874  0.00  0.00    +0.000 HD
ENDBRANCH  11  12
ENDBRANCH   1  11
TORSDOF 7
ENDMDL
MODEL 2
REMARK VINA RESULT:      -4.4      1.412      1.436
REMARK  Name = 
REMARK  7 active torsions:
REMARK  status: ('A' for Active; 'I' for Inactive)
REMARK    1  A    between atoms: C_2  and  C_3
REMARK    2  A    between atoms: C_3  and  O_4
REMARK    3  A    between atoms: O_4  and  C_5
REMARK    4  A    between atoms: C_5  and  C_7
REMARK    5  A    between atoms: C_7  and  N_8
REMARK    6  A    between atoms: C_7  and  C_9
REMARK    7  A    between atoms: C_9  and  S_10
REMARK                            x       y       z     vdW  Elec       q    Type
REMARK                         _______ _______ _______ _____ _____    ______ ____
ROOT
ATOM      1  C   UNL     1       6.097   5.393  15.806  0.00  0.00    +0.000 C 
ENDROOT
BRANCH   1   2
ATOM      2  N   UNL     1       5.232   6.565  15.505  0.00  0.00    +0.000 NA
ATOM      3  H   UNL     1       5.583   7.369  16.033  0.00  0.00    +0.000 HD
ATOM      4  H   UNL     1       4.296   6.389  15.873  0.00  0.00    +0.000 HD
ENDBRANCH   1   2
BRANCH   1   5
ATOM      5  C   UNL     1       6.722   4.883  14.502  0.00  0.00    +0.000 C 
ATOM      6  O   UNL     1       7.752   5.338  14.019  0.00  0.00    +0.000 OA
BRANCH   5   7
ATOM      7  O   UNL     1       5.987   3.867  13.975  0.00  0.00    +0.000 OA
BRANCH   7   8
ATOM      8  C   UNL     1       6.273   3.552  12.605  0.00  0.00    +0.000 C 
BRANCH   8  10
ATOM      9  C   UNL     1       4.020   3.170  11.223  0.00  0.00    +0.000 C 
ATOM     10  C   UNL     1       5.034   3.331  11.852  0.00  0.00    +0.000 C 
ENDBRANCH   8  10
ENDBRANCH   7   8
ENDBRANCH   5   7
ENDBRANCH   1   5
BRANCH   1  11
ATOM     11  C   UNL     1       5.253   4.285  16.453  0.00  0.00    +0.000 C 
BRANCH  11  12
ATOM     12  S   UNL     1       3.902   4.924  17.502  0.00  0.00    +0.000 S 
ATOM     13  H   UNL     1       2.887   4.556  16.705  0.00  0.00    +0.000 HD
ENDBRANCH  11  12
ENDBRANCH   1  11
TORSDOF 7
ENDMDL
MODEL 3
REMARK VINA RESULT:      -4.2      1.042      1.042
REMARK  Name = 
REMARK  7 active torsions:
REMARK  status: ('A' for Active; 'I' for Inactive)
REMARK    1  A    between atoms: C_2  and  C_3
REMARK    2  A    between atoms: C_3  and  O_4
REMARK    3  A    between atoms: O_4  and  C_5
REMARK    4  A    between atoms: C_5  and  C_7
REMARK    5  A    between atoms: C_7  and  N_8
REMARK    6  A    between atoms: C_7  and  C_9
REMARK    7  A    between atoms: C_9  and  S_10
REMARK                            x       y       z     vdW  Elec       q    Type
REMARK                         _______ _______ _______ _____ _____    ______ ____
ROOT
ATOM      1  C   UNL     1       6.472   4.500  16.951  0.00  0.00    +0.000 C 
ENDROOT
BRANCH   1   2
ATOM      2  N   UNL     1       7.934   4.232  16.997  0.00  0.00    +0.000 NA
ATOM      3  H   UNL     1       8.428   5.127  16.940  0.00  0.00    +0.000 HD
ATOM      4  H   UNL     1       8.204   3.722  16.155  0.00  0.00    +0.000 HD
ENDBRANCH   1   2
BRANCH   1   5
ATOM      5  C   UNL     1       6.083   4.928  15.531  0.00  0.00    +0.000 C 
ATOM      6  O   UNL     1       6.043   6.094  15.159  0.00  0.00    +0.000 OA
BRANCH   5   7
ATOM      7  O   UNL     1       5.803   3.844  14.756  0.00  0.00    +0.000 OA
BRANCH   7   8
ATOM      8  C   UNL     1       6.366   3.875  13.437  0.00  0.00    +0.000 C 
BRANCH   8  10
ATOM      9  C   UNL     1       4.524   3.200  11.626  0.00  0.00    +0.000 C 
ATOM     10  C   UNL     1       5.359   3.512  12.433  0.00  0.00    +0.000 C 
ENDBRANCH   8  10
ENDBRANCH   7   8
ENDBRANCH   5   7
ENDBRANCH   1   5
BRANCH   1  11
ATOM     11  C   UNL     1       6.124   5.614  17.949  0.00  0.00    +0.000 C 
BRANCH  11  12
ATOM     12  S   UNL     1       4.698   5.211  19.015  0.00  0.00    +0.000 S 
ATOM     13  H   UNL     1       5.201   4.084  19.542  0.00  0.00    +0.000 HD
ENDBRANCH  11  12
ENDBRANCH   1  11
TORSDOF 7
ENDMDL
MODEL 4
REMARK VINA RESULT:      -4.2      1.342      1.406
REMARK  Name = 
REMARK  7 active torsions:
REMARK  status: ('A' for Active; 'I' for Inactive)
REMARK    1  A    between atoms: C_2  and  C_3
REMARK    2  A    between atoms: C_3  and  O_4
REMARK    3  A    between atoms: O_4  and  C_5
REMARK    4  A    between atoms: C_5  and  C_7
REMARK    5  A    between atoms: C_7  and  N_8
REMARK    6  A    between atoms: C_7  and  C_9
REMARK    7  A    between atoms: C_9  and  S_10
REMARK                            x       y       z     vdW  Elec       q    Type
REMARK                         _______ _______ _______ _____ _____    ______ ____
ROOT
ATOM      1  C   UNL     1       6.865   4.659  16.964  0.00  0.00    +0.000 C 
ENDROOT
BRANCH   1   2
ATOM      2  N   UNL     1       8.118   4.163  17.594  0.00  0.00    +0.000 NA
ATOM      3  H   UNL     1       7.871   3.448  18.283  0.00  0.00    +0.000 HD
ATOM      4  H   UNL     1       8.541   4.921  18.132  0.00  0.00    +0.000 HD
ENDBRANCH   1   2
BRANCH   1   5
ATOM      5  C   UNL     1       7.031   4.647  15.439  0.00  0.00    +0.000 C 
ATOM      6  O   UNL     1       7.793   5.390  14.833  0.00  0.00    +0.000 OA
BRANCH   5   7
ATOM      7  O   UNL     1       6.232   3.704  14.870  0.00  0.00    +0.000 OA
BRANCH   7   8
ATOM      8  C   UNL     1       5.468   4.152  13.742  0.00  0.00    +0.000 C 
BRANCH   8  10
ATOM      9  C   UNL     1       5.869   2.564  11.633  0.00  0.00    +0.000 C 
ATOM     10  C   UNL     1       5.679   3.272  12.587  0.00  0.00    +0.000 C 
ENDBRANCH   8  10
ENDBRANCH   7   8
ENDBRANCH   5   7
ENDBRANCH   1   5
BRANCH   1  11
ATOM     11  C   UNL     1       6.577   6.087  17.450  0.00  0.00    +0.000 C 
BRANCH  11  12
ATOM     12  S   UNL     1       7.889   6.764  18.523  0.00  0.00    +0.000 S 
ATOM     13  H   UNL     1       8.868   5.935  18.129  0.00  0.00    +0.000 HD
ENDBRANCH  11  12
ENDBRANCH   1  11
TORSDOF 7
ENDMDL
MODEL 5
REMARK VINA RESULT:      -4.2      1.859      2.286
REMARK  Name = 
REMARK  7 active torsions:
REMARK  status: ('A' for Active; 'I' for Inactive)
REMARK    1  A    between atoms: C_2  and  C_3
REMARK    2  A    between atoms: C_3  and  O_4
REMARK    3  A    between atoms: O_4  and  C_5
REMARK    4  A    between atoms: C_5  and  C_7
REMARK    5  A    between atoms: C_7  and  N_8
REMARK    6  A    between atoms: C_7  and  C_9
REMARK    7  A    between atoms: C_9  and  S_10
REMARK                            x       y       z     vdW  Elec       q    Type
REMARK                         _______ _______ _______ _____ _____    ______ ____
ROOT
ATOM      1  C   UNL     1       6.564   4.169  14.227  0.00  0.00    +0.000 C 
ENDROOT
BRANCH   1   2
ATOM      2  N   UNL     1       7.526   5.302  14.273  0.00  0.00    +0.000 NA
ATOM      3  H   UNL     1       8.473   4.925  14.173  0.00  0.00    +0.000 HD
ATOM      4  H   UNL     1       7.501   5.721  15.203  0.00  0.00    +0.000 HD
ENDBRANCH   1   2
BRANCH   1   5
ATOM      5  C   UNL     1       6.250   3.836  12.763  0.00  0.00    +0.000 C 
ATOM      6  O   UNL     1       7.105   3.728  11.893  0.00  0.00    +0.000 OA
BRANCH   5   7
ATOM      7  O   UNL     1       4.912   3.672  12.578  0.00  0.00    +0.000 OA
BRANCH   7   8
ATOM      8  C   UNL     1       4.547   2.838  11.469  0.00  0.00    +0.000 C 
BRANCH   8  10
ATOM      9  C   UNL     1       2.982   4.184   9.774  0.00  0.00    +0.000 C 
ATOM     10  C   UNL     1       3.685   3.567  10.531  0.00  0.00    +0.000 C 
ENDBRANCH   8  10
ENDBRANCH   7   8
ENDBRANCH   5   7
ENDBRANCH   1   5
BRANCH   1  11
ATOM     11  C   UNL     1       5.275   4.561  14.965  0.00  0.00    +0.000 C 
BRANCH  11  12
ATOM     12  S   UNL     1       5.346   4.250  16.762  0.00  0.00    +0.000 S 
ATOM     13  H   UNL     1       4.780   3.034  16.740  0.00  0.00    +0.000 HD
ENDBRANCH  11  12
ENDBRANCH   1  11
TORSDOF 7
ENDMDL
MODEL 6
REMARK VINA RESULT:      -4.2      1.423      1.808
REMARK  Name = 
REMARK  7 active torsions:
REMARK  status: ('A' for Active; 'I' for Inactive)
REMARK    1  A    between atoms: C_2  and  C_3
REMARK    2  A    between atoms: C_3  and  O_4
REMARK    3  A    between atoms: O_4  and  C_5
REMARK    4  A    between atoms: C_5  and  C_7
REMARK    5  A    between atoms: C_7  and  N_8
REMARK    6  A    between atoms: C_7  and  C_9
REMARK    7  A    between atoms: C_9  and  S_10
REMARK                            x       y       z     vdW  Elec       q    Type
REMARK                         _______ _______ _______ _____ _____    ______ ____
ROOT
ATOM      1  C   UNL     1       6.086   4.572  17.038  0.00  0.00    +0.000 C 
ENDROOT
BRANCH   1   2
ATOM      2  N   UNL     1       6.937   4.258  18.217  0.00  0.00    +0.000 NA
ATOM      3  H   UNL     1       7.222   5.139  18.653  0.00  0.00    +0.000 HD
ATOM      4  H   UNL     1       7.803   3.824  17.894  0.00  0.00    +0.000 HD
ENDBRANCH   1   2
BRANCH   1   5
ATOM      5  C   UNL     1       6.827   5.566  16.135  0.00  0.00    +0.000 C 
ATOM      6  O   UNL     1       7.544   6.465  16.557  0.00  0.00    +0.000 OA
BRANCH   5   7
ATOM      7  O   UNL     1       6.582   5.304  14.822  0.00  0.00    +0.000 OA
BRANCH   7   8
ATOM      8  C   UNL     1       6.112   3.978  14.541  0.00  0.00    +0.000 C 
BRANCH   8  10
ATOM      9  C   UNL     1       6.443   3.375  11.961  0.00  0.00    +0.000 C 
ATOM     10  C   UNL     1       6.284   3.654  13.121  0.00  0.00    +0.000 C 
ENDBRANCH   8  10
ENDBRANCH   7   8
ENDBRANCH   5   7
ENDBRANCH   1   5
BRANCH   1  11
ATOM     11  C   UNL     1       4.759   5.183  17.513  0.00  0.00    +0.000 C 
BRANCH  11  12
ATOM     12  S   UNL     1       4.554   5.148  19.327  0.00  0.00    +0.000 S 
ATOM     13  H   UNL     1       5.276   6.247  19.594  0.00  0.00    +0.000 HD
ENDBRANCH  11  12
ENDBRANCH   1  11
TORSDOF 7
ENDMDL
MODEL 7
REMARK VINA RESULT:      -4.2      1.542      1.649
REMARK  Name = 
REMARK  7 active torsions:
REMARK  status: ('A' for Active; 'I' for Inactive)
REMARK    1  A    between atoms: C_2  and  C_3
REMARK    2  A    between atoms: C_3  and  O_4
REMARK    3  A    between atoms: O_4  and  C_5
REMARK    4  A    between atoms: C_5  and  C_7
REMARK    5  A    between atoms: C_7  and  N_8
REMARK    6  A    between atoms: C_7  and  C_9
REMARK    7  A    between atoms: C_9  and  S_10
REMARK                            x       y       z     vdW  Elec       q    Type
REMARK                         _______ _______ _______ _____ _____    ______ ____
ROOT
ATOM      1  C   UNL     1       6.991   5.392  16.329  0.00  0.00    +0.000 C 
ENDROOT
BRANCH   1   2
ATOM      2  N   UNL     1       7.525   6.714  16.753  0.00  0.00    +0.000 NA
ATOM      3  H   UNL     1       6.809   7.186  17.313  0.00  0.00    +0.000 HD
ATOM      4  H   UNL     1       7.651   7.301  15.928  0.00  0.00    +0.000 HD
ENDBRANCH   1   2
BRANCH   1   5
ATOM      5  C   UNL     1       5.747   5.609  15.457  0.00  0.00    +0.000 C 
ATOM      6  O   UNL     1       5.197   6.695  15.317  0.00  0.00    +0.000 OA
BRANCH   5   7
ATOM      7  O   UNL     1       5.357   4.446  14.869  0.00  0.00    +0.000 OA
BRANCH   7   8
ATOM      8  C   UNL     1       6.248   3.942  13.863  0.00  0.00    +0.000 C 
BRANCH   8  10
ATOM      9  C   UNL     1       4.876   3.156  11.712  0.00  0.00    +0.000 C 
ATOM     10  C   UNL     1       5.502   3.516  12.673  0.00  0.00    +0.000 C 
ENDBRANCH   8  10
ENDBRANCH   7   8
ENDBRANCH   5   7
ENDBRANCH   1   5
BRANCH   1  11
ATOM     11  C   UNL     1       6.624   4.565  17.570  0.00  0.00    +0.000 C 
BRANCH  11  12
ATOM     12  S   UNL     1       5.396   5.381  18.646  0.00  0.00    +0.000 S 
ATOM     13  H   UNL     1       5.269   6.506  17.926  0.00  0.00    +0.000 HD
ENDBRANCH  11  12
ENDBRANCH   1  11
TORSDOF 7
ENDMDL
MODEL 8
REMARK VINA RESULT:      -4.1      4.167      4.920
REMARK  Name = 
REMARK  7 active torsions:
REMARK  status: ('A' for Active; 'I' for Inactive)
REMARK    1  A    between atoms: C_2  and  C_3
REMARK    2  A    between atoms: C_3  and  O_4
REMARK    3  A    between atoms: O_4  and  C_5
REMARK    4  A    between atoms: C_5  and  C_7
REMARK    5  A    between atoms: C_7  and  N_8
REMARK    6  A    between atoms: C_7  and  C_9
REMARK    7  A    between atoms: C_9  and  S_10
REMARK                            x       y       z     vdW  Elec       q    Type
REMARK                         _______ _______ _______ _____ _____    ______ ____
ROOT
ATOM      1  C   UNL     1       2.900   1.892  18.716  0.00  0.00    +0.000 C 
ENDROOT
BRANCH   1   2
ATOM      2  N   UNL     1       3.930   0.846  18.482  0.00  0.00    +0.000 NA
ATOM      3  H   UNL     1       4.388   0.640  19.374  0.00  0.00    +0.000 HD
ATOM      4  H   UNL     1       4.664   1.230  17.885  0.00  0.00    +0.000 HD
ENDBRANCH   1   2
BRANCH   1   5
ATOM      5  C   UNL     1       2.992   2.946  17.604  0.00  0.00    +0.000 C 
ATOM      6  O   UNL     1       2.020   3.518  17.128  0.00  0.00    +0.000 OA
BRANCH   5   7
ATOM      7  O   UNL     1       4.286   3.153  17.238  0.00  0.00    +0.000 OA
BRANCH   7   8
ATOM      8  C   UNL     1       4.552   4.424  16.628  0.00  0.00    +0.000 C 
BRANCH   8  10
ATOM      9  C   UNL     1       6.051   4.140  14.437  0.00  0.00    +0.000 C 
ATOM     10  C   UNL     1       5.386   4.264  15.431  0.00  0.00    +0.000 C 
ENDBRANCH   8  10
ENDBRANCH   7   8
ENDBRANCH   5   7
ENDBRANCH   1   5
BRANCH   1  11
ATOM     11  C   UNL     1       3.138   2.550  20.083  0.00  0.00    +0.000 C 
BRANCH  11  12
ATOM     12  S   UNL     1       1.598   2.871  21.009  0.00  0.00    +0.000 S 
ATOM     13  H   UNL     1       0.847   1.935  20.408  0.00  0.00    +0.000 HD
ENDBRANCH  11  12
ENDBRANCH   1  11
TORSDOF 7
ENDMDL
MODEL 9
REMARK VINA RESULT:      -4.1      3.784      4.953
REMARK  Name = 
REMARK  7 active torsions:
REMARK  status: ('A' for Active; 'I' for Inactive)
REMARK    1  A    between atoms: C_2  and  C_3
REMARK    2  A    between atoms: C_3  and  O_4
REMARK    3  A    between atoms: O_4  and  C_5
REMARK    4  A    between atoms: C_5  and  C_7
REMARK    5  A    between atoms: C_7  and  N_8
REMARK    6  A    between atoms: C_7  and  C_9
REMARK    7  A    between atoms: C_9  and  S_10
REMARK                            x       y       z     vdW  Elec       q    Type
REMARK                         _______ _______ _______ _____ _____    ______ ____
ROOT
ATOM      1  C   UNL     1       6.941   5.076  17.468  0.00  0.00    +0.000 C 
ENDROOT
BRANCH   1   2
ATOM      2  N   UNL     1       8.083   4.125  17.528  0.00  0.00    +0.000 NA
ATOM      3  H   UNL     1       8.604   4.191  16.649  0.00  0.00    +0.000 HD
ATOM      4  H   UNL     1       7.720   3.172  17.555  0.00  0.00    +0.000 HD
ENDBRANCH   1   2
BRANCH   1   5
ATOM      5  C   UNL     1       6.217   5.078  18.820  0.00  0.00    +0.000 C 
ATOM      6  O   UNL     1       6.778   5.276  19.891  0.00  0.00    +0.000 OA
BRANCH   5   7
ATOM      7  O   UNL     1       4.887   4.840  18.659  0.00  0.00    +0.000 OA
BRANCH   7   8
ATOM      8  C   UNL     1       4.339   3.832  19.520  0.00  0.00    +0.000 C 
BRANCH   8  10
ATOM      9  C   UNL     1       3.400   1.789  18.081  0.00  0.00    +0.000 C 
ATOM     10  C   UNL     1       3.813   2.708  18.737  0.00  0.00    +0.000 C 
ENDBRANCH   8  10
ENDBRANCH   7   8
ENDBRANCH   5   7
ENDBRANCH   1   5
BRANCH   1  11
ATOM     11  C   UNL     1       5.974   4.646  16.354  0.00  0.00    +0.000 C 
BRANCH  11  12
ATOM     12  S   UNL     1       6.750   4.595  14.703  0.00  0.00    +0.000 S 
ATOM     13  H   UNL     1       7.136   3.310  14.743  0.00  0.00    +0.000 HD
ENDBRANCH  11  12
ENDBRANCH   1  11
TORSDOF 7
ENDMDL
