MODEL 1
REMARK VINA RESULT:      -7.6      0.000      0.000
REMARK  Name = 
REMARK  7 active torsions:
REMARK  status: ('A' for Active; 'I' for Inactive)
REMARK    1  A    between atoms: C_1  and  C_2
REMARK    2  A    between atoms: C_5  and  S_6
REMARK    3  A    between atoms: S_6  and  N_9
REMARK    4  A    between atoms: C_10  and  C_11
REMARK    5  A    between atoms: C_12  and  C_13
REMARK    6  A    between atoms: N_14  and  N_15
REMARK    7  A    between atoms: N_18  and  C_19
REMARK                            x       y       z     vdW  Elec       q    Type
REMARK                         _______ _______ _______ _____ _____    ______ ____
ROOT
ATOM      1  N   UNL     1       5.159   5.612  18.111  0.00  0.00    +0.000 N 
ATOM      2  C   UNL     1       4.470   6.811  17.955  0.00  0.00    +0.000 A 
ATOM      3  C   UNL     1       4.917   8.017  17.196  0.00  0.00    +0.000 C 
ATOM      4  C   UNL     1       3.249   6.660  18.608  0.00  0.00    +0.000 A 
ATOM      5  C   UNL     1       3.235   5.368  19.220  0.00  0.00    +0.000 A 
ATOM      6  C   UNL     1       2.268   4.683  19.995  0.00  0.00    +0.000 A 
ATOM      7  C   UNL     1       2.527   3.396  20.464  0.00  0.00    +0.000 A 
ATOM      8  C   UNL     1       3.741   2.788  20.184  0.00  0.00    +0.000 A 
ATOM      9  C   UNL     1       4.717   3.445  19.426  0.00  0.00    +0.000 A 
ATOM     10  C   UNL     1       4.451   4.739  18.930  0.00  0.00    +0.000 A 
ENDROOT
BRANCH   1  11
ATOM     11  S   UNL     1       6.739   5.263  17.509  0.00  0.00    +0.000 S 
ATOM     12  O   UNL     1       7.281   4.192  18.323  0.00  0.00    +0.000 OA
ATOM     13  O   UNL     1       7.448   6.526  17.412  0.00  0.00    +0.000 OA
BRANCH  11  18
ATOM     14  C   UNL     1       5.716   3.302  11.847  0.00  0.00    +0.000 C 
ATOM     15  C   UNL     1       5.978   3.785  13.245  0.00  0.00    +0.000 A 
ATOM     16  C   UNL     1       7.138   4.505  13.548  0.00  0.00    +0.000 A 
ATOM     17  C   UNL     1       7.381   4.943  14.852  0.00  0.00    +0.000 A 
ATOM     18  C   UNL     1       6.466   4.649  15.865  0.00  0.00    +0.000 A 
ATOM     19  C   UNL     1       5.291   3.950  15.571  0.00  0.00    +0.000 A 
ATOM     20  C   UNL     1       5.053   3.517  14.264  0.00  0.00    +0.000 A 
ENDBRANCH  11  18
ENDBRANCH   1  11
BRANCH   4  21
ATOM     21  C   UNL     1       2.150   7.605  18.673  0.00  0.00    +0.000 C 
ATOM     22  N   UNL     1       1.883   8.290  19.742  0.00  0.00    +0.000 NA
BRANCH  22  23
ATOM     23  N   UNL     1       0.855   9.148  19.519  0.00  0.00    +0.000 N 
ATOM     24  C   UNL     1       0.724  10.312  20.415  0.00  0.00    +0.000 C 
ATOM     25  C   UNL     1      -0.700  10.900  20.283  0.00  0.00    +0.000 C 
ATOM     26  N   UNL     1      -1.029  11.298  18.897  0.00  0.00    +0.000 NA
ATOM     27  C   UNL     1      -2.426  11.717  18.794  0.00  0.00    +0.000 C 
ATOM     28  C   UNL     1      -0.761  10.180  17.972  0.00  0.00    +0.000 C 
ATOM     29  C   UNL     1       0.661   9.620  18.130  0.00  0.00    +0.000 C 
ENDBRANCH  22  23
ENDBRANCH   4  21
TORSDOF 4
ENDMDL
MODEL 2
REMARK VINA RESULT:      -7.5      0.543      1.048
REMARK  Name = 
REMARK  7 active torsions:
REMARK  status: ('A' for Active; 'I' for Inactive)
REMARK    1  A    between atoms: C_1  and  C_2
REMARK    2  A    between atoms: C_5  and  S_6
REMARK    3  A    between atoms: S_6  and  N_9
REMARK    4  A    between atoms: C_10  and  C_11
REMARK    5  A    between atoms: C_12  and  C_13
REMARK    6  A    between atoms: N_14  and  N_15
REMARK    7  A    between atoms: N_18  and  C_19
REMARK                            x       y       z     vdW  Elec       q    Type
REMARK                         _______ _______ _______ _____ _____    ______ ____
ROOT
ATOM      1  N   UNL     1       4.714   5.682  18.415  0.00  0.00    +0.000 N 
ATOM      2  C   UNL     1       4.031   6.875  18.195  0.00  0.00    +0.000 A 
ATOM      3  C   UNL     1       4.515   8.065  17.433  0.00  0.00    +0.000 C 
ATOM      4  C   UNL     1       2.778   6.735  18.786  0.00  0.00    +0.000 A 
ATOM      5  C   UNL     1       2.734   5.457  19.426  0.00  0.00    +0.000 A 
ATOM      6  C   UNL     1       1.729   4.787  20.165  0.00  0.00    +0.000 A 
ATOM      7  C   UNL     1       1.966   3.511  20.675  0.00  0.00    +0.000 A 
ATOM      8  C   UNL     1       3.194   2.902  20.474  0.00  0.00    +0.000 A 
ATOM      9  C   UNL     1       4.208   3.545  19.754  0.00  0.00    +0.000 A 
ATOM     10  C   UNL     1       3.965   4.826  19.215  0.00  0.00    +0.000 A 
ENDROOT
BRANCH   1  11
ATOM     11  S   UNL     1       6.324   5.325  17.906  0.00  0.00    +0.000 S 
ATOM     12  O   UNL     1       6.777   4.188  18.683  0.00  0.00    +0.000 OA
ATOM     13  O   UNL     1       7.070   6.570  17.943  0.00  0.00    +0.000 OA
BRANCH  11  18
ATOM     14  C   UNL     1       5.832   3.472  12.138  0.00  0.00    +0.000 C 
ATOM     15  C   UNL     1       5.944   3.931  13.563  0.00  0.00    +0.000 A 
ATOM     16  C   UNL     1       4.916   3.682  14.479  0.00  0.00    +0.000 A 
ATOM     17  C   UNL     1       5.023   4.120  15.801  0.00  0.00    +0.000 A 
ATOM     18  C   UNL     1       6.157   4.826  16.209  0.00  0.00    +0.000 A 
ATOM     19  C   UNL     1       7.200   5.062  15.309  0.00  0.00    +0.000 A 
ATOM     20  C   UNL     1       7.089   4.619  13.989  0.00  0.00    +0.000 A 
ENDBRANCH  11  18
ENDBRANCH   1  11
BRANCH   4  21
ATOM     21  C   UNL     1       1.675   7.677  18.771  0.00  0.00    +0.000 C 
ATOM     22  N   UNL     1       1.657   8.740  19.515  0.00  0.00    +0.000 NA
BRANCH  22  23
ATOM     23  N   UNL     1       0.551   9.486  19.261  0.00  0.00    +0.000 N 
ATOM     24  C   UNL     1       0.386  10.747  20.007  0.00  0.00    +0.000 C 
ATOM     25  C   UNL     1      -1.086  11.210  19.908  0.00  0.00    +0.000 C 
ATOM     26  N   UNL     1      -1.536  11.394  18.511  0.00  0.00    +0.000 NA
ATOM     27  C   UNL     1      -2.965  11.696  18.461  0.00  0.00    +0.000 C 
ATOM     28  C   UNL     1      -1.240  10.183  17.720  0.00  0.00    +0.000 C 
ATOM     29  C   UNL     1       0.229   9.752  17.842  0.00  0.00    +0.000 C 
ENDBRANCH  22  23
ENDBRANCH   4  21
TORSDOF 4
ENDMDL
MODEL 3
REMARK VINA RESULT:      -7.1      1.054      1.277
REMARK  Name = 
REMARK  7 active torsions:
REMARK  status: ('A' for Active; 'I' for Inactive)
REMARK    1  A    between atoms: C_1  and  C_2
REMARK    2  A    between atoms: C_5  and  S_6
REMARK    3  A    between atoms: S_6  and  N_9
REMARK    4  A    between atoms: C_10  and  C_11
REMARK    5  A    between atoms: C_12  and  C_13
REMARK    6  A    between atoms: N_14  and  N_15
REMARK    7  A    between atoms: N_18  and  C_19
REMARK                            x       y       z     vdW  Elec       q    Type
REMARK                         _______ _______ _______ _____ _____    ______ ____
ROOT
ATOM      1  N   UNL     1       4.331   5.020  19.130  0.00  0.00    +0.000 N 
ATOM      2  C   UNL     1       3.905   6.309  18.826  0.00  0.00    +0.000 A 
ATOM      3  C   UNL     1       4.684   7.377  18.131  0.00  0.00    +0.000 C 
ATOM      4  C   UNL     1       2.583   6.406  19.254  0.00  0.00    +0.000 A 
ATOM      5  C   UNL     1       2.233   5.171  19.884  0.00  0.00    +0.000 A 
ATOM      6  C   UNL     1       1.042   4.707  20.491  0.00  0.00    +0.000 A 
ATOM      7  C   UNL     1       0.981   3.421  21.027  0.00  0.00    +0.000 A 
ATOM      8  C   UNL     1       2.097   2.599  20.982  0.00  0.00    +0.000 A 
ATOM      9  C   UNL     1       3.290   3.036  20.395  0.00  0.00    +0.000 A 
ATOM     10  C   UNL     1       3.348   4.328  19.830  0.00  0.00    +0.000 A 
ENDROOT
BRANCH   1  11
ATOM     11  S   UNL     1       5.902   4.371  18.828  0.00  0.00    +0.000 S 
ATOM     12  O   UNL     1       5.916   3.019  19.350  0.00  0.00    +0.000 OA
ATOM     13  O   UNL     1       6.866   5.343  19.312  0.00  0.00    +0.000 OA
BRANCH  11  18
ATOM     14  C   UNL     1       6.251   4.286  12.760  0.00  0.00    +0.000 C 
ATOM     15  C   UNL     1       6.174   4.305  14.259  0.00  0.00    +0.000 A 
ATOM     16  C   UNL     1       7.259   4.743  15.027  0.00  0.00    +0.000 A 
ATOM     17  C   UNL     1       7.184   4.748  16.422  0.00  0.00    +0.000 A 
ATOM     18  C   UNL     1       6.024   4.301  17.057  0.00  0.00    +0.000 A 
ATOM     19  C   UNL     1       4.924   3.882  16.301  0.00  0.00    +0.000 A 
ATOM     20  C   UNL     1       5.004   3.881  14.906  0.00  0.00    +0.000 A 
ENDBRANCH  11  18
ENDBRANCH   1  11
BRANCH   4  21
ATOM     21  C   UNL     1       1.677   7.528  19.101  0.00  0.00    +0.000 C 
ATOM     22  N   UNL     1       1.543   8.445  20.009  0.00  0.00    +0.000 NA
BRANCH  22  23
ATOM     23  N   UNL     1       0.690   9.415  19.592  0.00  0.00    +0.000 N 
ATOM     24  C   UNL     1       0.842  10.762  20.172  0.00  0.00    +0.000 C 
ATOM     25  C   UNL     1      -0.446  11.578  19.915  0.00  0.00    +0.000 C 
ATOM     26  N   UNL     1      -0.777  11.688  18.477  0.00  0.00    +0.000 NA
ATOM     27  C   UNL     1      -2.069  12.345  18.290  0.00  0.00    +0.000 C 
ATOM     28  C   UNL     1      -0.788  10.349  17.856  0.00  0.00    +0.000 C 
ATOM     29  C   UNL     1       0.505   9.567  18.132  0.00  0.00    +0.000 C 
ENDBRANCH  22  23
ENDBRANCH   4  21
TORSDOF 4
ENDMDL
MODEL 4
REMARK VINA RESULT:      -7.1      4.510      9.183
REMARK  Name = 
REMARK  7 active torsions:
REMARK  status: ('A' for Active; 'I' for Inactive)
REMARK    1  A    between atoms: C_1  and  C_2
REMARK    2  A    between atoms: C_5  and  S_6
REMARK    3  A    between atoms: S_6  and  N_9
REMARK    4  A    between atoms: C_10  and  C_11
REMARK    5  A    between atoms: C_12  and  C_13
REMARK    6  A    between atoms: N_14  and  N_15
REMARK    7  A    between atoms: N_18  and  C_19
REMARK                            x       y       z     vdW  Elec       q    Type
REMARK                         _______ _______ _______ _____ _____    ______ ____
ROOT
ATOM      1  N   UNL     1       0.374  10.831  19.755  0.00  0.00    +0.000 N 
ATOM      2  C   UNL     1       1.039   9.731  19.222  0.00  0.00    +0.000 A 
ATOM      3  C   UNL     1       1.580   9.586  17.837  0.00  0.00    +0.000 C 
ATOM      4  C   UNL     1       1.150   8.795  20.247  0.00  0.00    +0.000 A 
ATOM      5  C   UNL     1       0.482   9.320  21.397  0.00  0.00    +0.000 A 
ATOM      6  C   UNL     1       0.282   8.816  22.704  0.00  0.00    +0.000 A 
ATOM      7  C   UNL     1      -0.417   9.569  23.648  0.00  0.00    +0.000 A 
ATOM      8  C   UNL     1      -0.933  10.807  23.301  0.00  0.00    +0.000 A 
ATOM      9  C   UNL     1      -0.756  11.326  22.012  0.00  0.00    +0.000 A 
ATOM     10  C   UNL     1      -0.029  10.579  21.062  0.00  0.00    +0.000 A 
ENDROOT
BRANCH   1  11
ATOM     11  S   UNL     1      -0.043  12.275  18.906  0.00  0.00    +0.000 S 
ATOM     12  O   UNL     1       0.727  12.289  17.678  0.00  0.00    +0.000 OA
ATOM     13  O   UNL     1       0.077  13.374  19.847  0.00  0.00    +0.000 OA
BRANCH  11  18
ATOM     14  C   UNL     1      -5.914  11.432  17.576  0.00  0.00    +0.000 C 
ATOM     15  C   UNL     1      -4.467  11.648  17.910  0.00  0.00    +0.000 A 
ATOM     16  C   UNL     1      -4.089  12.210  19.134  0.00  0.00    +0.000 A 
ATOM     17  C   UNL     1      -2.740  12.417  19.434  0.00  0.00    +0.000 A 
ATOM     18  C   UNL     1      -1.761  12.075  18.499  0.00  0.00    +0.000 A 
ATOM     19  C   UNL     1      -2.123  11.492  17.281  0.00  0.00    +0.000 A 
ATOM     20  C   UNL     1      -3.474  11.285  16.988  0.00  0.00    +0.000 A 
ENDBRANCH  11  18
ENDBRANCH   1  11
BRANCH   4  21
ATOM     21  C   UNL     1       1.824   7.510  20.212  0.00  0.00    +0.000 C 
ATOM     22  N   UNL     1       1.385   6.475  20.857  0.00  0.00    +0.000 NA
BRANCH  22  23
ATOM     23  N   UNL     1       2.154   5.386  20.602  0.00  0.00    +0.000 N 
ATOM     24  C   UNL     1       1.526   4.057  20.717  0.00  0.00    +0.000 C 
ATOM     25  C   UNL     1       2.629   2.978  20.819  0.00  0.00    +0.000 C 
ATOM     26  N   UNL     1       3.555   2.994  19.665  0.00  0.00    +0.000 NA
ATOM     27  C   UNL     1       4.656   2.055  19.869  0.00  0.00    +0.000 C 
ATOM     28  C   UNL     1       4.077   4.359  19.454  0.00  0.00    +0.000 C 
ATOM     29  C   UNL     1       2.955   5.404  19.359  0.00  0.00    +0.000 C 
ENDBRANCH  22  23
ENDBRANCH   4  21
TORSDOF 4
ENDMDL
MODEL 5
REMARK VINA RESULT:      -7.1      1.196      1.829
REMARK  Name = 
REMARK  7 active torsions:
REMARK  status: ('A' for Active; 'I' for Inactive)
REMARK    1  A    between atoms: C_1  and  C_2
REMARK    2  A    between atoms: C_5  and  S_6
REMARK    3  A    between atoms: S_6  and  N_9
REMARK    4  A    between atoms: C_10  and  C_11
REMARK    5  A    between atoms: C_12  and  C_13
REMARK    6  A    between atoms: N_14  and  N_15
REMARK    7  A    between atoms: N_18  and  C_19
REMARK                            x       y       z     vdW  Elec       q    Type
REMARK                         _______ _______ _______ _____ _____    ______ ____
ROOT
ATOM      1  N   UNL     1       4.339   4.978  19.030  0.00  0.00    +0.000 N 
ATOM      2  C   UNL     1       4.075   6.324  18.794  0.00  0.00    +0.000 A 
ATOM      3  C   UNL     1       4.978   7.321  18.145  0.00  0.00    +0.000 C 
ATOM      4  C   UNL     1       2.777   6.563  19.241  0.00  0.00    +0.000 A 
ATOM      5  C   UNL     1       2.279   5.350  19.813  0.00  0.00    +0.000 A 
ATOM      6  C   UNL     1       1.042   5.007  20.408  0.00  0.00    +0.000 A 
ATOM      7  C   UNL     1       0.825   3.714  20.881  0.00  0.00    +0.000 A 
ATOM      8  C   UNL     1       1.829   2.763  20.784  0.00  0.00    +0.000 A 
ATOM      9  C   UNL     1       3.065   3.078  20.207  0.00  0.00    +0.000 A 
ATOM     10  C   UNL     1       3.281   4.379  19.705  0.00  0.00    +0.000 A 
ENDROOT
BRANCH   1  11
ATOM     11  S   UNL     1       5.815   4.156  18.679  0.00  0.00    +0.000 S 
ATOM     12  O   UNL     1       5.619   2.759  19.013  0.00  0.00    +0.000 OA
ATOM     13  O   UNL     1       6.884   4.907  19.313  0.00  0.00    +0.000 OA
BRANCH  11  18
ATOM     14  C   UNL     1       6.519   4.497  12.651  0.00  0.00    +0.000 C 
ATOM     15  C   UNL     1       6.336   4.415  14.139  0.00  0.00    +0.000 A 
ATOM     16  C   UNL     1       5.135   3.953  14.689  0.00  0.00    +0.000 A 
ATOM     17  C   UNL     1       4.968   3.888  16.074  0.00  0.00    +0.000 A 
ATOM     18  C   UNL     1       6.001   4.301  16.918  0.00  0.00    +0.000 A 
ATOM     19  C   UNL     1       7.214   4.743  16.382  0.00  0.00    +0.000 A 
ATOM     20  C   UNL     1       7.376   4.803  14.995  0.00  0.00    +0.000 A 
ENDBRANCH  11  18
ENDBRANCH   1  11
BRANCH   4  21
ATOM     21  C   UNL     1       2.017   7.795  19.154  0.00  0.00    +0.000 C 
ATOM     22  N   UNL     1       1.565   8.411  20.202  0.00  0.00    +0.000 NA
BRANCH  22  23
ATOM     23  N   UNL     1       0.951   9.570  19.852  0.00  0.00    +0.000 N 
ATOM     24  C   UNL     1       0.954   9.948  18.427  0.00  0.00    +0.000 C 
ATOM     25  C   UNL     1       0.611  11.450  18.296  0.00  0.00    +0.000 C 
ATOM     26  N   UNL     1      -0.695  11.794  18.901  0.00  0.00    +0.000 NA
ATOM     27  C   UNL     1      -0.914  13.239  18.877  0.00  0.00    +0.000 C 
ATOM     28  C   UNL     1      -0.760  11.289  20.286  0.00  0.00    +0.000 C 
ATOM     29  C   UNL     1      -0.413   9.795  20.379  0.00  0.00    +0.000 C 
ENDBRANCH  22  23
ENDBRANCH   4  21
TORSDOF 4
ENDMDL
MODEL 6
REMARK VINA RESULT:      -7.0      4.654      8.863
REMARK  Name = 
REMARK  7 active torsions:
REMARK  status: ('A' for Active; 'I' for Inactive)
REMARK    1  A    between atoms: C_1  and  C_2
REMARK    2  A    between atoms: C_5  and  S_6
REMARK    3  A    between atoms: S_6  and  N_9
REMARK    4  A    between atoms: C_10  and  C_11
REMARK    5  A    between atoms: C_12  and  C_13
REMARK    6  A    between atoms: N_14  and  N_15
REMARK    7  A    between atoms: N_18  and  C_19
REMARK                            x       y       z     vdW  Elec       q    Type
REMARK                         _______ _______ _______ _____ _____    ______ ____
ROOT
ATOM      1  N   UNL     1       0.631  11.700  19.890  0.00  0.00    +0.000 N 
ATOM      2  C   UNL     1       1.227  10.711  19.114  0.00  0.00    +0.000 A 
ATOM      3  C   UNL     1       1.912  10.885  17.799  0.00  0.00    +0.000 C 
ATOM      4  C   UNL     1       1.105   9.518  19.823  0.00  0.00    +0.000 A 
ATOM      5  C   UNL     1       0.366   9.789  21.016  0.00  0.00    +0.000 A 
ATOM      6  C   UNL     1      -0.048   8.972  22.096  0.00  0.00    +0.000 A 
ATOM      7  C   UNL     1      -0.766   9.521  23.157  0.00  0.00    +0.000 A 
ATOM      8  C   UNL     1      -1.092  10.868  23.149  0.00  0.00    +0.000 A 
ATOM      9  C   UNL     1      -0.702  11.697  22.091  0.00  0.00    +0.000 A 
ATOM     10  C   UNL     1       0.046  11.151  21.026  0.00  0.00    +0.000 A 
ENDROOT
BRANCH   1  11
ATOM     11  S   UNL     1       0.487  13.369  19.474  0.00  0.00    +0.000 S 
ATOM     12  O   UNL     1      -0.182  14.031  20.576  0.00  0.00    +0.000 OA
ATOM     13  O   UNL     1      -0.085  13.429  18.140  0.00  0.00    +0.000 OA
BRANCH  11  18
ATOM     14  C   UNL     1       6.162  15.531  19.204  0.00  0.00    +0.000 C 
ATOM     15  C   UNL     1       4.763  14.991  19.277  0.00  0.00    +0.000 A 
ATOM     16  C   UNL     1       4.234  14.532  20.489  0.00  0.00    +0.000 A 
ATOM     17  C   UNL     1       2.935  14.022  20.548  0.00  0.00    +0.000 A 
ATOM     18  C   UNL     1       2.162  13.955  19.387  0.00  0.00    +0.000 A 
ATOM     19  C   UNL     1       2.670  14.430  18.175  0.00  0.00    +0.000 A 
ATOM     20  C   UNL     1       3.970  14.942  18.123  0.00  0.00    +0.000 A 
ENDBRANCH  11  18
ENDBRANCH   1  11
BRANCH   4  21
ATOM     21  C   UNL     1       1.628   8.212  19.467  0.00  0.00    +0.000 C 
ATOM     22  N   UNL     1       2.193   7.428  20.332  0.00  0.00    +0.000 NA
BRANCH  22  23
ATOM     23  N   UNL     1       2.530   6.244  19.760  0.00  0.00    +0.000 N 
ATOM     24  C   UNL     1       1.871   5.025  20.264  0.00  0.00    +0.000 C 
ATOM     25  C   UNL     1       2.677   3.784  19.813  0.00  0.00    +0.000 C 
ATOM     26  N   UNL     1       2.825   3.701  18.343  0.00  0.00    +0.000 NA
ATOM     27  C   UNL     1       3.706   2.595  17.972  0.00  0.00    +0.000 C 
ATOM     28  C   UNL     1       3.350   4.974  17.814  0.00  0.00    +0.000 C 
ATOM     29  C   UNL     1       2.526   6.184  18.282  0.00  0.00    +0.000 C 
ENDBRANCH  22  23
ENDBRANCH   4  21
TORSDOF 4
ENDMDL
MODEL 7
REMARK VINA RESULT:      -7.0      4.684     10.797
REMARK  Name = 
REMARK  7 active torsions:
REMARK  status: ('A' for Active; 'I' for Inactive)
REMARK    1  A    between atoms: C_1  and  C_2
REMARK    2  A    between atoms: C_5  and  S_6
REMARK    3  A    between atoms: S_6  and  N_9
REMARK    4  A    between atoms: C_10  and  C_11
REMARK    5  A    between atoms: C_12  and  C_13
REMARK    6  A    between atoms: N_14  and  N_15
REMARK    7  A    between atoms: N_18  and  C_19
REMARK                            x       y       z     vdW  Elec       q    Type
REMARK                         _______ _______ _______ _____ _____    ______ ____
ROOT
ATOM      1  N   UNL     1      -0.826  12.483  20.122  0.00  0.00    +0.000 N 
ATOM      2  C   UNL     1       0.392  11.811  20.099  0.00  0.00    +0.000 A 
ATOM      3  C   UNL     1       1.649  12.196  20.808  0.00  0.00    +0.000 C 
ATOM      4  C   UNL     1       0.208  10.673  19.318  0.00  0.00    +0.000 A 
ATOM      5  C   UNL     1      -1.130  10.698  18.813  0.00  0.00    +0.000 A 
ATOM      6  C   UNL     1      -1.860   9.814  17.983  0.00  0.00    +0.000 A 
ATOM      7  C   UNL     1      -3.185  10.093  17.653  0.00  0.00    +0.000 A 
ATOM      8  C   UNL     1      -3.787  11.250  18.124  0.00  0.00    +0.000 A 
ATOM      9  C   UNL     1      -3.086  12.146  18.939  0.00  0.00    +0.000 A 
ATOM     10  C   UNL     1      -1.752  11.855  19.295  0.00  0.00    +0.000 A 
ENDROOT
BRANCH   1  11
ATOM     11  S   UNL     1      -1.150  13.972  20.934  0.00  0.00    +0.000 S 
ATOM     12  O   UNL     1      -1.488  14.950  19.920  0.00  0.00    +0.000 OA
ATOM     13  O   UNL     1      -0.038  14.218  21.835  0.00  0.00    +0.000 OA
BRANCH  11  18
ATOM     14  C   UNL     1      -6.145  12.726  24.167  0.00  0.00    +0.000 C 
ATOM     15  C   UNL     1      -4.906  13.032  23.376  0.00  0.00    +0.000 A 
ATOM     16  C   UNL     1      -3.702  12.373  23.647  0.00  0.00    +0.000 A 
ATOM     17  C   UNL     1      -2.550  12.670  22.914  0.00  0.00    +0.000 A 
ATOM     18  C   UNL     1      -2.596  13.641  21.913  0.00  0.00    +0.000 A 
ATOM     19  C   UNL     1      -3.798  14.291  21.617  0.00  0.00    +0.000 A 
ATOM     20  C   UNL     1      -4.947  13.988  22.352  0.00  0.00    +0.000 A 
ENDBRANCH  11  18
ENDBRANCH   1  11
BRANCH   4  21
ATOM     21  C   UNL     1       1.161   9.614  19.046  0.00  0.00    +0.000 C 
ATOM     22  N   UNL     1       1.450   8.696  19.915  0.00  0.00    +0.000 NA
BRANCH  22  23
ATOM     23  N   UNL     1       2.313   7.789  19.390  0.00  0.00    +0.000 N 
ATOM     24  C   UNL     1       2.177   6.384  19.814  0.00  0.00    +0.000 C 
ATOM     25  C   UNL     1       3.474   5.617  19.464  0.00  0.00    +0.000 C 
ATOM     26  N   UNL     1       3.801   5.674  18.022  0.00  0.00    +0.000 NA
ATOM     27  C   UNL     1       5.100   5.057  17.760  0.00  0.00    +0.000 C 
ATOM     28  C   UNL     1       3.796   7.074  17.557  0.00  0.00    +0.000 C 
ATOM     29  C   UNL     1       2.495   7.805  17.922  0.00  0.00    +0.000 C 
ENDBRANCH  22  23
ENDBRANCH   4  21
TORSDOF 4
ENDMDL
MODEL 8
REMARK VINA RESULT:      -7.0      4.825     10.360
REMARK  Name = 
REMARK  7 active torsions:
REMARK  status: ('A' for Active; 'I' for Inactive)
REMARK    1  A    between atoms: C_1  and  C_2
REMARK    2  A    between atoms: C_5  and  S_6
REMARK    3  A    between atoms: S_6  and  N_9
REMARK    4  A    between atoms: C_10  and  C_11
REMARK    5  A    between atoms: C_12  and  C_13
REMARK    6  A    between atoms: N_14  and  N_15
REMARK    7  A    between atoms: N_18  and  C_19
REMARK                            x       y       z     vdW  Elec       q    Type
REMARK                         _______ _______ _______ _____ _____    ______ ____
ROOT
ATOM      1  N   UNL     1      -1.230  12.016  20.160  0.00  0.00    +0.000 N 
ATOM      2  C   UNL     1       0.013  11.396  20.241  0.00  0.00    +0.000 A 
ATOM      3  C   UNL     1       1.106  11.688  21.216  0.00  0.00    +0.000 C 
ATOM      4  C   UNL     1       0.033  10.408  19.259  0.00  0.00    +0.000 A 
ATOM      5  C   UNL     1      -1.199  10.482  18.537  0.00  0.00    +0.000 A 
ATOM      6  C   UNL     1      -1.723   9.735  17.454  0.00  0.00    +0.000 A 
ATOM      7  C   UNL     1      -2.988  10.028  16.946  0.00  0.00    +0.000 A 
ATOM      8  C   UNL     1      -3.730  11.065  17.490  0.00  0.00    +0.000 A 
ATOM      9  C   UNL     1      -3.232  11.824  18.556  0.00  0.00    +0.000 A 
ATOM     10  C   UNL     1      -1.963  11.516  19.089  0.00  0.00    +0.000 A 
ENDROOT
BRANCH   1  11
ATOM     11  S   UNL     1      -1.777  13.327  21.141  0.00  0.00    +0.000 S 
ATOM     12  O   UNL     1      -0.944  13.352  22.328  0.00  0.00    +0.000 OA
ATOM     13  O   UNL     1      -3.217  13.193  21.271  0.00  0.00    +0.000 OA
BRANCH  11  18
ATOM     14  C   UNL     1      -0.509  18.349  17.960  0.00  0.00    +0.000 C 
ATOM     15  C   UNL     1      -0.820  17.104  18.738  0.00  0.00    +0.000 A 
ATOM     16  C   UNL     1      -0.111  15.920  18.509  0.00  0.00    +0.000 A 
ATOM     17  C   UNL     1      -0.412  14.761  19.230  0.00  0.00    +0.000 A 
ATOM     18  C   UNL     1      -1.438  14.780  20.176  0.00  0.00    +0.000 A 
ATOM     19  C   UNL     1      -2.139  15.962  20.431  0.00  0.00    +0.000 A 
ATOM     20  C   UNL     1      -1.832  17.118  19.709  0.00  0.00    +0.000 A 
ENDBRANCH  11  18
ENDBRANCH   1  11
BRANCH   4  21
ATOM     21  C   UNL     1       1.081   9.443  18.986  0.00  0.00    +0.000 C 
ATOM     22  N   UNL     1       1.399   8.505  19.823  0.00  0.00    +0.000 NA
BRANCH  22  23
ATOM     23  N   UNL     1       2.358   7.698  19.300  0.00  0.00    +0.000 N 
ATOM     24  C   UNL     1       2.355   6.279  19.697  0.00  0.00    +0.000 C 
ATOM     25  C   UNL     1       3.727   5.650  19.360  0.00  0.00    +0.000 C 
ATOM     26  N   UNL     1       4.074   5.766  17.927  0.00  0.00    +0.000 NA
ATOM     27  C   UNL     1       5.432   5.286  17.681  0.00  0.00    +0.000 C 
ATOM     28  C   UNL     1       3.938   7.168  17.485  0.00  0.00    +0.000 C 
ATOM     29  C   UNL     1       2.564   7.760  17.836  0.00  0.00    +0.000 C 
ENDBRANCH  22  23
ENDBRANCH   4  21
TORSDOF 4
ENDMDL
MODEL 9
REMARK VINA RESULT:      -6.9      4.719     10.133
REMARK  Name = 
REMARK  7 active torsions:
REMARK  status: ('A' for Active; 'I' for Inactive)
REMARK    1  A    between atoms: C_1  and  C_2
REMARK    2  A    between atoms: C_5  and  S_6
REMARK    3  A    between atoms: S_6  and  N_9
REMARK    4  A    between atoms: C_10  and  C_11
REMARK    5  A    between atoms: C_12  and  C_13
REMARK    6  A    between atoms: N_14  and  N_15
REMARK    7  A    between atoms: N_18  and  C_19
REMARK                            x       y       z     vdW  Elec       q    Type
REMARK                         _______ _______ _______ _____ _____    ______ ____
ROOT
ATOM      1  N   UNL     1       0.068  11.210  21.143  0.00  0.00    +0.000 N 
ATOM      2  C   UNL     1       0.192   9.824  21.132  0.00  0.00    +0.000 A 
ATOM      3  C   UNL     1      -0.432   8.855  22.081  0.00  0.00    +0.000 C 
ATOM      4  C   UNL     1       0.979   9.501  20.030  0.00  0.00    +0.000 A 
ATOM      5  C   UNL     1       1.386  10.721  19.407  0.00  0.00    +0.000 A 
ATOM      6  C   UNL     1       2.178  11.000  18.267  0.00  0.00    +0.000 A 
ATOM      7  C   UNL     1       2.407  12.319  17.876  0.00  0.00    +0.000 A 
ATOM      8  C   UNL     1       1.872  13.363  18.614  0.00  0.00    +0.000 A 
ATOM      9  C   UNL     1       1.092  13.115  19.750  0.00  0.00    +0.000 A 
ATOM     10  C   UNL     1       0.838  11.782  20.136  0.00  0.00    +0.000 A 
ENDROOT
BRANCH   1  11
ATOM     11  S   UNL     1      -0.794  12.144  22.311  0.00  0.00    +0.000 S 
ATOM     12  O   UNL     1      -0.150  13.440  22.386  0.00  0.00    +0.000 OA
ATOM     13  O   UNL     1      -0.916  11.328  23.506  0.00  0.00    +0.000 OA
BRANCH  11  18
ATOM     14  C   UNL     1      -6.311  13.020  19.913  0.00  0.00    +0.000 C 
ATOM     15  C   UNL     1      -4.946  12.798  20.498  0.00  0.00    +0.000 A 
ATOM     16  C   UNL     1      -3.845  12.544  19.673  0.00  0.00    +0.000 A 
ATOM     17  C   UNL     1      -2.580  12.328  20.225  0.00  0.00    +0.000 A 
ATOM     18  C   UNL     1      -2.414  12.351  21.611  0.00  0.00    +0.000 A 
ATOM     19  C   UNL     1      -3.502  12.625  22.446  0.00  0.00    +0.000 A 
ATOM     20  C   UNL     1      -4.764  12.843  21.888  0.00  0.00    +0.000 A 
ENDBRANCH  11  18
ENDBRANCH   1  11
BRANCH   4  21
ATOM     21  C   UNL     1       1.339   8.180  19.549  0.00  0.00    +0.000 C 
ATOM     22  N   UNL     1       2.238   7.448  20.130  0.00  0.00    +0.000 NA
BRANCH  22  23
ATOM     23  N   UNL     1       2.335   6.236  19.526  0.00  0.00    +0.000 N 
ATOM     24  C   UNL     1       3.630   5.867  18.927  0.00  0.00    +0.000 C 
ATOM     25  C   UNL     1       3.422   4.691  17.944  0.00  0.00    +0.000 C 
ATOM     26  N   UNL     1       2.816   3.506  18.590  0.00  0.00    +0.000 NA
ATOM     27  C   UNL     1       2.511   2.474  17.600  0.00  0.00    +0.000 C 
ATOM     28  C   UNL     1       1.592   3.896  19.316  0.00  0.00    +0.000 C 
ATOM     29  C   UNL     1       1.835   5.066  20.282  0.00  0.00    +0.000 C 
ENDBRANCH  22  23
ENDBRANCH   4  21
TORSDOF 4
ENDMDL
