MODEL 1
REMARK VINA RESULT:      -7.4      0.000      0.000
REMARK  Name = 
REMARK  2 active torsions:
REMARK  status: ('A' for Active; 'I' for Inactive)
REMARK    1  A    between atoms: C_8  and  O_9
REMARK    2  A    between atoms: O_9  and  C_10
REMARK                            x       y       z     vdW  Elec       q    Type
REMARK                         _______ _______ _______ _____ _____    ______ ____
ROOT
ATOM      1  O   UNL     1       7.136   6.356  16.198  0.00  0.00    +0.000 OA
ATOM      2  C   UNL     1       6.209   5.572  16.343  0.00  0.00    +0.000 C 
ATOM      3  C   UNL     1       6.298   4.204  15.802  0.00  0.00    +0.000 C 
ATOM      4  C   UNL     1       5.439   3.265  16.201  0.00  0.00    +0.000 C 
ATOM      5  C   UNL     1       4.430   3.574  17.230  0.00  0.00    +0.000 C 
ATOM      6  O   UNL     1       4.067   2.675  17.980  0.00  0.00    +0.000 OA
ATOM      7  C   UNL     1       3.984   4.978  17.349  0.00  0.00    +0.000 A 
ATOM      8  C   UNL     1       2.750   5.386  17.869  0.00  0.00    +0.000 A 
ATOM      9  C   UNL     1       2.527   6.764  18.075  0.00  0.00    +0.000 A 
ATOM     10  C   UNL     1       3.495   7.724  17.765  0.00  0.00    +0.000 A 
ATOM     11  C   UNL     1       4.702   7.319  17.216  0.00  0.00    +0.000 A 
ATOM     12  C   UNL     1       4.936   5.956  16.992  0.00  0.00    +0.000 A 
ENDROOT
BRANCH   8  13
ATOM     13  O   UNL     1       1.682   4.646  18.280  0.00  0.00    +0.000 OA
BRANCH  13  14
ATOM     14  C   UNL     1       1.340   4.439  19.651  0.00  0.00    +0.000 C 
ATOM     15  C   UNL     1       0.976   2.960  19.797  0.00  0.00    +0.000 C 
ATOM     16  C   UNL     1       1.292   2.580  21.232  0.00  0.00    +0.000 C 
ATOM     17  C   UNL     1       2.304   3.596  21.738  0.00  0.00    +0.000 C 
ATOM     18  C   UNL     1       2.476   4.648  20.645  0.00  0.00    +0.000 C 
ENDBRANCH  13  14
ENDBRANCH   8  13
TORSDOF 2
ENDMDL
MODEL 2
REMARK VINA RESULT:      -7.3      1.541      1.849
REMARK  Name = 
REMARK  2 active torsions:
REMARK  status: ('A' for Active; 'I' for Inactive)
REMARK    1  A    between atoms: C_8  and  O_9
REMARK    2  A    between atoms: O_9  and  C_10
REMARK                            x       y       z     vdW  Elec       q    Type
REMARK                         _______ _______ _______ _____ _____    ______ ____
ROOT
ATOM      1  O   UNL     1       5.154   7.216  15.294  0.00  0.00    +0.000 OA
ATOM      2  C   UNL     1       5.026   6.328  16.124  0.00  0.00    +0.000 C 
ATOM      3  C   UNL     1       5.658   5.013  15.913  0.00  0.00    +0.000 C 
ATOM      4  C   UNL     1       5.774   4.152  16.925  0.00  0.00    +0.000 C 
ATOM      5  C   UNL     1       5.326   4.532  18.276  0.00  0.00    +0.000 C 
ATOM      6  O   UNL     1       5.911   4.056  19.242  0.00  0.00    +0.000 OA
ATOM      7  C   UNL     1       4.247   5.538  18.379  0.00  0.00    +0.000 A 
ATOM      8  C   UNL     1       3.369   5.665  19.463  0.00  0.00    +0.000 A 
ATOM      9  C   UNL     1       2.498   6.773  19.499  0.00  0.00    +0.000 A 
ATOM     10  C   UNL     1       2.482   7.734  18.484  0.00  0.00    +0.000 A 
ATOM     11  C   UNL     1       3.327   7.586  17.395  0.00  0.00    +0.000 A 
ATOM     12  C   UNL     1       4.189   6.484  17.335  0.00  0.00    +0.000 A 
ENDROOT
BRANCH   8  13
ATOM     13  O   UNL     1       3.230   4.890  20.575  0.00  0.00    +0.000 OA
BRANCH  13  14
ATOM     14  C   UNL     1       2.432   3.706  20.622  0.00  0.00    +0.000 C 
ATOM     15  C   UNL     1       1.095   4.049  19.960  0.00  0.00    +0.000 C 
ATOM     16  C   UNL     1       0.556   2.752  19.385  0.00  0.00    +0.000 C 
ATOM     17  C   UNL     1       1.749   1.825  19.212  0.00  0.00    +0.000 C 
ATOM     18  C   UNL     1       2.963   2.529  19.813  0.00  0.00    +0.000 C 
ENDBRANCH  13  14
ENDBRANCH   8  13
TORSDOF 2
ENDMDL
MODEL 3
REMARK VINA RESULT:      -7.2      1.927      3.030
REMARK  Name = 
REMARK  2 active torsions:
REMARK  status: ('A' for Active; 'I' for Inactive)
REMARK    1  A    between atoms: C_8  and  O_9
REMARK    2  A    between atoms: O_9  and  C_10
REMARK                            x       y       z     vdW  Elec       q    Type
REMARK                         _______ _______ _______ _____ _____    ______ ____
ROOT
ATOM      1  O   UNL     1       7.875   7.755  16.882  0.00  0.00    +0.000 OA
ATOM      2  C   UNL     1       7.443   6.770  17.463  0.00  0.00    +0.000 C 
ATOM      3  C   UNL     1       7.905   6.445  18.825  0.00  0.00    +0.000 C 
ATOM      4  C   UNL     1       7.236   5.563  19.569  0.00  0.00    +0.000 C 
ATOM      5  C   UNL     1       5.997   4.951  19.058  0.00  0.00    +0.000 C 
ATOM      6  O   UNL     1       5.125   4.640  19.861  0.00  0.00    +0.000 OA
ATOM      7  C   UNL     1       5.850   4.831  17.593  0.00  0.00    +0.000 A 
ATOM      8  C   UNL     1       5.046   3.888  16.941  0.00  0.00    +0.000 A 
ATOM      9  C   UNL     1       4.872   3.997  15.546  0.00  0.00    +0.000 A 
ATOM     10  C   UNL     1       5.485   5.009  14.802  0.00  0.00    +0.000 A 
ATOM     11  C   UNL     1       6.309   5.921  15.444  0.00  0.00    +0.000 A 
ATOM     12  C   UNL     1       6.504   5.819  16.827  0.00  0.00    +0.000 A 
ENDROOT
BRANCH   8  13
ATOM     13  O   UNL     1       4.323   2.849  17.450  0.00  0.00    +0.000 OA
BRANCH  13  14
ATOM     14  C   UNL     1       2.907   2.883  17.631  0.00  0.00    +0.000 C 
ATOM     15  C   UNL     1       2.595   1.986  18.832  0.00  0.00    +0.000 C 
ATOM     16  C   UNL     1       1.318   2.527  19.450  0.00  0.00    +0.000 C 
ATOM     17  C   UNL     1       1.198   3.975  19.002  0.00  0.00    +0.000 C 
ATOM     18  C   UNL     1       2.330   4.241  18.014  0.00  0.00    +0.000 C 
ENDBRANCH  13  14
ENDBRANCH   8  13
TORSDOF 2
ENDMDL
MODEL 4
REMARK VINA RESULT:      -7.0      1.838      5.004
REMARK  Name = 
REMARK  2 active torsions:
REMARK  status: ('A' for Active; 'I' for Inactive)
REMARK    1  A    between atoms: C_8  and  O_9
REMARK    2  A    between atoms: O_9  and  C_10
REMARK                            x       y       z     vdW  Elec       q    Type
REMARK                         _______ _______ _______ _____ _____    ______ ____
ROOT
ATOM      1  O   UNL     1       0.728   2.936  21.149  0.00  0.00    +0.000 OA
ATOM      2  C   UNL     1       1.502   3.040  20.210  0.00  0.00    +0.000 C 
ATOM      3  C   UNL     1       2.037   1.837  19.547  0.00  0.00    +0.000 C 
ATOM      4  C   UNL     1       2.634   1.932  18.358  0.00  0.00    +0.000 C 
ATOM      5  C   UNL     1       2.712   3.233  17.671  0.00  0.00    +0.000 C 
ATOM      6  O   UNL     1       2.708   3.248  16.445  0.00  0.00    +0.000 OA
ATOM      7  C   UNL     1       2.703   4.450  18.510  0.00  0.00    +0.000 A 
ATOM      8  C   UNL     1       3.246   5.686  18.138  0.00  0.00    +0.000 A 
ATOM      9  C   UNL     1       3.018   6.801  18.971  0.00  0.00    +0.000 A 
ATOM     10  C   UNL     1       2.279   6.702  20.153  0.00  0.00    +0.000 A 
ATOM     11  C   UNL     1       1.773   5.470  20.537  0.00  0.00    +0.000 A 
ATOM     12  C   UNL     1       2.001   4.348  19.730  0.00  0.00    +0.000 A 
ENDROOT
BRANCH   8  13
ATOM     13  O   UNL     1       3.957   6.034  17.029  0.00  0.00    +0.000 OA
BRANCH  13  14
ATOM     14  C   UNL     1       5.358   5.799  16.878  0.00  0.00    +0.000 C 
ATOM     15  C   UNL     1       6.056   7.146  17.079  0.00  0.00    +0.000 C 
ATOM     16  C   UNL     1       7.444   6.836  17.608  0.00  0.00    +0.000 C 
ATOM     17  C   UNL     1       7.374   5.445  18.221  0.00  0.00    +0.000 C 
ATOM     18  C   UNL     1       5.983   4.889  17.929  0.00  0.00    +0.000 C 
ENDBRANCH  13  14
ENDBRANCH   8  13
TORSDOF 2
ENDMDL
MODEL 5
REMARK VINA RESULT:      -7.0      0.972      1.318
REMARK  Name = 
REMARK  2 active torsions:
REMARK  status: ('A' for Active; 'I' for Inactive)
REMARK    1  A    between atoms: C_8  and  O_9
REMARK    2  A    between atoms: O_9  and  C_10
REMARK                            x       y       z     vdW  Elec       q    Type
REMARK                         _______ _______ _______ _____ _____    ______ ____
ROOT
ATOM      1  O   UNL     1       6.459   7.352  16.598  0.00  0.00    +0.000 OA
ATOM      2  C   UNL     1       5.828   6.315  16.455  0.00  0.00    +0.000 C 
ATOM      3  C   UNL     1       6.303   5.276  15.524  0.00  0.00    +0.000 C 
ATOM      4  C   UNL     1       5.799   4.043  15.578  0.00  0.00    +0.000 C 
ATOM      5  C   UNL     1       4.805   3.693  16.608  0.00  0.00    +0.000 C 
ATOM      6  O   UNL     1       4.779   2.543  17.029  0.00  0.00    +0.000 OA
ATOM      7  C   UNL     1       3.956   4.783  17.133  0.00  0.00    +0.000 A 
ATOM      8  C   UNL     1       2.688   4.609  17.701  0.00  0.00    +0.000 A 
ATOM      9  C   UNL     1       2.063   5.718  18.311  0.00  0.00    +0.000 A 
ATOM     10  C   UNL     1       2.670   6.977  18.352  0.00  0.00    +0.000 A 
ATOM     11  C   UNL     1       3.909   7.154  17.758  0.00  0.00    +0.000 A 
ATOM     12  C   UNL     1       4.538   6.068  17.136  0.00  0.00    +0.000 A 
ENDROOT
BRANCH   8  13
ATOM     13  O   UNL     1       1.924   3.486  17.818  0.00  0.00    +0.000 OA
BRANCH  13  14
ATOM     14  C   UNL     1       1.840   2.705  19.011  0.00  0.00    +0.000 C 
ATOM     15  C   UNL     1       3.110   2.990  19.815  0.00  0.00    +0.000 C 
ATOM     16  C   UNL     1       2.752   2.775  21.275  0.00  0.00    +0.000 C 
ATOM     17  C   UNL     1       1.240   2.916  21.375  0.00  0.00    +0.000 C 
ATOM     18  C   UNL     1       0.703   3.077  19.956  0.00  0.00    +0.000 C 
ENDBRANCH  13  14
ENDBRANCH   8  13
TORSDOF 2
ENDMDL
MODEL 6
REMARK VINA RESULT:      -7.0      2.121      4.786
REMARK  Name = 
REMARK  2 active torsions:
REMARK  status: ('A' for Active; 'I' for Inactive)
REMARK    1  A    between atoms: C_8  and  O_9
REMARK    2  A    between atoms: O_9  and  C_10
REMARK                            x       y       z     vdW  Elec       q    Type
REMARK                         _______ _______ _______ _____ _____    ______ ____
ROOT
ATOM      1  O   UNL     1       3.283   1.387  17.985  0.00  0.00    +0.000 OA
ATOM      2  C   UNL     1       2.788   2.407  18.441  0.00  0.00    +0.000 C 
ATOM      3  C   UNL     1       1.578   2.337  19.281  0.00  0.00    +0.000 C 
ATOM      4  C   UNL     1       1.207   3.388  20.014  0.00  0.00    +0.000 C 
ATOM      5  C   UNL     1       2.035   4.606  20.036  0.00  0.00    +0.000 C 
ATOM      6  O   UNL     1       2.051   5.284  21.056  0.00  0.00    +0.000 OA
ATOM      7  C   UNL     1       2.868   4.886  18.847  0.00  0.00    +0.000 A 
ATOM      8  C   UNL     1       3.311   6.156  18.458  0.00  0.00    +0.000 A 
ATOM      9  C   UNL     1       4.235   6.253  17.397  0.00  0.00    +0.000 A 
ATOM     10  C   UNL     1       4.708   5.123  16.723  0.00  0.00    +0.000 A 
ATOM     11  C   UNL     1       4.240   3.870  17.087  0.00  0.00    +0.000 A 
ATOM     12  C   UNL     1       3.312   3.755  18.129  0.00  0.00    +0.000 A 
ENDROOT
BRANCH   8  13
ATOM     13  O   UNL     1       3.028   7.383  18.981  0.00  0.00    +0.000 OA
BRANCH  13  14
ATOM     14  C   UNL     1       1.810   8.087  18.737  0.00  0.00    +0.000 C 
ATOM     15  C   UNL     1       1.307   8.582  20.095  0.00  0.00    +0.000 C 
ATOM     16  C   UNL     1       0.494   9.835  19.821  0.00  0.00    +0.000 C 
ATOM     17  C   UNL     1       0.960  10.368  18.475  0.00  0.00    +0.000 C 
ATOM     18  C   UNL     1       1.945   9.353  17.900  0.00  0.00    +0.000 C 
ENDBRANCH  13  14
ENDBRANCH   8  13
TORSDOF 2
ENDMDL
MODEL 7
REMARK VINA RESULT:      -6.9      1.119      1.187
REMARK  Name = 
REMARK  2 active torsions:
REMARK  status: ('A' for Active; 'I' for Inactive)
REMARK    1  A    between atoms: C_8  and  O_9
REMARK    2  A    between atoms: O_9  and  C_10
REMARK                            x       y       z     vdW  Elec       q    Type
REMARK                         _______ _______ _______ _____ _____    ______ ____
ROOT
ATOM      1  O   UNL     1       7.049   7.975  17.209  0.00  0.00    +0.000 OA
ATOM      2  C   UNL     1       6.492   6.891  17.293  0.00  0.00    +0.000 C 
ATOM      3  C   UNL     1       7.245   5.645  17.060  0.00  0.00    +0.000 C 
ATOM      4  C   UNL     1       6.735   4.470  17.432  0.00  0.00    +0.000 C 
ATOM      5  C   UNL     1       5.440   4.413  18.132  0.00  0.00    +0.000 C 
ATOM      6  O   UNL     1       5.252   3.513  18.941  0.00  0.00    +0.000 OA
ATOM      7  C   UNL     1       4.477   5.505  17.875  0.00  0.00    +0.000 A 
ATOM      8  C   UNL     1       3.089   5.401  18.020  0.00  0.00    +0.000 A 
ATOM      9  C   UNL     1       2.308   6.570  17.900  0.00  0.00    +0.000 A 
ATOM     10  C   UNL     1       2.880   7.817  17.634  0.00  0.00    +0.000 A 
ATOM     11  C   UNL     1       4.252   7.910  17.455  0.00  0.00    +0.000 A 
ATOM     12  C   UNL     1       5.042   6.758  17.556  0.00  0.00    +0.000 A 
ENDROOT
BRANCH   8  13
ATOM     13  O   UNL     1       2.315   4.318  18.318  0.00  0.00    +0.000 OA
BRANCH  13  14
ATOM     14  C   UNL     1       1.653   4.137  19.570  0.00  0.00    +0.000 C 
ATOM     15  C   UNL     1       1.448   2.631  19.747  0.00  0.00    +0.000 C 
ATOM     16  C   UNL     1       1.421   2.374  21.243  0.00  0.00    +0.000 C 
ATOM     17  C   UNL     1       2.132   3.549  21.898  0.00  0.00    +0.000 C 
ATOM     18  C   UNL     1       2.454   4.556  20.798  0.00  0.00    +0.000 C 
ENDBRANCH  13  14
ENDBRANCH   8  13
TORSDOF 2
ENDMDL
MODEL 8
REMARK VINA RESULT:      -6.9      1.802      4.866
REMARK  Name = 
REMARK  2 active torsions:
REMARK  status: ('A' for Active; 'I' for Inactive)
REMARK    1  A    between atoms: C_8  and  O_9
REMARK    2  A    between atoms: O_9  and  C_10
REMARK                            x       y       z     vdW  Elec       q    Type
REMARK                         _______ _______ _______ _____ _____    ______ ____
ROOT
ATOM      1  O   UNL     1       0.907   3.557  19.328  0.00  0.00    +0.000 OA
ATOM      2  C   UNL     1       2.010   3.632  18.807  0.00  0.00    +0.000 C 
ATOM      3  C   UNL     1       2.851   2.429  18.667  0.00  0.00    +0.000 C 
ATOM      4  C   UNL     1       3.906   2.436  17.851  0.00  0.00    +0.000 C 
ATOM      5  C   UNL     1       4.204   3.628  17.037  0.00  0.00    +0.000 C 
ATOM      6  O   UNL     1       4.741   3.471  15.947  0.00  0.00    +0.000 OA
ATOM      7  C   UNL     1       3.754   4.937  17.554  0.00  0.00    +0.000 A 
ATOM      8  C   UNL     1       4.333   6.170  17.230  0.00  0.00    +0.000 A 
ATOM      9  C   UNL     1       3.696   7.351  17.666  0.00  0.00    +0.000 A 
ATOM     10  C   UNL     1       2.517   7.320  18.417  0.00  0.00    +0.000 A 
ATOM     11  C   UNL     1       1.966   6.097  18.767  0.00  0.00    +0.000 A 
ATOM     12  C   UNL     1       2.592   4.914  18.355  0.00  0.00    +0.000 A 
ENDROOT
BRANCH   8  13
ATOM     13  O   UNL     1       5.440   6.452  16.485  0.00  0.00    +0.000 OA
BRANCH  13  14
ATOM     14  C   UNL     1       6.777   6.313  16.969  0.00  0.00    +0.000 C 
ATOM     15  C   UNL     1       7.235   7.707  17.404  0.00  0.00    +0.000 C 
ATOM     16  C   UNL     1       8.269   7.498  18.496  0.00  0.00    +0.000 C 
ATOM     17  C   UNL     1       8.020   6.111  19.068  0.00  0.00    +0.000 C 
ATOM     18  C   UNL     1       6.932   5.458  18.220  0.00  0.00    +0.000 C 
ENDBRANCH  13  14
ENDBRANCH   8  13
TORSDOF 2
ENDMDL
MODEL 9
REMARK VINA RESULT:      -6.8      1.805      4.898
REMARK  Name = 
REMARK  2 active torsions:
REMARK  status: ('A' for Active; 'I' for Inactive)
REMARK    1  A    between atoms: C_8  and  O_9
REMARK    2  A    between atoms: O_9  and  C_10
REMARK                            x       y       z     vdW  Elec       q    Type
REMARK                         _______ _______ _______ _____ _____    ______ ____
ROOT
ATOM      1  O   UNL     1       1.804   3.229  22.086  0.00  0.00    +0.000 OA
ATOM      2  C   UNL     1       2.535   3.327  21.112  0.00  0.00    +0.000 C 
ATOM      3  C   UNL     1       3.482   2.248  20.778  0.00  0.00    +0.000 C 
ATOM      4  C   UNL     1       4.062   2.208  19.578  0.00  0.00    +0.000 C 
ATOM      5  C   UNL     1       3.716   3.210  18.555  0.00  0.00    +0.000 C 
ATOM      6  O   UNL     1       3.761   2.881  17.375  0.00  0.00    +0.000 OA
ATOM      7  C   UNL     1       3.249   4.532  19.025  0.00  0.00    +0.000 A 
ATOM      8  C   UNL     1       3.346   5.723  18.296  0.00  0.00    +0.000 A 
ATOM      9  C   UNL     1       2.710   6.877  18.800  0.00  0.00    +0.000 A 
ATOM     10  C   UNL     1       1.999   6.863  20.003  0.00  0.00    +0.000 A 
ATOM     11  C   UNL     1       1.934   5.690  20.740  0.00  0.00    +0.000 A 
ATOM     12  C   UNL     1       2.572   4.538  20.263  0.00  0.00    +0.000 A 
ENDROOT
BRANCH   8  13
ATOM     13  O   UNL     1       3.942   5.972  17.095  0.00  0.00    +0.000 OA
BRANCH  13  14
ATOM     14  C   UNL     1       5.356   6.051  16.912  0.00  0.00    +0.000 C 
ATOM     15  C   UNL     1       5.992   5.812  18.284  0.00  0.00    +0.000 C 
ATOM     16  C   UNL     1       7.362   5.213  18.023  0.00  0.00    +0.000 C 
ATOM     17  C   UNL     1       7.313   4.607  16.629  0.00  0.00    +0.000 C 
ATOM     18  C   UNL     1       5.960   4.971  16.023  0.00  0.00    +0.000 C 
ENDBRANCH  13  14
ENDBRANCH   8  13
TORSDOF 2
ENDMDL
