MODEL 1
REMARK VINA RESULT:      -7.1      0.000      0.000
REMARK  Name = 
REMARK  6 active torsions:
REMARK  status: ('A' for Active; 'I' for Inactive)
REMARK    1  A    between atoms: C_1  and  O_2
REMARK    2  A    between atoms: O_2  and  C_3
REMARK    3  A    between atoms: C_8  and  C_9
REMARK    4  A    between atoms: C_13  and  C_14
REMARK    5  A    between atoms: N_15  and  C_16
REMARK    6  A    between atoms: C_21  and  C_22
REMARK                            x       y       z     vdW  Elec       q    Type
REMARK                         _______ _______ _______ _____ _____    ______ ____
ROOT
ATOM      1  C   UNL     1       2.817   7.185  18.339  0.00  0.00    +0.000 C 
ATOM      2  O   UNL     1       3.590   7.621  17.483  0.00  0.00    +0.000 OA
ATOM      3  N   UNL     1       2.042   8.017  19.168  0.00  0.00    +0.000 N 
ATOM      4  C   UNL     1       1.509   7.658  20.392  0.00  0.00    +0.000 A 
ATOM      5  C   UNL     1       0.631   8.571  20.820  0.00  0.00    +0.000 A 
ATOM      6  C   UNL     1      -0.157   8.420  22.073  0.00  0.00    +0.000 C 
ATOM      7  N   UNL     1       0.528   9.604  19.878  0.00  0.00    +0.000 N 
ATOM      8  C   UNL     1       1.577   9.374  18.891  0.00  0.00    +0.000 A 
ATOM      9  S   UNL     1       2.274  10.464  17.833  0.00  0.00    +0.000 S 
ENDROOT
BRANCH   7  10
ATOM     10  C   UNL     1      -0.440  10.670  19.869  0.00  0.00    +0.000 A 
ATOM     11  C   UNL     1      -0.464  11.550  20.969  0.00  0.00    +0.000 A 
ATOM     12  C   UNL     1      -1.458  12.519  21.140  0.00  0.00    +0.000 A 
ATOM     13  C   UNL     1      -2.432  12.680  20.173  0.00  0.00    +0.000 A 
ATOM     14  C   UNL     1      -2.412  11.863  19.048  0.00  0.00    +0.000 A 
ATOM     15  C   UNL     1      -1.453  10.832  18.885  0.00  0.00    +0.000 A 
ATOM     16  C   UNL     1      -1.697   9.926  17.708  0.00  0.00    +0.000 C 
ENDBRANCH   7  10
BRANCH   1  22
ATOM     17  C   UNL     1       3.706   4.904  19.199  0.00  0.00    +0.000 A 
ATOM     18  C   UNL     1       3.494   3.518  19.317  0.00  0.00    +0.000 A 
ATOM     19  C   UNL     1       2.353   2.918  18.782  0.00  0.00    +0.000 A 
ATOM     20  C   UNL     1       1.407   3.692  18.122  0.00  0.00    +0.000 A 
ATOM     21  C   UNL     1       1.624   5.062  17.963  0.00  0.00    +0.000 A 
ATOM     22  C   UNL     1       2.778   5.688  18.480  0.00  0.00    +0.000 A 
BRANCH  17  24
ATOM     23  C   UNL     1       6.063   5.311  19.194  0.00  0.00    +0.000 C 
ATOM     24  O   UNL     1       4.782   5.530  19.774  0.00  0.00    +0.000 OA
ENDBRANCH  17  24
ENDBRANCH   1  22
TORSDOF 3
ENDMDL
MODEL 2
REMARK VINA RESULT:      -6.8      0.526      1.435
REMARK  Name = 
REMARK  6 active torsions:
REMARK  status: ('A' for Active; 'I' for Inactive)
REMARK    1  A    between atoms: C_1  and  O_2
REMARK    2  A    between atoms: O_2  and  C_3
REMARK    3  A    between atoms: C_8  and  C_9
REMARK    4  A    between atoms: C_13  and  C_14
REMARK    5  A    between atoms: N_15  and  C_16
REMARK    6  A    between atoms: C_21  and  C_22
REMARK                            x       y       z     vdW  Elec       q    Type
REMARK                         _______ _______ _______ _____ _____    ______ ____
ROOT
ATOM      1  C   UNL     1       2.971   7.026  18.261  0.00  0.00    +0.000 C 
ATOM      2  O   UNL     1       3.719   7.447  17.375  0.00  0.00    +0.000 OA
ATOM      3  N   UNL     1       2.185   7.872  19.066  0.00  0.00    +0.000 N 
ATOM      4  C   UNL     1       1.680   7.550  20.312  0.00  0.00    +0.000 A 
ATOM      5  C   UNL     1       0.783   8.457  20.714  0.00  0.00    +0.000 A 
ATOM      6  C   UNL     1       0.018   8.338  21.984  0.00  0.00    +0.000 C 
ATOM      7  N   UNL     1       0.637   9.445  19.731  0.00  0.00    +0.000 N 
ATOM      8  C   UNL     1       1.678   9.202  18.738  0.00  0.00    +0.000 A 
ATOM      9  S   UNL     1       2.329  10.265  17.625  0.00  0.00    +0.000 S 
ENDROOT
BRANCH   7  10
ATOM     10  C   UNL     1      -0.360  10.482  19.693  0.00  0.00    +0.000 A 
ATOM     11  C   UNL     1      -1.497  10.277  18.885  0.00  0.00    +0.000 A 
ATOM     12  C   UNL     1      -2.447  11.276  18.650  0.00  0.00    +0.000 A 
ATOM     13  C   UNL     1      -2.320  12.503  19.273  0.00  0.00    +0.000 A 
ATOM     14  C   UNL     1      -1.238  12.727  20.117  0.00  0.00    +0.000 A 
ATOM     15  C   UNL     1      -0.229  11.752  20.319  0.00  0.00    +0.000 A 
ATOM     16  C   UNL     1       0.960  12.232  21.107  0.00  0.00    +0.000 C 
ENDBRANCH   7  10
BRANCH   1  22
ATOM     17  C   UNL     1       3.924   4.812  19.221  0.00  0.00    +0.000 A 
ATOM     18  C   UNL     1       3.753   3.427  19.397  0.00  0.00    +0.000 A 
ATOM     19  C   UNL     1       2.633   2.770  18.884  0.00  0.00    +0.000 A 
ATOM     20  C   UNL     1       1.668   3.486  18.187  0.00  0.00    +0.000 A 
ATOM     21  C   UNL     1       1.844   4.854  17.971  0.00  0.00    +0.000 A 
ATOM     22  C   UNL     1       2.977   5.536  18.465  0.00  0.00    +0.000 A 
BRANCH  17  24
ATOM     23  C   UNL     1       6.269   5.281  19.216  0.00  0.00    +0.000 C 
ATOM     24  O   UNL     1       4.977   5.494  19.774  0.00  0.00    +0.000 OA
ENDBRANCH  17  24
ENDBRANCH   1  22
TORSDOF 3
ENDMDL
MODEL 3
REMARK VINA RESULT:      -6.8      1.736      2.550
REMARK  Name = 
REMARK  6 active torsions:
REMARK  status: ('A' for Active; 'I' for Inactive)
REMARK    1  A    between atoms: C_1  and  O_2
REMARK    2  A    between atoms: O_2  and  C_3
REMARK    3  A    between atoms: C_8  and  C_9
REMARK    4  A    between atoms: C_13  and  C_14
REMARK    5  A    between atoms: N_15  and  C_16
REMARK    6  A    between atoms: C_21  and  C_22
REMARK                            x       y       z     vdW  Elec       q    Type
REMARK                         _______ _______ _______ _____ _____    ______ ____
ROOT
ATOM      1  C   UNL     1       2.456   6.202  19.302  0.00  0.00    +0.000 C 
ATOM      2  O   UNL     1       3.324   6.190  18.426  0.00  0.00    +0.000 OA
ATOM      3  N   UNL     1       1.862   7.387  19.776  0.00  0.00    +0.000 N 
ATOM      4  C   UNL     1       1.237   7.536  21.000  0.00  0.00    +0.000 A 
ATOM      5  C   UNL     1       0.570   8.694  21.060  0.00  0.00    +0.000 A 
ATOM      6  C   UNL     1      -0.259   9.097  22.227  0.00  0.00    +0.000 C 
ATOM      7  N   UNL     1       0.716   9.386  19.850  0.00  0.00    +0.000 N 
ATOM      8  C   UNL     1       1.712   8.657  19.071  0.00  0.00    +0.000 A 
ATOM      9  S   UNL     1       2.653   9.207  17.804  0.00  0.00    +0.000 S 
ENDROOT
BRANCH   7  10
ATOM     10  C   UNL     1       0.005  10.569  19.442  0.00  0.00    +0.000 A 
ATOM     11  C   UNL     1      -1.074  10.417  18.548  0.00  0.00    +0.000 A 
ATOM     12  C   UNL     1      -1.731  11.505  17.966  0.00  0.00    +0.000 A 
ATOM     13  C   UNL     1      -1.368  12.792  18.312  0.00  0.00    +0.000 A 
ATOM     14  C   UNL     1      -0.341  12.982  19.230  0.00  0.00    +0.000 A 
ATOM     15  C   UNL     1       0.382  11.896  19.784  0.00  0.00    +0.000 A 
ATOM     16  C   UNL     1       1.580  12.292  20.606  0.00  0.00    +0.000 C 
ENDBRANCH   7  10
BRANCH   1  22
ATOM     17  C   UNL     1       1.624   3.750  19.136  0.00  0.00    +0.000 A 
ATOM     18  C   UNL     1       1.401   2.528  19.795  0.00  0.00    +0.000 A 
ATOM     19  C   UNL     1       1.685   2.383  21.154  0.00  0.00    +0.000 A 
ATOM     20  C   UNL     1       2.195   3.455  21.874  0.00  0.00    +0.000 A 
ATOM     21  C   UNL     1       2.384   4.685  21.242  0.00  0.00    +0.000 A 
ATOM     22  C   UNL     1       2.088   4.861  19.874  0.00  0.00    +0.000 A 
BRANCH  17  24
ATOM     23  C   UNL     1       2.383   3.334  16.906  0.00  0.00    +0.000 C 
ATOM     24  O   UNL     1       1.421   3.901  17.789  0.00  0.00    +0.000 OA
ENDBRANCH  17  24
ENDBRANCH   1  22
TORSDOF 3
ENDMDL
MODEL 4
REMARK VINA RESULT:      -6.7      1.105      1.743
REMARK  Name = 
REMARK  6 active torsions:
REMARK  status: ('A' for Active; 'I' for Inactive)
REMARK    1  A    between atoms: C_1  and  O_2
REMARK    2  A    between atoms: O_2  and  C_3
REMARK    3  A    between atoms: C_8  and  C_9
REMARK    4  A    between atoms: C_13  and  C_14
REMARK    5  A    between atoms: N_15  and  C_16
REMARK    6  A    between atoms: C_21  and  C_22
REMARK                            x       y       z     vdW  Elec       q    Type
REMARK                         _______ _______ _______ _____ _____    ______ ____
ROOT
ATOM      1  C   UNL     1       2.595   6.713  19.066  0.00  0.00    +0.000 C 
ATOM      2  O   UNL     1       3.313   6.886  18.078  0.00  0.00    +0.000 OA
ATOM      3  N   UNL     1       1.897   7.758  19.699  0.00  0.00    +0.000 N 
ATOM      4  C   UNL     1       1.446   7.744  21.006  0.00  0.00    +0.000 A 
ATOM      5  C   UNL     1       0.618   8.769  21.238  0.00  0.00    +0.000 A 
ATOM      6  C   UNL     1      -0.081   8.974  22.535  0.00  0.00    +0.000 C 
ATOM      7  N   UNL     1       0.468   9.529  20.070  0.00  0.00    +0.000 N 
ATOM      8  C   UNL     1       1.440   9.014  19.111  0.00  0.00    +0.000 A 
ATOM      9  S   UNL     1       2.081   9.771  17.765  0.00  0.00    +0.000 S 
ENDROOT
BRANCH   7  10
ATOM     10  C   UNL     1      -0.477  10.592  19.848  0.00  0.00    +0.000 A 
ATOM     11  C   UNL     1      -1.583  10.330  19.016  0.00  0.00    +0.000 A 
ATOM     12  C   UNL     1      -2.474  11.327  18.607  0.00  0.00    +0.000 A 
ATOM     13  C   UNL     1      -2.319  12.619  19.073  0.00  0.00    +0.000 A 
ATOM     14  C   UNL     1      -1.267  12.906  19.937  0.00  0.00    +0.000 A 
ATOM     15  C   UNL     1      -0.316  11.926  20.313  0.00  0.00    +0.000 A 
ATOM     16  C   UNL     1       0.858  12.455  21.094  0.00  0.00    +0.000 C 
ENDBRANCH   7  10
BRANCH   1  22
ATOM     17  C   UNL     1       3.650   4.474  19.845  0.00  0.00    +0.000 A 
ATOM     18  C   UNL     1       3.448   3.206  20.419  0.00  0.00    +0.000 A 
ATOM     19  C   UNL     1       2.172   2.781  20.792  0.00  0.00    +0.000 A 
ATOM     20  C   UNL     1       1.079   3.615  20.597  0.00  0.00    +0.000 A 
ATOM     21  C   UNL     1       1.259   4.860  19.991  0.00  0.00    +0.000 A 
ATOM     22  C   UNL     1       2.537   5.304  19.591  0.00  0.00    +0.000 A 
BRANCH  17  24
ATOM     23  C   UNL     1       5.600   4.310  18.469  0.00  0.00    +0.000 C 
ATOM     24  O   UNL     1       4.900   4.944  19.534  0.00  0.00    +0.000 OA
ENDBRANCH  17  24
ENDBRANCH   1  22
TORSDOF 3
ENDMDL
MODEL 5
REMARK VINA RESULT:      -6.6      1.568      2.042
REMARK  Name = 
REMARK  6 active torsions:
REMARK  status: ('A' for Active; 'I' for Inactive)
REMARK    1  A    between atoms: C_1  and  O_2
REMARK    2  A    between atoms: O_2  and  C_3
REMARK    3  A    between atoms: C_8  and  C_9
REMARK    4  A    between atoms: C_13  and  C_14
REMARK    5  A    between atoms: N_15  and  C_16
REMARK    6  A    between atoms: C_21  and  C_22
REMARK                            x       y       z     vdW  Elec       q    Type
REMARK                         _______ _______ _______ _____ _____    ______ ____
ROOT
ATOM      1  C   UNL     1       2.340   6.355  19.243  0.00  0.00    +0.000 C 
ATOM      2  O   UNL     1       3.134   6.360  18.300  0.00  0.00    +0.000 OA
ATOM      3  N   UNL     1       1.820   7.532  19.814  0.00  0.00    +0.000 N 
ATOM      4  C   UNL     1       1.299   7.640  21.090  0.00  0.00    +0.000 A 
ATOM      5  C   UNL     1       0.672   8.810  21.254  0.00  0.00    +0.000 A 
ATOM      6  C   UNL     1      -0.050   9.181  22.500  0.00  0.00    +0.000 C 
ATOM      7  N   UNL     1       0.741   9.553  20.067  0.00  0.00    +0.000 N 
ATOM      8  C   UNL     1       1.650   8.835  19.179  0.00  0.00    +0.000 A 
ATOM      9  S   UNL     1       2.503   9.418  17.865  0.00  0.00    +0.000 S 
ENDROOT
BRANCH   7  10
ATOM     10  C   UNL     1       0.033  10.771  19.769  0.00  0.00    +0.000 A 
ATOM     11  C   UNL     1       0.356  11.922  20.514  0.00  0.00    +0.000 A 
ATOM     12  C   UNL     1      -0.372  13.112  20.419  0.00  0.00    +0.000 A 
ATOM     13  C   UNL     1      -1.417  13.207  19.519  0.00  0.00    +0.000 A 
ATOM     14  C   UNL     1      -1.734  12.107  18.730  0.00  0.00    +0.000 A 
ATOM     15  C   UNL     1      -1.052  10.871  18.855  0.00  0.00    +0.000 A 
ATOM     16  C   UNL     1      -1.650   9.739  18.064  0.00  0.00    +0.000 C 
ENDBRANCH   7  10
BRANCH   1  22
ATOM     17  C   UNL     1       1.537   3.898  19.020  0.00  0.00    +0.000 A 
ATOM     18  C   UNL     1       1.320   2.661  19.653  0.00  0.00    +0.000 A 
ATOM     19  C   UNL     1       1.591   2.492  21.012  0.00  0.00    +0.000 A 
ATOM     20  C   UNL     1       2.080   3.555  21.758  0.00  0.00    +0.000 A 
ATOM     21  C   UNL     1       2.262   4.800  21.153  0.00  0.00    +0.000 A 
ATOM     22  C   UNL     1       1.980   4.998  19.784  0.00  0.00    +0.000 A 
BRANCH  17  24
ATOM     23  C   UNL     1       2.284   3.466  16.789  0.00  0.00    +0.000 C 
ATOM     24  O   UNL     1       1.348   4.073  17.673  0.00  0.00    +0.000 OA
ENDBRANCH  17  24
ENDBRANCH   1  22
TORSDOF 3
ENDMDL
MODEL 6
REMARK VINA RESULT:      -6.6      2.287      3.687
REMARK  Name = 
REMARK  6 active torsions:
REMARK  status: ('A' for Active; 'I' for Inactive)
REMARK    1  A    between atoms: C_1  and  O_2
REMARK    2  A    between atoms: O_2  and  C_3
REMARK    3  A    between atoms: C_8  and  C_9
REMARK    4  A    between atoms: C_13  and  C_14
REMARK    5  A    between atoms: N_15  and  C_16
REMARK    6  A    between atoms: C_21  and  C_22
REMARK                            x       y       z     vdW  Elec       q    Type
REMARK                         _______ _______ _______ _____ _____    ______ ____
ROOT
ATOM      1  C   UNL     1       3.733   4.917  18.359  0.00  0.00    +0.000 C 
ATOM      2  O   UNL     1       3.415   3.823  18.831  0.00  0.00    +0.000 OA
ATOM      3  N   UNL     1       2.965   6.083  18.540  0.00  0.00    +0.000 N 
ATOM      4  C   UNL     1       2.999   7.199  17.725  0.00  0.00    +0.000 A 
ATOM      5  C   UNL     1       2.345   8.222  18.286  0.00  0.00    +0.000 A 
ATOM      6  C   UNL     1       2.273   9.577  17.676  0.00  0.00    +0.000 C 
ATOM      7  N   UNL     1       1.837   7.831  19.533  0.00  0.00    +0.000 N 
ATOM      8  C   UNL     1       2.051   6.391  19.636  0.00  0.00    +0.000 A 
ATOM      9  S   UNL     1       1.268   5.287  20.616  0.00  0.00    +0.000 S 
ENDROOT
BRANCH   7  10
ATOM     10  C   UNL     1       1.244   8.685  20.528  0.00  0.00    +0.000 A 
ATOM     11  C   UNL     1       1.714   8.581  21.853  0.00  0.00    +0.000 A 
ATOM     12  C   UNL     1       1.106   9.244  22.924  0.00  0.00    +0.000 A 
ATOM     13  C   UNL     1       0.038  10.089  22.691  0.00  0.00    +0.000 A 
ATOM     14  C   UNL     1      -0.423  10.256  21.390  0.00  0.00    +0.000 A 
ATOM     15  C   UNL     1       0.136   9.545  20.298  0.00  0.00    +0.000 A 
ATOM     16  C   UNL     1      -0.608   9.702  18.998  0.00  0.00    +0.000 C 
ENDBRANCH   7  10
BRANCH   1  22
ATOM     17  C   UNL     1       6.304   5.033  18.032  0.00  0.00    +0.000 A 
ATOM     18  C   UNL     1       7.390   4.944  17.142  0.00  0.00    +0.000 A 
ATOM     19  C   UNL     1       7.187   4.697  15.783  0.00  0.00    +0.000 A 
ATOM     20  C   UNL     1       5.898   4.538  15.293  0.00  0.00    +0.000 A 
ATOM     21  C   UNL     1       4.809   4.664  16.156  0.00  0.00    +0.000 A 
ATOM     22  C   UNL     1       4.988   4.929  17.531  0.00  0.00    +0.000 A 
BRANCH  17  24
ATOM     23  C   UNL     1       7.763   5.608  19.837  0.00  0.00    +0.000 C 
ATOM     24  O   UNL     1       6.477   5.204  19.381  0.00  0.00    +0.000 OA
ENDBRANCH  17  24
ENDBRANCH   1  22
TORSDOF 3
ENDMDL
MODEL 7
REMARK VINA RESULT:      -6.5      3.975      8.654
REMARK  Name = 
REMARK  6 active torsions:
REMARK  status: ('A' for Active; 'I' for Inactive)
REMARK    1  A    between atoms: C_1  and  O_2
REMARK    2  A    between atoms: O_2  and  C_3
REMARK    3  A    between atoms: C_8  and  C_9
REMARK    4  A    between atoms: C_13  and  C_14
REMARK    5  A    between atoms: N_15  and  C_16
REMARK    6  A    between atoms: C_21  and  C_22
REMARK                            x       y       z     vdW  Elec       q    Type
REMARK                         _______ _______ _______ _____ _____    ______ ____
ROOT
ATOM      1  C   UNL     1      -2.607  13.600  21.015  0.00  0.00    +0.000 C 
ATOM      2  O   UNL     1      -1.976  14.488  21.593  0.00  0.00    +0.000 OA
ATOM      3  N   UNL     1      -1.996  12.642  20.183  0.00  0.00    +0.000 N 
ATOM      4  C   UNL     1      -2.633  11.920  19.192  0.00  0.00    +0.000 A 
ATOM      5  C   UNL     1      -1.853  10.929  18.746  0.00  0.00    +0.000 A 
ATOM      6  C   UNL     1      -2.296   9.938  17.729  0.00  0.00    +0.000 C 
ATOM      7  N   UNL     1      -0.633  10.939  19.437  0.00  0.00    +0.000 N 
ATOM      8  C   UNL     1      -0.618  12.161  20.236  0.00  0.00    +0.000 A 
ATOM      9  S   UNL     1       0.694  12.975  20.875  0.00  0.00    +0.000 S 
ENDROOT
BRANCH   7  10
ATOM     10  C   UNL     1       0.393   9.931  19.391  0.00  0.00    +0.000 A 
ATOM     11  C   UNL     1       1.099   9.760  18.183  0.00  0.00    +0.000 A 
ATOM     12  C   UNL     1       2.002   8.713  17.978  0.00  0.00    +0.000 A 
ATOM     13  C   UNL     1       2.277   7.832  19.007  0.00  0.00    +0.000 A 
ATOM     14  C   UNL     1       1.637   7.998  20.230  0.00  0.00    +0.000 A 
ATOM     15  C   UNL     1       0.670   9.013  20.441  0.00  0.00    +0.000 A 
ATOM     16  C   UNL     1      -0.058   8.926  21.756  0.00  0.00    +0.000 C 
ENDBRANCH   7  10
BRANCH   1  22
ATOM     17  C   UNL     1      -4.797  12.934  22.236  0.00  0.00    +0.000 A 
ATOM     18  C   UNL     1      -6.187  13.116  22.359  0.00  0.00    +0.000 A 
ATOM     19  C   UNL     1      -6.871  14.005  21.529  0.00  0.00    +0.000 A 
ATOM     20  C   UNL     1      -6.180  14.725  20.564  0.00  0.00    +0.000 A 
ATOM     21  C   UNL     1      -4.807  14.526  20.404  0.00  0.00    +0.000 A 
ATOM     22  C   UNL     1      -4.097  13.620  21.220  0.00  0.00    +0.000 A 
BRANCH  17  24
ATOM     23  C   UNL     1      -4.004  12.505  24.451  0.00  0.00    +0.000 C 
ATOM     24  O   UNL     1      -4.089  12.122  23.083  0.00  0.00    +0.000 OA
ENDBRANCH  17  24
ENDBRANCH   1  22
TORSDOF 3
ENDMDL
MODEL 8
REMARK VINA RESULT:      -6.1      2.394      7.585
REMARK  Name = 
REMARK  6 active torsions:
REMARK  status: ('A' for Active; 'I' for Inactive)
REMARK    1  A    between atoms: C_1  and  O_2
REMARK    2  A    between atoms: O_2  and  C_3
REMARK    3  A    between atoms: C_8  and  C_9
REMARK    4  A    between atoms: C_13  and  C_14
REMARK    5  A    between atoms: N_15  and  C_16
REMARK    6  A    between atoms: C_21  and  C_22
REMARK                            x       y       z     vdW  Elec       q    Type
REMARK                         _______ _______ _______ _____ _____    ______ ____
ROOT
ATOM      1  C   UNL     1       0.790   9.444  19.964  0.00  0.00    +0.000 C 
ATOM      2  O   UNL     1       0.363   9.319  21.114  0.00  0.00    +0.000 OA
ATOM      3  N   UNL     1       1.698   8.539  19.381  0.00  0.00    +0.000 N 
ATOM      4  C   UNL     1       2.534   8.818  18.317  0.00  0.00    +0.000 A 
ATOM      5  C   UNL     1       3.094   7.699  17.842  0.00  0.00    +0.000 A 
ATOM      6  C   UNL     1       3.985   7.676  16.651  0.00  0.00    +0.000 C 
ATOM      7  N   UNL     1       2.643   6.595  18.579  0.00  0.00    +0.000 N 
ATOM      8  C   UNL     1       1.892   7.130  19.710  0.00  0.00    +0.000 A 
ATOM      9  S   UNL     1       1.530   6.391  21.166  0.00  0.00    +0.000 S 
ENDROOT
BRANCH   7  10
ATOM     10  C   UNL     1       2.855   5.206  18.268  0.00  0.00    +0.000 A 
ATOM     11  C   UNL     1       1.753   4.454  17.815  0.00  0.00    +0.000 A 
ATOM     12  C   UNL     1       1.806   3.069  17.635  0.00  0.00    +0.000 A 
ATOM     13  C   UNL     1       2.994   2.395  17.845  0.00  0.00    +0.000 A 
ATOM     14  C   UNL     1       4.117   3.110  18.246  0.00  0.00    +0.000 A 
ATOM     15  C   UNL     1       4.070   4.504  18.496  0.00  0.00    +0.000 A 
ATOM     16  C   UNL     1       5.323   5.077  19.104  0.00  0.00    +0.000 C 
ENDBRANCH   7  10
BRANCH   1  22
ATOM     17  C   UNL     1      -0.903  10.762  18.507  0.00  0.00    +0.000 A 
ATOM     18  C   UNL     1      -1.262  11.994  17.929  0.00  0.00    +0.000 A 
ATOM     19  C   UNL     1      -0.463  13.126  18.097  0.00  0.00    +0.000 A 
ATOM     20  C   UNL     1       0.705  13.046  18.844  0.00  0.00    +0.000 A 
ATOM     21  C   UNL     1       1.094  11.821  19.390  0.00  0.00    +0.000 A 
ATOM     22  C   UNL     1       0.311  10.659  19.219  0.00  0.00    +0.000 A 
BRANCH  17  24
ATOM     23  C   UNL     1      -2.912   9.767  17.674  0.00  0.00    +0.000 C 
ATOM     24  O   UNL     1      -1.703   9.653  18.417  0.00  0.00    +0.000 OA
ENDBRANCH  17  24
ENDBRANCH   1  22
TORSDOF 3
ENDMDL
MODEL 9
REMARK VINA RESULT:      -6.1      3.749      8.566
REMARK  Name = 
REMARK  6 active torsions:
REMARK  status: ('A' for Active; 'I' for Inactive)
REMARK    1  A    between atoms: C_1  and  O_2
REMARK    2  A    between atoms: O_2  and  C_3
REMARK    3  A    between atoms: C_8  and  C_9
REMARK    4  A    between atoms: C_13  and  C_14
REMARK    5  A    between atoms: N_15  and  C_16
REMARK    6  A    between atoms: C_21  and  C_22
REMARK                            x       y       z     vdW  Elec       q    Type
REMARK                         _______ _______ _______ _____ _____    ______ ____
ROOT
ATOM      1  C   UNL     1      -1.287  13.584  21.824  0.00  0.00    +0.000 C 
ATOM      2  O   UNL     1      -0.472  14.403  22.254  0.00  0.00    +0.000 OA
ATOM      3  N   UNL     1      -0.972  12.637  20.830  0.00  0.00    +0.000 N 
ATOM      4  C   UNL     1      -1.886  12.005  20.008  0.00  0.00    +0.000 A 
ATOM      5  C   UNL     1      -1.313  10.995  19.343  0.00  0.00    +0.000 A 
ATOM      6  C   UNL     1      -2.065  10.086  18.437  0.00  0.00    +0.000 C 
ATOM      7  N   UNL     1       0.039  10.900  19.702  0.00  0.00    +0.000 N 
ATOM      8  C   UNL     1       0.338  12.075  20.514  0.00  0.00    +0.000 A 
ATOM      9  S   UNL     1       1.822  12.778  20.827  0.00  0.00    +0.000 S 
ENDROOT
BRANCH   7  10
ATOM     10  C   UNL     1       0.949   9.838  19.361  0.00  0.00    +0.000 A 
ATOM     11  C   UNL     1       1.511   9.839  18.069  0.00  0.00    +0.000 A 
ATOM     12  C   UNL     1       2.279   8.778  17.579  0.00  0.00    +0.000 A 
ATOM     13  C   UNL     1       2.564   7.702  18.397  0.00  0.00    +0.000 A 
ATOM     14  C   UNL     1       2.068   7.688  19.696  0.00  0.00    +0.000 A 
ATOM     15  C   UNL     1       1.234   8.721  20.192  0.00  0.00    +0.000 A 
ATOM     16  C   UNL     1       0.634   8.449  21.546  0.00  0.00    +0.000 C 
ENDBRANCH   7  10
BRANCH   1  22
ATOM     17  C   UNL     1      -3.733  14.446  21.874  0.00  0.00    +0.000 A 
ATOM     18  C   UNL     1      -5.004  14.370  22.472  0.00  0.00    +0.000 A 
ATOM     19  C   UNL     1      -5.244  13.506  23.542  0.00  0.00    +0.000 A 
ATOM     20  C   UNL     1      -4.219  12.706  24.030  0.00  0.00    +0.000 A 
ATOM     21  C   UNL     1      -2.943  12.800  23.472  0.00  0.00    +0.000 A 
ATOM     22  C   UNL     1      -2.673  13.678  22.401  0.00  0.00    +0.000 A 
BRANCH  17  24
ATOM     23  C   UNL     1      -3.346  16.634  20.988  0.00  0.00    +0.000 C 
ATOM     24  O   UNL     1      -3.488  15.233  20.779  0.00  0.00    +0.000 OA
ENDBRANCH  17  24
ENDBRANCH   1  22
TORSDOF 3
ENDMDL
