MODEL 1
REMARK VINA RESULT:      -7.0      0.000      0.000
REMARK  Name = 
REMARK  6 active torsions:
REMARK  status: ('A' for Active; 'I' for Inactive)
REMARK    1  A    between atoms: C_1  and  C_2
REMARK    2  A    between atoms: C_2  and  C_3
REMARK    3  A    between atoms: C_3  and  N_4
REMARK    4  A    between atoms: C_8  and  C_10
REMARK    5  A    between atoms: C_13  and  C_14
REMARK    6  A    between atoms: C_17  and  N_18
REMARK                            x       y       z     vdW  Elec       q    Type
REMARK                         _______ _______ _______ _____ _____    ______ ____
ROOT
ATOM      1  C   UNL     1       1.748   7.242  20.534  0.00  0.00    +0.000 A 
ATOM      2  C   UNL     1       1.324   5.960  20.832  0.00  0.00    +0.000 A 
ATOM      3  C   UNL     1       1.999   5.087  19.939  0.00  0.00    +0.000 A 
ATOM      4  C   UNL     1       2.816   5.877  19.155  0.00  0.00    +0.000 A 
ATOM      5  O   UNL     1       2.706   7.173  19.564  0.00  0.00    +0.000 OA
ENDROOT
BRANCH   1  10
ATOM      6  N   UNL     1       0.021  11.786  18.543  0.00  0.00    +0.000 NA
ATOM      7  C   UNL     1       0.798  11.980  19.787  0.00  0.00    +0.000 C 
ATOM      8  C   UNL     1       0.661  10.853  20.830  0.00  0.00    +0.000 C 
ATOM      9  N   UNL     1       0.937   9.541  20.247  0.00  0.00    +0.000 N 
ATOM     10  C   UNL     1       1.391   8.527  21.108  0.00  0.00    +0.000 C 
ATOM     11  O   UNL     1       1.487   8.728  22.320  0.00  0.00    +0.000 OA
ATOM     12  C   UNL     1       0.212   9.280  18.996  0.00  0.00    +0.000 C 
ATOM     13  C   UNL     1       0.333  10.447  17.995  0.00  0.00    +0.000 C 
BRANCH   6  14
ATOM     14  C   UNL     1      -1.427  11.978  18.709  0.00  0.00    +0.000 C 
BRANCH  14  16
ATOM     15  C   UNL     1      -3.398  10.560  17.877  0.00  0.00    +0.000 C 
ATOM     16  C   UNL     1      -2.279  11.523  17.512  0.00  0.00    +0.000 C 
ENDBRANCH  14  16
ENDBRANCH   6  14
ENDBRANCH   1  10
BRANCH   4  17
ATOM     17  C   UNL     1       3.693   5.657  18.007  0.00  0.00    +0.000 A 
ATOM     18  C   UNL     1       4.458   6.707  17.477  0.00  0.00    +0.000 A 
ATOM     19  C   UNL     1       5.355   6.481  16.423  0.00  0.00    +0.000 A 
ATOM     20  C   UNL     1       5.489   5.193  15.892  0.00  0.00    +0.000 A 
ATOM     21  C   UNL     1       4.727   4.136  16.397  0.00  0.00    +0.000 A 
ATOM     22  C   UNL     1       3.836   4.374  17.445  0.00  0.00    +0.000 A 
BRANCH  20  23
ATOM     23  N   UNL     1       6.445   4.945  14.806  0.00  0.00    +0.000 N 
ATOM     24  O   UNL     1       7.523   5.558  14.838  0.00  0.00    +0.000 OA
ATOM     25  O   UNL     1       6.121   4.140  13.924  0.00  0.00    +0.000 OA
ENDBRANCH  20  23
ENDBRANCH   4  17
TORSDOF 5
ENDMDL
MODEL 2
REMARK VINA RESULT:      -7.0      5.216      8.088
REMARK  Name = 
REMARK  6 active torsions:
REMARK  status: ('A' for Active; 'I' for Inactive)
REMARK    1  A    between atoms: C_1  and  C_2
REMARK    2  A    between atoms: C_2  and  C_3
REMARK    3  A    between atoms: C_3  and  N_4
REMARK    4  A    between atoms: C_8  and  C_10
REMARK    5  A    between atoms: C_13  and  C_14
REMARK    6  A    between atoms: C_17  and  N_18
REMARK                            x       y       z     vdW  Elec       q    Type
REMARK                         _______ _______ _______ _____ _____    ______ ____
ROOT
ATOM      1  C   UNL     1       6.991   7.024  17.510  0.00  0.00    +0.000 A 
ATOM      2  C   UNL     1       7.862   6.567  18.482  0.00  0.00    +0.000 A 
ATOM      3  C   UNL     1       8.644   7.681  18.888  0.00  0.00    +0.000 A 
ATOM      4  C   UNL     1       8.197   8.764  18.158  0.00  0.00    +0.000 A 
ATOM      5  O   UNL     1       7.154   8.372  17.373  0.00  0.00    +0.000 OA
ENDROOT
BRANCH   1  10
ATOM      6  N   UNL     1       3.219   3.559  18.675  0.00  0.00    +0.000 NA
ATOM      7  C   UNL     1       3.705   3.410  17.286  0.00  0.00    +0.000 C 
ATOM      8  C   UNL     1       4.134   4.720  16.596  0.00  0.00    +0.000 C 
ATOM      9  N   UNL     1       5.097   5.467  17.404  0.00  0.00    +0.000 N 
ATOM     10  C   UNL     1       5.974   6.337  16.734  0.00  0.00    +0.000 C 
ATOM     11  O   UNL     1       5.883   6.507  15.517  0.00  0.00    +0.000 OA
ATOM     12  C   UNL     1       4.690   5.642  18.804  0.00  0.00    +0.000 C 
ATOM     13  C   UNL     1       4.225   4.321  19.449  0.00  0.00    +0.000 C 
BRANCH   6  14
ATOM     14  C   UNL     1       1.884   4.167  18.777  0.00  0.00    +0.000 C 
BRANCH  14  16
ATOM     15  C   UNL     1       1.183   2.956  20.929  0.00  0.00    +0.000 C 
ATOM     16  C   UNL     1       1.339   4.288  20.210  0.00  0.00    +0.000 C 
ENDBRANCH  14  16
ENDBRANCH   6  14
ENDBRANCH   1  10
BRANCH   4  17
ATOM     17  C   UNL     1       8.603  10.161  18.007  0.00  0.00    +0.000 A 
ATOM     18  C   UNL     1       7.731  11.104  17.443  0.00  0.00    +0.000 A 
ATOM     19  C   UNL     1       8.089  12.456  17.364  0.00  0.00    +0.000 A 
ATOM     20  C   UNL     1       9.333  12.873  17.853  0.00  0.00    +0.000 A 
ATOM     21  C   UNL     1      10.222  11.947  18.407  0.00  0.00    +0.000 A 
ATOM     22  C   UNL     1       9.854  10.602  18.477  0.00  0.00    +0.000 A 
BRANCH  20  23
ATOM     23  N   UNL     1       9.704  14.292  17.797  0.00  0.00    +0.000 N 
ATOM     24  O   UNL     1       8.878  15.119  18.210  0.00  0.00    +0.000 OA
ATOM     25  O   UNL     1      10.819  14.580  17.342  0.00  0.00    +0.000 OA
ENDBRANCH  20  23
ENDBRANCH   4  17
TORSDOF 5
ENDMDL
MODEL 3
REMARK VINA RESULT:      -7.0      2.645      3.544
REMARK  Name = 
REMARK  6 active torsions:
REMARK  status: ('A' for Active; 'I' for Inactive)
REMARK    1  A    between atoms: C_1  and  C_2
REMARK    2  A    between atoms: C_2  and  C_3
REMARK    3  A    between atoms: C_3  and  N_4
REMARK    4  A    between atoms: C_8  and  C_10
REMARK    5  A    between atoms: C_13  and  C_14
REMARK    6  A    between atoms: C_17  and  N_18
REMARK                            x       y       z     vdW  Elec       q    Type
REMARK                         _______ _______ _______ _____ _____    ______ ____
ROOT
ATOM      1  C   UNL     1       1.353   9.478  19.550  0.00  0.00    +0.000 A 
ATOM      2  C   UNL     1       1.714   9.729  18.239  0.00  0.00    +0.000 A 
ATOM      3  C   UNL     1       2.323   8.544  17.749  0.00  0.00    +0.000 A 
ATOM      4  C   UNL     1       2.283   7.624  18.778  0.00  0.00    +0.000 A 
ATOM      5  O   UNL     1       1.637   8.176  19.843  0.00  0.00    +0.000 OA
ENDROOT
BRANCH   1  10
ATOM      6  N   UNL     1      -2.688  12.834  19.444  0.00  0.00    +0.000 NA
ATOM      7  C   UNL     1      -1.691  13.192  20.476  0.00  0.00    +0.000 C 
ATOM      8  C   UNL     1      -0.976  12.000  21.141  0.00  0.00    +0.000 C 
ATOM      9  N   UNL     1      -0.393  11.097  20.149  0.00  0.00    +0.000 N 
ATOM     10  C   UNL     1       0.709  10.319  20.544  0.00  0.00    +0.000 C 
ATOM     11  O   UNL     1       1.120  10.355  21.706  0.00  0.00    +0.000 OA
ATOM     12  C   UNL     1      -1.321  10.708  19.080  0.00  0.00    +0.000 C 
ATOM     13  C   UNL     1      -2.051  11.921  18.468  0.00  0.00    +0.000 C 
BRANCH   6  14
ATOM     14  C   UNL     1      -3.929  12.264  19.987  0.00  0.00    +0.000 C 
BRANCH  14  16
ATOM     15  C   UNL     1      -5.645  11.003  18.553  0.00  0.00    +0.000 C 
ATOM     16  C   UNL     1      -5.144  12.352  19.048  0.00  0.00    +0.000 C 
ENDBRANCH  14  16
ENDBRANCH   6  14
ENDBRANCH   1  10
BRANCH   4  17
ATOM     17  C   UNL     1       2.798   6.272  18.991  0.00  0.00    +0.000 A 
ATOM     18  C   UNL     1       2.364   5.503  20.081  0.00  0.00    +0.000 A 
ATOM     19  C   UNL     1       2.799   4.182  20.247  0.00  0.00    +0.000 A 
ATOM     20  C   UNL     1       3.678   3.620  19.314  0.00  0.00    +0.000 A 
ATOM     21  C   UNL     1       4.132   4.373  18.227  0.00  0.00    +0.000 A 
ATOM     22  C   UNL     1       3.693   5.689  18.075  0.00  0.00    +0.000 A 
BRANCH  20  23
ATOM     23  N   UNL     1       4.118   2.228  19.467  0.00  0.00    +0.000 N 
ATOM     24  O   UNL     1       3.623   1.382  18.708  0.00  0.00    +0.000 OA
ATOM     25  O   UNL     1       4.957   1.980  20.343  0.00  0.00    +0.000 OA
ENDBRANCH  20  23
ENDBRANCH   4  17
TORSDOF 5
ENDMDL
MODEL 4
REMARK VINA RESULT:      -7.0      5.293      8.177
REMARK  Name = 
REMARK  6 active torsions:
REMARK  status: ('A' for Active; 'I' for Inactive)
REMARK    1  A    between atoms: C_1  and  C_2
REMARK    2  A    between atoms: C_2  and  C_3
REMARK    3  A    between atoms: C_3  and  N_4
REMARK    4  A    between atoms: C_8  and  C_10
REMARK    5  A    between atoms: C_13  and  C_14
REMARK    6  A    between atoms: C_17  and  N_18
REMARK                            x       y       z     vdW  Elec       q    Type
REMARK                         _______ _______ _______ _____ _____    ______ ____
ROOT
ATOM      1  C   UNL     1       7.009   7.103  17.595  0.00  0.00    +0.000 A 
ATOM      2  C   UNL     1       7.876   6.601  18.549  0.00  0.00    +0.000 A 
ATOM      3  C   UNL     1       8.686   7.686  18.975  0.00  0.00    +0.000 A 
ATOM      4  C   UNL     1       8.260   8.798  18.277  0.00  0.00    +0.000 A 
ATOM      5  O   UNL     1       7.202   8.450  17.491  0.00  0.00    +0.000 OA
ENDROOT
BRANCH   1  10
ATOM      6  N   UNL     1       3.441   3.380  18.598  0.00  0.00    +0.000 NA
ATOM      7  C   UNL     1       3.845   3.397  17.176  0.00  0.00    +0.000 C 
ATOM      8  C   UNL     1       4.183   4.790  16.607  0.00  0.00    +0.000 C 
ATOM      9  N   UNL     1       5.168   5.487  17.433  0.00  0.00    +0.000 N 
ATOM     10  C   UNL     1       5.970   6.458  16.810  0.00  0.00    +0.000 C 
ATOM     11  O   UNL     1       5.798   6.752  15.626  0.00  0.00    +0.000 OA
ATOM     12  C   UNL     1       4.843   5.497  18.865  0.00  0.00    +0.000 C 
ATOM     13  C   UNL     1       4.466   4.097  19.390  0.00  0.00    +0.000 C 
BRANCH   6  14
ATOM     14  C   UNL     1       2.095   3.917  18.843  0.00  0.00    +0.000 C 
BRANCH  14  16
ATOM     15  C   UNL     1       1.340   3.044  21.136  0.00  0.00    +0.000 C 
ATOM     16  C   UNL     1       1.159   2.981  19.626  0.00  0.00    +0.000 C 
ENDBRANCH  14  16
ENDBRANCH   6  14
ENDBRANCH   1  10
BRANCH   4  17
ATOM     17  C   UNL     1       8.697  10.188  18.158  0.00  0.00    +0.000 A 
ATOM     18  C   UNL     1       9.980  10.574  18.574  0.00  0.00    +0.000 A 
ATOM     19  C   UNL     1      10.428  11.889  18.393  0.00  0.00    +0.000 A 
ATOM     20  C   UNL     1       9.586  12.831  17.790  0.00  0.00    +0.000 A 
ATOM     21  C   UNL     1       8.299  12.470  17.381  0.00  0.00    +0.000 A 
ATOM     22  C   UNL     1       7.864  11.157  17.568  0.00  0.00    +0.000 A 
BRANCH  20  23
ATOM     23  N   UNL     1      10.058  14.204  17.575  0.00  0.00    +0.000 N 
ATOM     24  O   UNL     1       9.342  15.129  17.987  0.00  0.00    +0.000 OA
ATOM     25  O   UNL     1      11.142  14.358  16.998  0.00  0.00    +0.000 OA
ENDBRANCH  20  23
ENDBRANCH   4  17
TORSDOF 5
ENDMDL
MODEL 5
REMARK VINA RESULT:      -7.0      1.343      1.734
REMARK  Name = 
REMARK  6 active torsions:
REMARK  status: ('A' for Active; 'I' for Inactive)
REMARK    1  A    between atoms: C_1  and  C_2
REMARK    2  A    between atoms: C_2  and  C_3
REMARK    3  A    between atoms: C_3  and  N_4
REMARK    4  A    between atoms: C_8  and  C_10
REMARK    5  A    between atoms: C_13  and  C_14
REMARK    6  A    between atoms: C_17  and  N_18
REMARK                            x       y       z     vdW  Elec       q    Type
REMARK                         _______ _______ _______ _____ _____    ______ ____
ROOT
ATOM      1  C   UNL     1       1.222   8.754  20.405  0.00  0.00    +0.000 A 
ATOM      2  C   UNL     1       1.001   7.664  21.227  0.00  0.00    +0.000 A 
ATOM      3  C   UNL     1       1.713   6.574  20.662  0.00  0.00    +0.000 A 
ATOM      4  C   UNL     1       2.350   7.057  19.536  0.00  0.00    +0.000 A 
ATOM      5  O   UNL     1       2.099   8.392  19.423  0.00  0.00    +0.000 OA
ENDROOT
BRANCH   1  10
ATOM      6  N   UNL     1      -2.097  11.627  17.520  0.00  0.00    +0.000 NA
ATOM      7  C   UNL     1      -1.060  12.457  18.171  0.00  0.00    +0.000 C 
ATOM      8  C   UNL     1      -0.595  11.961  19.555  0.00  0.00    +0.000 C 
ATOM      9  N   UNL     1      -0.186  10.558  19.516  0.00  0.00    +0.000 N 
ATOM     10  C   UNL     1       0.742  10.122  20.478  0.00  0.00    +0.000 C 
ATOM     11  O   UNL     1       1.140  10.887  21.359  0.00  0.00    +0.000 OA
ATOM     12  C   UNL     1      -1.160   9.670  18.867  0.00  0.00    +0.000 C 
ATOM     13  C   UNL     1      -1.637  10.220  17.508  0.00  0.00    +0.000 C 
BRANCH   6  14
ATOM     14  C   UNL     1      -3.431  11.755  18.126  0.00  0.00    +0.000 C 
BRANCH  14  16
ATOM     15  C   UNL     1      -5.913  11.106  18.041  0.00  0.00    +0.000 C 
ATOM     16  C   UNL     1      -4.513  10.863  17.494  0.00  0.00    +0.000 C 
ENDBRANCH  14  16
ENDBRANCH   6  14
ENDBRANCH   1  10
BRANCH   4  17
ATOM     17  C   UNL     1       3.153   6.479  18.460  0.00  0.00    +0.000 A 
ATOM     18  C   UNL     1       3.959   7.293  17.650  0.00  0.00    +0.000 A 
ATOM     19  C   UNL     1       4.785   6.734  16.666  0.00  0.00    +0.000 A 
ATOM     20  C   UNL     1       4.808   5.346  16.489  0.00  0.00    +0.000 A 
ATOM     21  C   UNL     1       4.005   4.518  17.277  0.00  0.00    +0.000 A 
ATOM     22  C   UNL     1       3.184   5.088  18.252  0.00  0.00    +0.000 A 
BRANCH  20  23
ATOM     23  N   UNL     1       5.691   4.751  15.478  0.00  0.00    +0.000 N 
ATOM     24  O   UNL     1       6.159   5.503  14.610  0.00  0.00    +0.000 OA
ATOM     25  O   UNL     1       5.918   3.536  15.551  0.00  0.00    +0.000 OA
ENDBRANCH  20  23
ENDBRANCH   4  17
TORSDOF 5
ENDMDL
MODEL 6
REMARK VINA RESULT:      -7.0      2.981      8.933
REMARK  Name = 
REMARK  6 active torsions:
REMARK  status: ('A' for Active; 'I' for Inactive)
REMARK    1  A    between atoms: C_1  and  C_2
REMARK    2  A    between atoms: C_2  and  C_3
REMARK    3  A    between atoms: C_3  and  N_4
REMARK    4  A    between atoms: C_8  and  C_10
REMARK    5  A    between atoms: C_13  and  C_14
REMARK    6  A    between atoms: C_17  and  N_18
REMARK                            x       y       z     vdW  Elec       q    Type
REMARK                         _______ _______ _______ _____ _____    ______ ____
ROOT
ATOM      1  C   UNL     1       2.213   7.600  18.949  0.00  0.00    +0.000 A 
ATOM      2  C   UNL     1       2.229   8.459  17.865  0.00  0.00    +0.000 A 
ATOM      3  C   UNL     1       1.476   9.603  18.237  0.00  0.00    +0.000 A 
ATOM      4  C   UNL     1       1.055   9.394  19.535  0.00  0.00    +0.000 A 
ATOM      5  O   UNL     1       1.559   8.208  19.981  0.00  0.00    +0.000 OA
ENDROOT
BRANCH   1  10
ATOM      6  N   UNL     1       5.715   4.735  16.281  0.00  0.00    +0.000 NA
ATOM      7  C   UNL     1       4.756   3.892  17.026  0.00  0.00    +0.000 C 
ATOM      8  C   UNL     1       4.269   4.479  18.366  0.00  0.00    +0.000 C 
ATOM      9  N   UNL     1       3.749   5.836  18.205  0.00  0.00    +0.000 N 
ATOM     10  C   UNL     1       2.801   6.286  19.139  0.00  0.00    +0.000 C 
ATOM     11  O   UNL     1       2.475   5.579  20.095  0.00  0.00    +0.000 OA
ATOM     12  C   UNL     1       4.642   6.731  17.458  0.00  0.00    +0.000 C 
ATOM     13  C   UNL     1       5.145   6.094  16.146  0.00  0.00    +0.000 C 
BRANCH   6  14
ATOM     14  C   UNL     1       7.062   4.770  16.870  0.00  0.00    +0.000 C 
BRANCH  14  16
ATOM     15  C   UNL     1       7.875   5.996  18.973  0.00  0.00    +0.000 C 
ATOM     16  C   UNL     1       7.448   6.110  17.517  0.00  0.00    +0.000 C 
ENDBRANCH  14  16
ENDBRANCH   6  14
ENDBRANCH   1  10
BRANCH   4  17
ATOM     17  C   UNL     1       0.191  10.100  20.480  0.00  0.00    +0.000 A 
ATOM     18  C   UNL     1       0.159   9.734  21.834  0.00  0.00    +0.000 A 
ATOM     19  C   UNL     1      -0.613  10.456  22.755  0.00  0.00    +0.000 A 
ATOM     20  C   UNL     1      -1.361  11.556  22.319  0.00  0.00    +0.000 A 
ATOM     21  C   UNL     1      -1.353  11.929  20.973  0.00  0.00    +0.000 A 
ATOM     22  C   UNL     1      -0.582  11.201  20.065  0.00  0.00    +0.000 A 
BRANCH  20  23
ATOM     23  N   UNL     1      -2.151  12.332  23.284  0.00  0.00    +0.000 N 
ATOM     24  O   UNL     1      -3.213  11.835  23.687  0.00  0.00    +0.000 OA
ATOM     25  O   UNL     1      -1.711  13.433  23.638  0.00  0.00    +0.000 OA
ENDBRANCH  20  23
ENDBRANCH   4  17
TORSDOF 5
ENDMDL
MODEL 7
REMARK VINA RESULT:      -7.0      2.643      3.451
REMARK  Name = 
REMARK  6 active torsions:
REMARK  status: ('A' for Active; 'I' for Inactive)
REMARK    1  A    between atoms: C_1  and  C_2
REMARK    2  A    between atoms: C_2  and  C_3
REMARK    3  A    between atoms: C_3  and  N_4
REMARK    4  A    between atoms: C_8  and  C_10
REMARK    5  A    between atoms: C_13  and  C_14
REMARK    6  A    between atoms: C_17  and  N_18
REMARK                            x       y       z     vdW  Elec       q    Type
REMARK                         _______ _______ _______ _____ _____    ______ ____
ROOT
ATOM      1  C   UNL     1       1.376   9.444  19.527  0.00  0.00    +0.000 A 
ATOM      2  C   UNL     1       1.843   9.752  18.262  0.00  0.00    +0.000 A 
ATOM      3  C   UNL     1       2.414   8.564  17.736  0.00  0.00    +0.000 A 
ATOM      4  C   UNL     1       2.248   7.586  18.696  0.00  0.00    +0.000 A 
ATOM      5  O   UNL     1       1.562   8.111  19.751  0.00  0.00    +0.000 OA
ENDROOT
BRANCH   1  10
ATOM      6  N   UNL     1      -2.646  12.821  19.426  0.00  0.00    +0.000 NA
ATOM      7  C   UNL     1      -1.670  13.146  20.489  0.00  0.00    +0.000 C 
ATOM      8  C   UNL     1      -0.975  11.932  21.137  0.00  0.00    +0.000 C 
ATOM      9  N   UNL     1      -0.375  11.054  20.133  0.00  0.00    +0.000 N 
ATOM     10  C   UNL     1       0.715  10.260  20.530  0.00  0.00    +0.000 C 
ATOM     11  O   UNL     1       1.101  10.261  21.700  0.00  0.00    +0.000 OA
ATOM     12  C   UNL     1      -1.281  10.700  19.033  0.00  0.00    +0.000 C 
ATOM     13  C   UNL     1      -1.992  11.933  18.440  0.00  0.00    +0.000 C 
BRANCH   6  14
ATOM     14  C   UNL     1      -3.902  12.243  19.926  0.00  0.00    +0.000 C 
BRANCH  14  16
ATOM     15  C   UNL     1      -5.639  10.887  18.610  0.00  0.00    +0.000 C 
ATOM     16  C   UNL     1      -5.065  12.262  18.921  0.00  0.00    +0.000 C 
ENDBRANCH  14  16
ENDBRANCH   6  14
ENDBRANCH   1  10
BRANCH   4  17
ATOM     17  C   UNL     1       2.665   6.193  18.852  0.00  0.00    +0.000 A 
ATOM     18  C   UNL     1       3.380   5.541  17.836  0.00  0.00    +0.000 A 
ATOM     19  C   UNL     1       3.845   4.231  18.013  0.00  0.00    +0.000 A 
ATOM     20  C   UNL     1       3.593   3.563  19.217  0.00  0.00    +0.000 A 
ATOM     21  C   UNL     1       2.872   4.191  20.237  0.00  0.00    +0.000 A 
ATOM     22  C   UNL     1       2.413   5.495  20.047  0.00  0.00    +0.000 A 
BRANCH  20  23
ATOM     23  N   UNL     1       4.099   2.200  19.418  0.00  0.00    +0.000 N 
ATOM     24  O   UNL     1       4.879   2.010  20.363  0.00  0.00    +0.000 OA
ATOM     25  O   UNL     1       3.717   1.320  18.635  0.00  0.00    +0.000 OA
ENDBRANCH  20  23
ENDBRANCH   4  17
TORSDOF 5
ENDMDL
MODEL 8
REMARK VINA RESULT:      -6.9      0.170      1.151
REMARK  Name = 
REMARK  6 active torsions:
REMARK  status: ('A' for Active; 'I' for Inactive)
REMARK    1  A    between atoms: C_1  and  C_2
REMARK    2  A    between atoms: C_2  and  C_3
REMARK    3  A    between atoms: C_3  and  N_4
REMARK    4  A    between atoms: C_8  and  C_10
REMARK    5  A    between atoms: C_13  and  C_14
REMARK    6  A    between atoms: C_17  and  N_18
REMARK                            x       y       z     vdW  Elec       q    Type
REMARK                         _______ _______ _______ _____ _____    ______ ____
ROOT
ATOM      1  C   UNL     1       1.764   7.209  20.514  0.00  0.00    +0.000 A 
ATOM      2  C   UNL     1       1.258   5.942  20.741  0.00  0.00    +0.000 A 
ATOM      3  C   UNL     1       1.946   5.064  19.863  0.00  0.00    +0.000 A 
ATOM      4  C   UNL     1       2.851   5.836  19.160  0.00  0.00    +0.000 A 
ATOM      5  O   UNL     1       2.778   7.122  19.606  0.00  0.00    +0.000 OA
ENDROOT
BRANCH   1  10
ATOM      6  N   UNL     1       0.151  11.825  18.594  0.00  0.00    +0.000 NA
ATOM      7  C   UNL     1       0.926  11.980  19.844  0.00  0.00    +0.000 C 
ATOM      8  C   UNL     1       0.759  10.839  20.866  0.00  0.00    +0.000 C 
ATOM      9  N   UNL     1       1.007   9.531  20.263  0.00  0.00    +0.000 N 
ATOM     10  C   UNL     1       1.434   8.493  21.108  0.00  0.00    +0.000 C 
ATOM     11  O   UNL     1       1.529   8.671  22.324  0.00  0.00    +0.000 OA
ATOM     12  C   UNL     1       0.281   9.308  19.005  0.00  0.00    +0.000 C 
ATOM     13  C   UNL     1       0.434  10.488  18.024  0.00  0.00    +0.000 C 
BRANCH   6  14
ATOM     14  C   UNL     1      -1.294  12.048  18.756  0.00  0.00    +0.000 C 
BRANCH  14  16
ATOM     15  C   UNL     1      -3.370  10.805  17.901  0.00  0.00    +0.000 C 
ATOM     16  C   UNL     1      -2.149  11.640  17.545  0.00  0.00    +0.000 C 
ENDBRANCH  14  16
ENDBRANCH   6  14
ENDBRANCH   1  10
BRANCH   4  17
ATOM     17  C   UNL     1       3.789   5.606  18.063  0.00  0.00    +0.000 A 
ATOM     18  C   UNL     1       4.130   4.302  17.672  0.00  0.00    +0.000 A 
ATOM     19  C   UNL     1       4.972   4.079  16.574  0.00  0.00    +0.000 A 
ATOM     20  C   UNL     1       5.479   5.169  15.858  0.00  0.00    +0.000 A 
ATOM     21  C   UNL     1       5.163   6.476  16.239  0.00  0.00    +0.000 A 
ATOM     22  C   UNL     1       4.325   6.685  17.336  0.00  0.00    +0.000 A 
BRANCH  20  23
ATOM     23  N   UNL     1       6.341   4.941  14.691  0.00  0.00    +0.000 N 
ATOM     24  O   UNL     1       5.910   4.202  13.795  0.00  0.00    +0.000 OA
ATOM     25  O   UNL     1       7.445   5.502  14.670  0.00  0.00    +0.000 OA
ENDBRANCH  20  23
ENDBRANCH   4  17
TORSDOF 5
ENDMDL
MODEL 9
REMARK VINA RESULT:      -6.9      2.676      3.675
REMARK  Name = 
REMARK  6 active torsions:
REMARK  status: ('A' for Active; 'I' for Inactive)
REMARK    1  A    between atoms: C_1  and  C_2
REMARK    2  A    between atoms: C_2  and  C_3
REMARK    3  A    between atoms: C_3  and  N_4
REMARK    4  A    between atoms: C_8  and  C_10
REMARK    5  A    between atoms: C_13  and  C_14
REMARK    6  A    between atoms: C_17  and  N_18
REMARK                            x       y       z     vdW  Elec       q    Type
REMARK                         _______ _______ _______ _____ _____    ______ ____
ROOT
ATOM      1  C   UNL     1       1.228   9.393  18.919  0.00  0.00    +0.000 A 
ATOM      2  C   UNL     1       2.026   9.757  17.849  0.00  0.00    +0.000 A 
ATOM      3  C   UNL     1       2.833   8.631  17.539  0.00  0.00    +0.000 A 
ATOM      4  C   UNL     1       2.473   7.631  18.420  0.00  0.00    +0.000 A 
ATOM      5  O   UNL     1       1.457   8.079  19.210  0.00  0.00    +0.000 OA
ENDROOT
BRANCH   1  10
ATOM      6  N   UNL     1      -3.388  11.567  17.670  0.00  0.00    +0.000 NA
ATOM      7  C   UNL     1      -2.723  12.271  18.788  0.00  0.00    +0.000 C 
ATOM      8  C   UNL     1      -1.891  11.374  19.727  0.00  0.00    +0.000 C 
ATOM      9  N   UNL     1      -0.931  10.559  18.985  0.00  0.00    +0.000 N 
ATOM     10  C   UNL     1       0.225  10.134  19.662  0.00  0.00    +0.000 C 
ATOM     11  O   UNL     1       0.382  10.389  20.858  0.00  0.00    +0.000 OA
ATOM     12  C   UNL     1      -1.516   9.839  17.846  0.00  0.00    +0.000 C 
ATOM     13  C   UNL     1      -2.377  10.756  16.954  0.00  0.00    +0.000 C 
BRANCH   6  14
ATOM     14  C   UNL     1      -4.542  10.753  18.080  0.00  0.00    +0.000 C 
BRANCH  14  16
ATOM     15  C   UNL     1      -5.979  12.650  17.118  0.00  0.00    +0.000 C 
ATOM     16  C   UNL     1      -5.881  11.507  18.119  0.00  0.00    +0.000 C 
ENDBRANCH  14  16
ENDBRANCH   6  14
ENDBRANCH   1  10
BRANCH   4  17
ATOM     17  C   UNL     1       2.947   6.280  18.717  0.00  0.00    +0.000 A 
ATOM     18  C   UNL     1       2.587   5.641  19.913  0.00  0.00    +0.000 A 
ATOM     19  C   UNL     1       2.979   4.320  20.168  0.00  0.00    +0.000 A 
ATOM     20  C   UNL     1       3.740   3.629  19.218  0.00  0.00    +0.000 A 
ATOM     21  C   UNL     1       4.120   4.251  18.026  0.00  0.00    +0.000 A 
ATOM     22  C   UNL     1       3.725   5.568  17.786  0.00  0.00    +0.000 A 
BRANCH  20  23
ATOM     23  N   UNL     1       4.132   2.236  19.467  0.00  0.00    +0.000 N 
ATOM     24  O   UNL     1       4.871   2.012  20.438  0.00  0.00    +0.000 OA
ATOM     25  O   UNL     1       3.703   1.368  18.696  0.00  0.00    +0.000 OA
ENDBRANCH  20  23
ENDBRANCH   4  17
TORSDOF 5
ENDMDL
