MODEL 1
REMARK VINA RESULT:      -7.8      0.000      0.000
REMARK  Name = 
REMARK  2 active torsions:
REMARK  status: ('A' for Active; 'I' for Inactive)
REMARK    1  A    between atoms: C_3  and  C_4
REMARK    2  A    between atoms: C_6  and  C_7
REMARK                            x       y       z     vdW  Elec       q    Type
REMARK                         _______ _______ _______ _____ _____    ______ ____
ROOT
ATOM      1  C   UNL     1       2.205   6.411  20.138  0.00  0.00    +0.000 A 
ATOM      2  C   UNL     1       3.081   6.422  19.054  0.00  0.00    +0.000 A 
ATOM      3  C   UNL     1       3.243   5.296  18.229  0.00  0.00    +0.000 A 
ATOM      4  C   UNL     1       2.475   4.158  18.545  0.00  0.00    +0.000 A 
ATOM      5  N   UNL     1       2.403   2.922  17.935  0.00  0.00    +0.000 N 
ATOM      6  C   UNL     1       1.525   2.109  18.602  0.00  0.00    +0.000 A 
ATOM      7  C   UNL     1       1.010   2.825  19.658  0.00  0.00    +0.000 A 
ATOM      8  C   UNL     1       1.597   4.121  19.631  0.00  0.00    +0.000 A 
ATOM      9  C   UNL     1       1.461   5.266  20.438  0.00  0.00    +0.000 A 
ATOM     10  H   UNL     1       2.933   2.669  17.109  0.00  0.00    +0.000 HD
ENDROOT
BRANCH   3  11
ATOM     11  C   UNL     1       4.160   5.253  17.102  0.00  0.00    +0.000 A 
ATOM     12  N   UNL     1       4.534   4.245  16.339  0.00  0.00    +0.000 NA
ATOM     13  C   UNL     1       5.431   4.844  15.486  0.00  0.00    +0.000 A 
ATOM     14  N   UNL     1       5.614   6.155  15.691  0.00  0.00    +0.000 NA
ATOM     15  O   UNL     1       4.769   6.431  16.765  0.00  0.00    +0.000 OA
BRANCH  13  16
ATOM     16  C   UNL     1       6.166   4.109  14.433  0.00  0.00    +0.000 C 
ATOM     17  C   UNL     1       5.310   3.696  13.254  0.00  0.00    +0.000 C 
ATOM     18  C   UNL     1       6.341   3.484  12.167  0.00  0.00    +0.000 C 
ATOM     19  O   UNL     1       7.437   4.366  12.445  0.00  0.00    +0.000 OA
ATOM     20  C   UNL     1       7.248   4.927  13.754  0.00  0.00    +0.000 C 
ENDBRANCH  13  16
ENDBRANCH   3  11
TORSDOF 2
ENDMDL
MODEL 2
REMARK VINA RESULT:      -7.3      1.678      1.789
REMARK  Name = 
REMARK  2 active torsions:
REMARK  status: ('A' for Active; 'I' for Inactive)
REMARK    1  A    between atoms: C_3  and  C_4
REMARK    2  A    between atoms: C_6  and  C_7
REMARK                            x       y       z     vdW  Elec       q    Type
REMARK                         _______ _______ _______ _____ _____    ______ ____
ROOT
ATOM      1  C   UNL     1       2.003   6.798  20.011  0.00  0.00    +0.000 A 
ATOM      2  C   UNL     1       3.085   6.528  19.175  0.00  0.00    +0.000 A 
ATOM      3  C   UNL     1       3.711   5.270  19.166  0.00  0.00    +0.000 A 
ATOM      4  C   UNL     1       3.189   4.292  20.035  0.00  0.00    +0.000 A 
ATOM      5  N   UNL     1       3.569   2.982  20.251  0.00  0.00    +0.000 N 
ATOM      6  C   UNL     1       2.781   2.407  21.211  0.00  0.00    +0.000 A 
ATOM      7  C   UNL     1       1.868   3.349  21.624  0.00  0.00    +0.000 A 
ATOM      8  C   UNL     1       2.111   4.541  20.888  0.00  0.00    +0.000 A 
ATOM      9  C   UNL     1       1.510   5.814  20.873  0.00  0.00    +0.000 A 
ATOM     10  H   UNL     1       4.329   2.528  19.756  0.00  0.00    +0.000 HD
ENDROOT
BRANCH   3  11
ATOM     11  C   UNL     1       4.854   4.950  18.329  0.00  0.00    +0.000 A 
ATOM     12  N   UNL     1       4.954   4.841  17.019  0.00  0.00    +0.000 NA
ATOM     13  C   UNL     1       6.274   4.489  16.857  0.00  0.00    +0.000 A 
ATOM     14  N   UNL     1       6.973   4.385  17.994  0.00  0.00    +0.000 NA
ATOM     15  O   UNL     1       6.032   4.692  18.976  0.00  0.00    +0.000 OA
BRANCH  13  16
ATOM     16  C   UNL     1       6.886   4.220  15.538  0.00  0.00    +0.000 C 
ATOM     17  C   UNL     1       5.899   3.790  14.472  0.00  0.00    +0.000 C 
ATOM     18  C   UNL     1       6.647   4.105  13.195  0.00  0.00    +0.000 C 
ATOM     19  O   UNL     1       7.515   5.212  13.475  0.00  0.00    +0.000 OA
ATOM     20  C   UNL     1       7.521   5.438  14.894  0.00  0.00    +0.000 C 
ENDBRANCH  13  16
ENDBRANCH   3  11
TORSDOF 2
ENDMDL
MODEL 3
REMARK VINA RESULT:      -7.3      3.382      6.928
REMARK  Name = 
REMARK  2 active torsions:
REMARK  status: ('A' for Active; 'I' for Inactive)
REMARK    1  A    between atoms: C_3  and  C_4
REMARK    2  A    between atoms: C_6  and  C_7
REMARK                            x       y       z     vdW  Elec       q    Type
REMARK                         _______ _______ _______ _____ _____    ______ ____
ROOT
ATOM      1  C   UNL     1       5.466   5.730  16.140  0.00  0.00    +0.000 A 
ATOM      2  C   UNL     1       4.719   6.757  16.715  0.00  0.00    +0.000 A 
ATOM      3  C   UNL     1       3.591   6.489  17.509  0.00  0.00    +0.000 A 
ATOM      4  C   UNL     1       3.254   5.135  17.701  0.00  0.00    +0.000 A 
ATOM      5  N   UNL     1       2.228   4.554  18.420  0.00  0.00    +0.000 N 
ATOM      6  C   UNL     1       2.278   3.191  18.311  0.00  0.00    +0.000 A 
ATOM      7  C   UNL     1       3.355   2.873  17.516  0.00  0.00    +0.000 A 
ATOM      8  C   UNL     1       3.982   4.089  17.128  0.00  0.00    +0.000 A 
ATOM      9  C   UNL     1       5.106   4.394  16.336  0.00  0.00    +0.000 A 
ATOM     10  H   UNL     1       1.543   5.082  18.950  0.00  0.00    +0.000 HD
ENDROOT
BRANCH   3  11
ATOM     11  C   UNL     1       2.770   7.525  18.110  0.00  0.00    +0.000 A 
ATOM     12  N   UNL     1       2.157   7.565  19.277  0.00  0.00    +0.000 NA
ATOM     13  C   UNL     1       1.530   8.788  19.234  0.00  0.00    +0.000 A 
ATOM     14  N   UNL     1       1.733   9.486  18.110  0.00  0.00    +0.000 NA
ATOM     15  O   UNL     1       2.559   8.650  17.360  0.00  0.00    +0.000 OA
BRANCH  13  16
ATOM     16  C   UNL     1       0.672   9.299  20.326  0.00  0.00    +0.000 C 
ATOM     17  C   UNL     1       0.884   8.607  21.656  0.00  0.00    +0.000 C 
ATOM     18  C   UNL     1       0.337   9.622  22.637  0.00  0.00    +0.000 C 
ATOM     19  O   UNL     1       0.528  10.919  22.055  0.00  0.00    +0.000 OA
ATOM     20  C   UNL     1       0.937  10.748  20.688  0.00  0.00    +0.000 C 
ENDBRANCH  13  16
ENDBRANCH   3  11
TORSDOF 2
ENDMDL
MODEL 4
REMARK VINA RESULT:      -7.3      1.503      1.576
REMARK  Name = 
REMARK  2 active torsions:
REMARK  status: ('A' for Active; 'I' for Inactive)
REMARK    1  A    between atoms: C_3  and  C_4
REMARK    2  A    between atoms: C_6  and  C_7
REMARK                            x       y       z     vdW  Elec       q    Type
REMARK                         _______ _______ _______ _____ _____    ______ ____
ROOT
ATOM      1  C   UNL     1       1.444   4.956  19.791  0.00  0.00    +0.000 A 
ATOM      2  C   UNL     1       2.205   5.169  18.642  0.00  0.00    +0.000 A 
ATOM      3  C   UNL     1       3.362   4.418  18.378  0.00  0.00    +0.000 A 
ATOM      4  C   UNL     1       3.715   3.435  19.324  0.00  0.00    +0.000 A 
ATOM      5  N   UNL     1       4.769   2.545  19.348  0.00  0.00    +0.000 N 
ATOM      6  C   UNL     1       4.724   1.780  20.483  0.00  0.00    +0.000 A 
ATOM      7  C   UNL     1       3.622   2.169  21.208  0.00  0.00    +0.000 A 
ATOM      8  C   UNL     1       2.974   3.209  20.486  0.00  0.00    +0.000 A 
ATOM      9  C   UNL     1       1.820   3.983  20.721  0.00  0.00    +0.000 A 
ATOM     10  H   UNL     1       5.469   2.480  18.617  0.00  0.00    +0.000 HD
ENDROOT
BRANCH   3  11
ATOM     11  C   UNL     1       4.198   4.619  17.206  0.00  0.00    +0.000 A 
ATOM     12  N   UNL     1       4.811   3.747  16.431  0.00  0.00    +0.000 NA
ATOM     13  C   UNL     1       5.455   4.562  15.530  0.00  0.00    +0.000 A 
ATOM     14  N   UNL     1       5.261   5.874  15.719  0.00  0.00    +0.000 NA
ATOM     15  O   UNL     1       4.424   5.915  16.832  0.00  0.00    +0.000 OA
BRANCH  13  16
ATOM     16  C   UNL     1       6.321   4.050  14.445  0.00  0.00    +0.000 C 
ATOM     17  C   UNL     1       5.568   3.620  13.203  0.00  0.00    +0.000 C 
ATOM     18  C   UNL     1       6.645   3.671  12.141  0.00  0.00    +0.000 C 
ATOM     19  O   UNL     1       7.582   4.682  12.536  0.00  0.00    +0.000 OA
ATOM     20  C   UNL     1       7.277   5.084  13.881  0.00  0.00    +0.000 C 
ENDBRANCH  13  16
ENDBRANCH   3  11
TORSDOF 2
ENDMDL
MODEL 5
REMARK VINA RESULT:      -7.2      2.453      3.521
REMARK  Name = 
REMARK  2 active torsions:
REMARK  status: ('A' for Active; 'I' for Inactive)
REMARK    1  A    between atoms: C_3  and  C_4
REMARK    2  A    between atoms: C_6  and  C_7
REMARK                            x       y       z     vdW  Elec       q    Type
REMARK                         _______ _______ _______ _____ _____    ______ ____
ROOT
ATOM      1  C   UNL     1       7.416   5.973  18.887  0.00  0.00    +0.000 A 
ATOM      2  C   UNL     1       7.550   5.837  17.506  0.00  0.00    +0.000 A 
ATOM      3  C   UNL     1       6.684   5.020  16.762  0.00  0.00    +0.000 A 
ATOM      4  C   UNL     1       5.670   4.349  17.473  0.00  0.00    +0.000 A 
ATOM      5  N   UNL     1       4.675   3.496  17.038  0.00  0.00    +0.000 N 
ATOM      6  C   UNL     1       3.919   3.063  18.094  0.00  0.00    +0.000 A 
ATOM      7  C   UNL     1       4.420   3.646  19.235  0.00  0.00    +0.000 A 
ATOM      8  C   UNL     1       5.521   4.463  18.858  0.00  0.00    +0.000 A 
ATOM      9  C   UNL     1       6.409   5.289  19.574  0.00  0.00    +0.000 A 
ATOM     10  H   UNL     1       4.540   3.239  16.067  0.00  0.00    +0.000 HD
ENDROOT
BRANCH   3  11
ATOM     11  C   UNL     1       6.797   4.830  15.325  0.00  0.00    +0.000 A 
ATOM     12  N   UNL     1       6.201   3.970  14.524  0.00  0.00    +0.000 NA
ATOM     13  C   UNL     1       6.755   4.279  13.304  0.00  0.00    +0.000 A 
ATOM     14  N   UNL     1       7.645   5.278  13.326  0.00  0.00    +0.000 NA
ATOM     15  O   UNL     1       7.676   5.649  14.669  0.00  0.00    +0.000 OA
BRANCH  13  16
ATOM     16  C   UNL     1       6.421   3.558  12.055  0.00  0.00    +0.000 C 
ATOM     17  C   UNL     1       7.108   2.215  11.913  0.00  0.00    +0.000 C 
ATOM     18  C   UNL     1       6.224   1.507  10.908  0.00  0.00    +0.000 C 
ATOM     19  O   UNL     1       4.897   2.026  11.072  0.00  0.00    +0.000 OA
ATOM     20  C   UNL     1       4.959   3.168  11.942  0.00  0.00    +0.000 C 
ENDBRANCH  13  16
ENDBRANCH   3  11
TORSDOF 2
ENDMDL
MODEL 6
REMARK VINA RESULT:      -7.1      2.677      3.967
REMARK  Name = 
REMARK  2 active torsions:
REMARK  status: ('A' for Active; 'I' for Inactive)
REMARK    1  A    between atoms: C_3  and  C_4
REMARK    2  A    between atoms: C_6  and  C_7
REMARK                            x       y       z     vdW  Elec       q    Type
REMARK                         _______ _______ _______ _____ _____    ______ ____
ROOT
ATOM      1  C   UNL     1       1.591   1.918  18.437  0.00  0.00    +0.000 A 
ATOM      2  C   UNL     1       2.785   2.426  17.927  0.00  0.00    +0.000 A 
ATOM      3  C   UNL     1       3.273   3.685  18.315  0.00  0.00    +0.000 A 
ATOM      4  C   UNL     1       2.504   4.408  19.248  0.00  0.00    +0.000 A 
ATOM      5  N   UNL     1       2.714   5.645  19.823  0.00  0.00    +0.000 N 
ATOM      6  C   UNL     1       1.686   5.959  20.671  0.00  0.00    +0.000 A 
ATOM      7  C   UNL     1       0.795   4.911  20.657  0.00  0.00    +0.000 A 
ATOM      8  C   UNL     1       1.301   3.924  19.767  0.00  0.00    +0.000 A 
ATOM      9  C   UNL     1       0.840   2.659  19.355  0.00  0.00    +0.000 A 
ATOM     10  H   UNL     1       3.523   6.225  19.632  0.00  0.00    +0.000 HD
ENDROOT
BRANCH   3  11
ATOM     11  C   UNL     1       4.499   4.264  17.794  0.00  0.00    +0.000 A 
ATOM     12  N   UNL     1       5.261   5.231  18.267  0.00  0.00    +0.000 NA
ATOM     13  C   UNL     1       6.239   5.327  17.306  0.00  0.00    +0.000 A 
ATOM     14  N   UNL     1       6.111   4.472  16.284  0.00  0.00    +0.000 NA
ATOM     15  O   UNL     1       4.956   3.761  16.605  0.00  0.00    +0.000 OA
BRANCH  13  16
ATOM     16  C   UNL     1       7.342   6.311  17.367  0.00  0.00    +0.000 C 
ATOM     17  C   UNL     1       6.906   7.746  17.153  0.00  0.00    +0.000 C 
ATOM     18  C   UNL     1       8.043   8.524  17.779  0.00  0.00    +0.000 C 
ATOM     19  O   UNL     1       8.588   7.710  18.825  0.00  0.00    +0.000 OA
ATOM     20  C   UNL     1       8.017   6.395  18.723  0.00  0.00    +0.000 C 
ENDBRANCH  13  16
ENDBRANCH   3  11
TORSDOF 2
ENDMDL
MODEL 7
REMARK VINA RESULT:      -7.1      1.391      1.848
REMARK  Name = 
REMARK  2 active torsions:
REMARK  status: ('A' for Active; 'I' for Inactive)
REMARK    1  A    between atoms: C_3  and  C_4
REMARK    2  A    between atoms: C_6  and  C_7
REMARK                            x       y       z     vdW  Elec       q    Type
REMARK                         _______ _______ _______ _____ _____    ______ ____
ROOT
ATOM      1  C   UNL     1       2.539   8.226  18.280  0.00  0.00    +0.000 A 
ATOM      2  C   UNL     1       3.520   7.598  17.514  0.00  0.00    +0.000 A 
ATOM      3  C   UNL     1       3.947   6.290  17.796  0.00  0.00    +0.000 A 
ATOM      4  C   UNL     1       3.334   5.639  18.885  0.00  0.00    +0.000 A 
ATOM      5  N   UNL     1       3.523   4.373  19.402  0.00  0.00    +0.000 N 
ATOM      6  C   UNL     1       2.712   4.173  20.486  0.00  0.00    +0.000 A 
ATOM      7  C   UNL     1       1.976   5.319  20.678  0.00  0.00    +0.000 A 
ATOM      8  C   UNL     1       2.355   6.251  19.672  0.00  0.00    +0.000 A 
ATOM      9  C   UNL     1       1.952   7.564  19.363  0.00  0.00    +0.000 A 
ATOM     10  H   UNL     1       4.176   3.700  19.017  0.00  0.00    +0.000 HD
ENDROOT
BRANCH   3  11
ATOM     11  C   UNL     1       4.980   5.603  17.040  0.00  0.00    +0.000 A 
ATOM     12  N   UNL     1       5.079   5.361  15.748  0.00  0.00    +0.000 NA
ATOM     13  C   UNL     1       6.257   4.654  15.675  0.00  0.00    +0.000 A 
ATOM     14  N   UNL     1       6.872   4.462  16.848  0.00  0.00    +0.000 NA
ATOM     15  O   UNL     1       6.027   5.093  17.759  0.00  0.00    +0.000 OA
BRANCH  13  16
ATOM     16  C   UNL     1       6.805   4.118  14.409  0.00  0.00    +0.000 C 
ATOM     17  C   UNL     1       5.751   3.654  13.425  0.00  0.00    +0.000 C 
ATOM     18  C   UNL     1       6.503   3.683  12.111  0.00  0.00    +0.000 C 
ATOM     19  O   UNL     1       7.501   4.708  12.217  0.00  0.00    +0.000 OA
ATOM     20  C   UNL     1       7.564   5.142  13.586  0.00  0.00    +0.000 C 
ENDBRANCH  13  16
ENDBRANCH   3  11
TORSDOF 2
ENDMDL
MODEL 8
REMARK VINA RESULT:      -7.1      1.180      2.300
REMARK  Name = 
REMARK  2 active torsions:
REMARK  status: ('A' for Active; 'I' for Inactive)
REMARK    1  A    between atoms: C_3  and  C_4
REMARK    2  A    between atoms: C_6  and  C_7
REMARK                            x       y       z     vdW  Elec       q    Type
REMARK                         _______ _______ _______ _____ _____    ______ ____
ROOT
ATOM      1  C   UNL     1       1.400   2.150  18.879  0.00  0.00    +0.000 A 
ATOM      2  C   UNL     1       2.507   2.398  18.069  0.00  0.00    +0.000 A 
ATOM      3  C   UNL     1       3.175   3.634  18.098  0.00  0.00    +0.000 A 
ATOM      4  C   UNL     1       2.678   4.608  18.987  0.00  0.00    +0.000 A 
ATOM      5  N   UNL     1       3.109   5.892  19.250  0.00  0.00    +0.000 N 
ATOM      6  C   UNL     1       2.305   6.485  20.186  0.00  0.00    +0.000 A 
ATOM      7  C   UNL     1       1.339   5.574  20.547  0.00  0.00    +0.000 A 
ATOM      8  C   UNL     1       1.565   4.385  19.801  0.00  0.00    +0.000 A 
ATOM      9  C   UNL     1       0.918   3.135  19.745  0.00  0.00    +0.000 A 
ATOM     10  H   UNL     1       3.912   6.319  18.803  0.00  0.00    +0.000 HD
ENDROOT
BRANCH   3  11
ATOM     11  C   UNL     1       4.318   3.947  17.258  0.00  0.00    +0.000 A 
ATOM     12  N   UNL     1       4.640   3.518  16.054  0.00  0.00    +0.000 NA
ATOM     13  C   UNL     1       5.840   4.153  15.831  0.00  0.00    +0.000 A 
ATOM     14  N   UNL     1       6.254   4.941  16.831  0.00  0.00    +0.000 NA
ATOM     15  O   UNL     1       5.244   4.808  17.782  0.00  0.00    +0.000 OA
BRANCH  13  16
ATOM     16  C   UNL     1       6.637   3.973  14.598  0.00  0.00    +0.000 C 
ATOM     17  C   UNL     1       5.811   3.684  13.362  0.00  0.00    +0.000 C 
ATOM     18  C   UNL     1       6.754   4.076  12.245  0.00  0.00    +0.000 C 
ATOM     19  O   UNL     1       7.604   5.113  12.753  0.00  0.00    +0.000 OA
ATOM     20  C   UNL     1       7.401   5.213  14.173  0.00  0.00    +0.000 C 
ENDBRANCH  13  16
ENDBRANCH   3  11
TORSDOF 2
ENDMDL
MODEL 9
REMARK VINA RESULT:      -7.0      1.549      1.564
REMARK  Name = 
REMARK  2 active torsions:
REMARK  status: ('A' for Active; 'I' for Inactive)
REMARK    1  A    between atoms: C_3  and  C_4
REMARK    2  A    between atoms: C_6  and  C_7
REMARK                            x       y       z     vdW  Elec       q    Type
REMARK                         _______ _______ _______ _____ _____    ______ ____
ROOT
ATOM      1  C   UNL     1       2.408   6.263  19.326  0.00  0.00    +0.000 A 
ATOM      2  C   UNL     1       3.392   6.211  18.340  0.00  0.00    +0.000 A 
ATOM      3  C   UNL     1       4.244   5.101  18.211  0.00  0.00    +0.000 A 
ATOM      4  C   UNL     1       4.053   4.042  19.119  0.00  0.00    +0.000 A 
ATOM      5  N   UNL     1       4.709   2.834  19.246  0.00  0.00    +0.000 N 
ATOM      6  C   UNL     1       4.194   2.116  20.292  0.00  0.00    +0.000 A 
ATOM      7  C   UNL     1       3.183   2.860  20.854  0.00  0.00    +0.000 A 
ATOM      8  C   UNL     1       3.080   4.075  20.121  0.00  0.00    +0.000 A 
ATOM      9  C   UNL     1       2.245   5.204  20.224  0.00  0.00    +0.000 A 
ATOM     10  H   UNL     1       5.465   2.537  18.638  0.00  0.00    +0.000 HD
ENDROOT
BRANCH   3  11
ATOM     11  C   UNL     1       5.297   5.011  17.214  0.00  0.00    +0.000 A 
ATOM     12  N   UNL     1       5.294   4.473  16.010  0.00  0.00    +0.000 NA
ATOM     13  C   UNL     1       6.588   4.685  15.595  0.00  0.00    +0.000 A 
ATOM     14  N   UNL     1       7.366   5.322  16.479  0.00  0.00    +0.000 NA
ATOM     15  O   UNL     1       6.510   5.542  17.557  0.00  0.00    +0.000 OA
BRANCH  13  16
ATOM     16  C   UNL     1       7.105   4.229  14.286  0.00  0.00    +0.000 C 
ATOM     17  C   UNL     1       6.055   3.618  13.383  0.00  0.00    +0.000 C 
ATOM     18  C   UNL     1       6.689   3.750  12.015  0.00  0.00    +0.000 C 
ATOM     19  O   UNL     1       7.536   4.907  12.052  0.00  0.00    +0.000 OA
ATOM     20  C   UNL     1       7.644   5.349  13.415  0.00  0.00    +0.000 C 
ENDBRANCH  13  16
ENDBRANCH   3  11
TORSDOF 2
ENDMDL
