MODEL 1
REMARK VINA RESULT:      -8.6      0.000      0.000
REMARK  Name = 
REMARK  5 active torsions:
REMARK  status: ('A' for Active; 'I' for Inactive)
REMARK    1  A    between atoms: C_2  and  C_3
REMARK    2  A    between atoms: C_2  and  C_17
REMARK    3  A    between atoms: C_6  and  C_7
REMARK    4  A    between atoms: C_10  and  O_11
REMARK    5  A    between atoms: C_22  and  O_23
REMARK                            x       y       z     vdW  Elec       q    Type
REMARK                         _______ _______ _______ _____ _____    ______ ____
ROOT
ATOM      1  C   UNL     1       1.083   9.573  18.905  0.00  0.00    +0.000 A 
ATOM      2  C   UNL     1       1.770   9.020  17.826  0.00  0.00    +0.000 A 
ATOM      3  C   UNL     1       2.435   7.796  17.979  0.00  0.00    +0.000 A 
ATOM      4  C   UNL     1       2.440   7.108  19.209  0.00  0.00    +0.000 A 
ATOM      5  C   UNL     1       1.746   7.698  20.279  0.00  0.00    +0.000 A 
ATOM      6  C   UNL     1       1.053   8.896  20.125  0.00  0.00    +0.000 A 
ENDROOT
BRANCH   4   7
ATOM      7  C   UNL     1       3.124   5.806  19.379  0.00  0.00    +0.000 A 
ATOM      8  C   UNL     1       4.304   5.495  18.681  0.00  0.00    +0.000 A 
ATOM      9  C   UNL     1       4.946   4.262  18.839  0.00  0.00    +0.000 A 
ATOM     10  C   UNL     1       4.424   3.320  19.720  0.00  0.00    +0.000 A 
ATOM     11  C   UNL     1       3.258   3.599  20.429  0.00  0.00    +0.000 A 
ATOM     12 CL   UNL     1       2.577   2.465  21.537  0.00  0.00    +0.000 Cl
ATOM     13  C   UNL     1       2.613   4.827  20.253  0.00  0.00    +0.000 A 
BRANCH  10  14
ATOM     14  O   UNL     1       5.060   2.123  19.894  0.00  0.00    +0.000 OA
ATOM     15  H   UNL     1       6.019   2.254  19.818  0.00  0.00    +0.000 HD
ENDBRANCH  10  14
ENDBRANCH   4   7
BRANCH   1  17
ATOM     16  O   UNL     1       1.005  11.923  18.884  0.00  0.00    +0.000 OA
ATOM     17  C   UNL     1       0.382  10.872  18.747  0.00  0.00    +0.000 C 
BRANCH  17  18
ATOM     18  C   UNL     1      -1.068  10.911  18.427  0.00  0.00    +0.000 A 
ATOM     19  C   UNL     1      -1.583  10.016  17.478  0.00  0.00    +0.000 A 
ATOM     20  C   UNL     1      -2.943  10.050  17.154  0.00  0.00    +0.000 A 
ATOM     21  C   UNL     1      -3.773  10.973  17.777  0.00  0.00    +0.000 A 
ATOM     22  F   UNL     1      -5.076  11.022  17.469  0.00  0.00    +0.000 F 
ATOM     23  C   UNL     1      -3.264  11.859  18.724  0.00  0.00    +0.000 A 
ATOM     24  C   UNL     1      -1.917  11.844  19.045  0.00  0.00    +0.000 A 
BRANCH  23  25
ATOM     25  O   UNL     1      -4.067  12.764  19.357  0.00  0.00    +0.000 OA
ATOM     26  H   UNL     1      -3.489  13.318  19.916  0.00  0.00    +0.000 HD
ENDBRANCH  23  25
ENDBRANCH  17  18
ENDBRANCH   1  17
TORSDOF 5
ENDMDL
MODEL 2
REMARK VINA RESULT:      -8.6      4.289      8.567
REMARK  Name = 
REMARK  5 active torsions:
REMARK  status: ('A' for Active; 'I' for Inactive)
REMARK    1  A    between atoms: C_2  and  C_3
REMARK    2  A    between atoms: C_2  and  C_17
REMARK    3  A    between atoms: C_6  and  C_7
REMARK    4  A    between atoms: C_10  and  O_11
REMARK    5  A    between atoms: C_22  and  O_23
REMARK                            x       y       z     vdW  Elec       q    Type
REMARK                         _______ _______ _______ _____ _____    ______ ____
ROOT
ATOM      1  C   UNL     1       2.491   7.491  18.727  0.00  0.00    +0.000 A 
ATOM      2  C   UNL     1       2.204   7.164  20.051  0.00  0.00    +0.000 A 
ATOM      3  C   UNL     1       1.382   8.007  20.812  0.00  0.00    +0.000 A 
ATOM      4  C   UNL     1       0.846   9.194  20.275  0.00  0.00    +0.000 A 
ATOM      5  C   UNL     1       1.164   9.499  18.941  0.00  0.00    +0.000 A 
ATOM      6  C   UNL     1       1.948   8.649  18.167  0.00  0.00    +0.000 A 
ENDROOT
BRANCH   4   7
ATOM      7  C   UNL     1      -0.037  10.084  21.064  0.00  0.00    +0.000 A 
ATOM      8  C   UNL     1      -0.281   9.861  22.430  0.00  0.00    +0.000 A 
ATOM      9  C   UNL     1      -1.120  10.700  23.172  0.00  0.00    +0.000 A 
ATOM     10  C   UNL     1      -1.716  11.798  22.558  0.00  0.00    +0.000 A 
ATOM     11  C   UNL     1      -1.492  12.048  21.206  0.00  0.00    +0.000 A 
ATOM     12 CL   UNL     1      -2.205  13.398  20.404  0.00  0.00    +0.000 Cl
ATOM     13  C   UNL     1      -0.666  11.195  20.468  0.00  0.00    +0.000 A 
BRANCH  10  14
ATOM     14  O   UNL     1      -2.518  12.633  23.284  0.00  0.00    +0.000 OA
ATOM     15  H   UNL     1      -2.293  12.556  24.226  0.00  0.00    +0.000 HD
ENDBRANCH  10  14
ENDBRANCH   4   7
BRANCH   1  17
ATOM     16  O   UNL     1       4.128   7.087  17.088  0.00  0.00    +0.000 OA
ATOM     17  C   UNL     1       3.365   6.602  17.920  0.00  0.00    +0.000 C 
BRANCH  17  18
ATOM     18  C   UNL     1       3.322   5.130  18.110  0.00  0.00    +0.000 A 
ATOM     19  C   UNL     1       2.254   4.401  17.567  0.00  0.00    +0.000 A 
ATOM     20  C   UNL     1       2.191   3.016  17.750  0.00  0.00    +0.000 A 
ATOM     21  C   UNL     1       3.190   2.373  18.469  0.00  0.00    +0.000 A 
ATOM     22  F   UNL     1       3.137   1.048  18.660  0.00  0.00    +0.000 F 
ATOM     23  C   UNL     1       4.255   3.095  19.004  0.00  0.00    +0.000 A 
ATOM     24  C   UNL     1       4.323   4.469  18.840  0.00  0.00    +0.000 A 
BRANCH  23  25
ATOM     25  O   UNL     1       5.254   2.480  19.702  0.00  0.00    +0.000 OA
ATOM     26  H   UNL     1       4.839   2.033  20.464  0.00  0.00    +0.000 HD
ENDBRANCH  23  25
ENDBRANCH  17  18
ENDBRANCH   1  17
TORSDOF 5
ENDMDL
MODEL 3
REMARK VINA RESULT:      -8.5      1.192      1.827
REMARK  Name = 
REMARK  5 active torsions:
REMARK  status: ('A' for Active; 'I' for Inactive)
REMARK    1  A    between atoms: C_2  and  C_3
REMARK    2  A    between atoms: C_2  and  C_17
REMARK    3  A    between atoms: C_6  and  C_7
REMARK    4  A    between atoms: C_10  and  O_11
REMARK    5  A    between atoms: C_22  and  O_23
REMARK                            x       y       z     vdW  Elec       q    Type
REMARK                         _______ _______ _______ _____ _____    ______ ____
ROOT
ATOM      1  C   UNL     1       1.022   9.675  18.927  0.00  0.00    +0.000 A 
ATOM      2  C   UNL     1       1.014   8.988  20.139  0.00  0.00    +0.000 A 
ATOM      3  C   UNL     1       1.702   7.773  20.254  0.00  0.00    +0.000 A 
ATOM      4  C   UNL     1       2.397   7.213  19.164  0.00  0.00    +0.000 A 
ATOM      5  C   UNL     1       2.376   7.926  17.953  0.00  0.00    +0.000 A 
ATOM      6  C   UNL     1       1.725   9.151  17.841  0.00  0.00    +0.000 A 
ENDROOT
BRANCH   4   7
ATOM      7  C   UNL     1       3.141   5.938  19.277  0.00  0.00    +0.000 A 
ATOM      8  C   UNL     1       2.612   4.832  19.963  0.00  0.00    +0.000 A 
ATOM      9  C   UNL     1       3.320   3.629  20.073  0.00  0.00    +0.000 A 
ATOM     10  C   UNL     1       4.571   3.508  19.477  0.00  0.00    +0.000 A 
ATOM     11  C   UNL     1       5.122   4.586  18.788  0.00  0.00    +0.000 A 
ATOM     12 CL   UNL     1       6.668   4.480  18.028  0.00  0.00    +0.000 Cl
ATOM     13  C   UNL     1       4.416   5.789  18.696  0.00  0.00    +0.000 A 
BRANCH  10  14
ATOM     14  O   UNL     1       5.256   2.329  19.563  0.00  0.00    +0.000 OA
ATOM     15  H   UNL     1       5.449   2.003  18.669  0.00  0.00    +0.000 HD
ENDBRANCH  10  14
ENDBRANCH   4   7
BRANCH   1  17
ATOM     16  O   UNL     1       0.884  12.022  18.970  0.00  0.00    +0.000 OA
ATOM     17  C   UNL     1       0.289  10.960  18.801  0.00  0.00    +0.000 C 
BRANCH  17  18
ATOM     18  C   UNL     1      -1.159  10.972  18.472  0.00  0.00    +0.000 A 
ATOM     19  C   UNL     1      -1.653  10.063  17.525  0.00  0.00    +0.000 A 
ATOM     20  C   UNL     1      -3.012  10.071  17.193  0.00  0.00    +0.000 A 
ATOM     21  C   UNL     1      -3.861  10.982  17.806  0.00  0.00    +0.000 A 
ATOM     22  F   UNL     1      -5.164  11.007  17.491  0.00  0.00    +0.000 F 
ATOM     23  C   UNL     1      -3.374  11.882  18.752  0.00  0.00    +0.000 A 
ATOM     24  C   UNL     1      -2.028  11.892  19.081  0.00  0.00    +0.000 A 
BRANCH  23  25
ATOM     25  O   UNL     1      -4.196  12.776  19.376  0.00  0.00    +0.000 OA
ATOM     26  H   UNL     1      -4.194  13.591  18.839  0.00  0.00    +0.000 HD
ENDBRANCH  23  25
ENDBRANCH  17  18
ENDBRANCH   1  17
TORSDOF 5
ENDMDL
MODEL 4
REMARK VINA RESULT:      -8.3      1.014      1.411
REMARK  Name = 
REMARK  5 active torsions:
REMARK  status: ('A' for Active; 'I' for Inactive)
REMARK    1  A    between atoms: C_2  and  C_3
REMARK    2  A    between atoms: C_2  and  C_17
REMARK    3  A    between atoms: C_6  and  C_7
REMARK    4  A    between atoms: C_10  and  O_11
REMARK    5  A    between atoms: C_22  and  O_23
REMARK                            x       y       z     vdW  Elec       q    Type
REMARK                         _______ _______ _______ _____ _____    ______ ____
ROOT
ATOM      1  C   UNL     1       1.008   9.652  19.009  0.00  0.00    +0.000 A 
ATOM      2  C   UNL     1       1.651   9.114  17.896  0.00  0.00    +0.000 A 
ATOM      3  C   UNL     1       2.332   7.894  18.009  0.00  0.00    +0.000 A 
ATOM      4  C   UNL     1       2.399   7.197  19.232  0.00  0.00    +0.000 A 
ATOM      5  C   UNL     1       1.749   7.773  20.337  0.00  0.00    +0.000 A 
ATOM      6  C   UNL     1       1.039   8.965  20.225  0.00  0.00    +0.000 A 
ENDROOT
BRANCH   4   7
ATOM      7  C   UNL     1       3.102   5.900  19.360  0.00  0.00    +0.000 A 
ATOM      8  C   UNL     1       4.252   5.606  18.609  0.00  0.00    +0.000 A 
ATOM      9  C   UNL     1       4.912   4.377  18.728  0.00  0.00    +0.000 A 
ATOM     10  C   UNL     1       4.437   3.424  19.623  0.00  0.00    +0.000 A 
ATOM     11  C   UNL     1       3.301   3.686  20.384  0.00  0.00    +0.000 A 
ATOM     12 CL   UNL     1       2.680   2.536  21.511  0.00  0.00    +0.000 Cl
ATOM     13  C   UNL     1       2.638   4.909  20.248  0.00  0.00    +0.000 A 
BRANCH  10  14
ATOM     14  O   UNL     1       5.091   2.231  19.758  0.00  0.00    +0.000 OA
ATOM     15  H   UNL     1       5.707   2.286  20.507  0.00  0.00    +0.000 HD
ENDBRANCH  10  14
ENDBRANCH   4   7
BRANCH   1  17
ATOM     16  O   UNL     1       0.860  11.992  19.197  0.00  0.00    +0.000 OA
ATOM     17  C   UNL     1       0.290  10.946  18.894  0.00  0.00    +0.000 C 
BRANCH  17  18
ATOM     18  C   UNL     1      -1.116  10.986  18.415  0.00  0.00    +0.000 A 
ATOM     19  C   UNL     1      -2.050  11.774  19.103  0.00  0.00    +0.000 A 
ATOM     20  C   UNL     1      -3.381  11.811  18.674  0.00  0.00    +0.000 A 
ATOM     21  C   UNL     1      -3.765  11.065  17.568  0.00  0.00    +0.000 A 
ATOM     22  F   UNL     1      -5.039  11.084  17.152  0.00  0.00    +0.000 F 
ATOM     23  C   UNL     1      -2.837  10.286  16.880  0.00  0.00    +0.000 A 
ATOM     24  C   UNL     1      -1.519  10.232  17.301  0.00  0.00    +0.000 A 
BRANCH  23  25
ATOM     25  O   UNL     1      -3.193   9.557  15.782  0.00  0.00    +0.000 OA
ATOM     26  H   UNL     1      -2.548   8.829  15.700  0.00  0.00    +0.000 HD
ENDBRANCH  23  25
ENDBRANCH  17  18
ENDBRANCH   1  17
TORSDOF 5
ENDMDL
MODEL 5
REMARK VINA RESULT:      -8.2      1.559      2.303
REMARK  Name = 
REMARK  5 active torsions:
REMARK  status: ('A' for Active; 'I' for Inactive)
REMARK    1  A    between atoms: C_2  and  C_3
REMARK    2  A    between atoms: C_2  and  C_17
REMARK    3  A    between atoms: C_6  and  C_7
REMARK    4  A    between atoms: C_10  and  O_11
REMARK    5  A    between atoms: C_22  and  O_23
REMARK                            x       y       z     vdW  Elec       q    Type
REMARK                         _______ _______ _______ _____ _____    ______ ____
ROOT
ATOM      1  C   UNL     1       0.986   9.663  19.012  0.00  0.00    +0.000 A 
ATOM      2  C   UNL     1       0.983   8.963  20.217  0.00  0.00    +0.000 A 
ATOM      3  C   UNL     1       1.672   7.748  20.316  0.00  0.00    +0.000 A 
ATOM      4  C   UNL     1       2.365   7.201  19.218  0.00  0.00    +0.000 A 
ATOM      5  C   UNL     1       2.339   7.927  18.015  0.00  0.00    +0.000 A 
ATOM      6  C   UNL     1       1.687   9.153  17.918  0.00  0.00    +0.000 A 
ENDROOT
BRANCH   4   7
ATOM      7  C   UNL     1       3.111   5.925  19.315  0.00  0.00    +0.000 A 
ATOM      8  C   UNL     1       2.584   4.810  19.989  0.00  0.00    +0.000 A 
ATOM      9  C   UNL     1       3.293   3.608  20.084  0.00  0.00    +0.000 A 
ATOM     10  C   UNL     1       4.544   3.495  19.484  0.00  0.00    +0.000 A 
ATOM     11  C   UNL     1       5.092   4.581  18.806  0.00  0.00    +0.000 A 
ATOM     12 CL   UNL     1       6.637   4.486  18.042  0.00  0.00    +0.000 Cl
ATOM     13  C   UNL     1       4.385   5.784  18.730  0.00  0.00    +0.000 A 
BRANCH  10  14
ATOM     14  O   UNL     1       5.230   2.315  19.555  0.00  0.00    +0.000 OA
ATOM     15  H   UNL     1       6.183   2.499  19.566  0.00  0.00    +0.000 HD
ENDBRANCH  10  14
ENDBRANCH   4   7
BRANCH   1  17
ATOM     16  O   UNL     1       0.809  12.000  19.214  0.00  0.00    +0.000 OA
ATOM     17  C   UNL     1       0.252  10.949  18.902  0.00  0.00    +0.000 C 
BRANCH  17  18
ATOM     18  C   UNL     1      -1.152  10.975  18.419  0.00  0.00    +0.000 A 
ATOM     19  C   UNL     1      -2.100  11.743  19.112  0.00  0.00    +0.000 A 
ATOM     20  C   UNL     1      -3.429  11.766  18.679  0.00  0.00    +0.000 A 
ATOM     21  C   UNL     1      -3.800  11.026  17.564  0.00  0.00    +0.000 A 
ATOM     22  F   UNL     1      -5.073  11.032  17.144  0.00  0.00    +0.000 F 
ATOM     23  C   UNL     1      -2.859  10.267  16.871  0.00  0.00    +0.000 A 
ATOM     24  C   UNL     1      -1.541  10.226  17.297  0.00  0.00    +0.000 A 
BRANCH  23  25
ATOM     25  O   UNL     1      -3.201   9.544  15.765  0.00  0.00    +0.000 OA
ATOM     26  H   UNL     1      -4.098   9.826  15.503  0.00  0.00    +0.000 HD
ENDBRANCH  23  25
ENDBRANCH  17  18
ENDBRANCH   1  17
TORSDOF 5
ENDMDL
MODEL 6
REMARK VINA RESULT:      -8.2      3.802      8.547
REMARK  Name = 
REMARK  5 active torsions:
REMARK  status: ('A' for Active; 'I' for Inactive)
REMARK    1  A    between atoms: C_2  and  C_3
REMARK    2  A    between atoms: C_2  and  C_17
REMARK    3  A    between atoms: C_6  and  C_7
REMARK    4  A    between atoms: C_10  and  O_11
REMARK    5  A    between atoms: C_22  and  O_23
REMARK                            x       y       z     vdW  Elec       q    Type
REMARK                         _______ _______ _______ _____ _____    ______ ____
ROOT
ATOM      1  C   UNL     1       2.651   7.640  18.441  0.00  0.00    +0.000 A 
ATOM      2  C   UNL     1       2.186   7.599  19.753  0.00  0.00    +0.000 A 
ATOM      3  C   UNL     1       1.245   8.544  20.186  0.00  0.00    +0.000 A 
ATOM      4  C   UNL     1       0.764   9.552  19.328  0.00  0.00    +0.000 A 
ATOM      5  C   UNL     1       1.262   9.572  18.015  0.00  0.00    +0.000 A 
ATOM      6  C   UNL     1       2.169   8.615  17.566  0.00  0.00    +0.000 A 
ENDROOT
BRANCH   4   7
ATOM      7  C   UNL     1      -0.241  10.546  19.769  0.00  0.00    +0.000 A 
ATOM      8  C   UNL     1      -1.040  11.246  18.850  0.00  0.00    +0.000 A 
ATOM      9  C   UNL     1      -1.987  12.189  19.268  0.00  0.00    +0.000 A 
ATOM     10  C   UNL     1      -2.163  12.432  20.627  0.00  0.00    +0.000 A 
ATOM     11  C   UNL     1      -1.388  11.753  21.564  0.00  0.00    +0.000 A 
ATOM     12 CL   UNL     1      -1.575  12.018  23.259  0.00  0.00    +0.000 Cl
ATOM     13  C   UNL     1      -0.434  10.825  21.137  0.00  0.00    +0.000 A 
BRANCH  10  14
ATOM     14  O   UNL     1      -3.101  13.336  21.041  0.00  0.00    +0.000 OA
ATOM     15  H   UNL     1      -3.230  13.249  22.000  0.00  0.00    +0.000 HD
ENDBRANCH  10  14
ENDBRANCH   4   7
BRANCH   1  17
ATOM     16  O   UNL     1       4.673   7.021  17.410  0.00  0.00    +0.000 OA
ATOM     17  C   UNL     1       3.651   6.644  17.980  0.00  0.00    +0.000 C 
BRANCH  17  18
ATOM     18  C   UNL     1       3.425   5.192  18.202  0.00  0.00    +0.000 A 
ATOM     19  C   UNL     1       2.246   4.603  17.723  0.00  0.00    +0.000 A 
ATOM     20  C   UNL     1       2.010   3.241  17.936  0.00  0.00    +0.000 A 
ATOM     21  C   UNL     1       2.950   2.483  18.623  0.00  0.00    +0.000 A 
ATOM     22  F   UNL     1       2.733   1.179  18.842  0.00  0.00    +0.000 F 
ATOM     23  C   UNL     1       4.124   3.065  19.094  0.00  0.00    +0.000 A 
ATOM     24  C   UNL     1       4.364   4.415  18.899  0.00  0.00    +0.000 A 
BRANCH  23  25
ATOM     25  O   UNL     1       5.066   2.333  19.759  0.00  0.00    +0.000 OA
ATOM     26  H   UNL     1       5.095   1.453  19.338  0.00  0.00    +0.000 HD
ENDBRANCH  23  25
ENDBRANCH  17  18
ENDBRANCH   1  17
TORSDOF 5
ENDMDL
MODEL 7
REMARK VINA RESULT:      -8.2      4.487      8.835
REMARK  Name = 
REMARK  5 active torsions:
REMARK  status: ('A' for Active; 'I' for Inactive)
REMARK    1  A    between atoms: C_2  and  C_3
REMARK    2  A    between atoms: C_2  and  C_17
REMARK    3  A    between atoms: C_6  and  C_7
REMARK    4  A    between atoms: C_10  and  O_11
REMARK    5  A    between atoms: C_22  and  O_23
REMARK                            x       y       z     vdW  Elec       q    Type
REMARK                         _______ _______ _______ _____ _____    ______ ____
ROOT
ATOM      1  C   UNL     1       4.492   5.856  18.107  0.00  0.00    +0.000 A 
ATOM      2  C   UNL     1       4.271   6.987  17.325  0.00  0.00    +0.000 A 
ATOM      3  C   UNL     1       3.284   7.909  17.699  0.00  0.00    +0.000 A 
ATOM      4  C   UNL     1       2.491   7.714  18.847  0.00  0.00    +0.000 A 
ATOM      5  C   UNL     1       2.732   6.558  19.608  0.00  0.00    +0.000 A 
ATOM      6  C   UNL     1       3.736   5.656  19.263  0.00  0.00    +0.000 A 
ENDROOT
BRANCH   4   7
ATOM      7  C   UNL     1       1.456   8.689  19.262  0.00  0.00    +0.000 A 
ATOM      8  C   UNL     1       0.911   9.617  18.358  0.00  0.00    +0.000 A 
ATOM      9  C   UNL     1      -0.064  10.540  18.754  0.00  0.00    +0.000 A 
ATOM     10  C   UNL     1      -0.526  10.536  20.067  0.00  0.00    +0.000 A 
ATOM     11  C   UNL     1      -0.007   9.627  20.986  0.00  0.00    +0.000 A 
ATOM     12 CL   UNL     1      -0.552   9.582  22.622  0.00  0.00    +0.000 Cl
ATOM     13  C   UNL     1       0.978   8.719  20.587  0.00  0.00    +0.000 A 
BRANCH  10  14
ATOM     14  O   UNL     1      -1.493  11.422  20.451  0.00  0.00    +0.000 OA
ATOM     15  H   UNL     1      -2.259  10.933  20.791  0.00  0.00    +0.000 HD
ENDBRANCH  10  14
ENDBRANCH   4   7
BRANCH   1  17
ATOM     16  O   UNL     1       6.121   4.224  18.572  0.00  0.00    +0.000 OA
ATOM     17  C   UNL     1       5.534   4.875  17.710  0.00  0.00    +0.000 C 
BRANCH  17  18
ATOM     18  C   UNL     1       5.874   4.676  16.278  0.00  0.00    +0.000 A 
ATOM     19  C   UNL     1       5.058   3.852  15.490  0.00  0.00    +0.000 A 
ATOM     20  C   UNL     1       5.373   3.642  14.144  0.00  0.00    +0.000 A 
ATOM     21  C   UNL     1       6.494   4.253  13.599  0.00  0.00    +0.000 A 
ATOM     22  F   UNL     1       6.813   4.053  12.312  0.00  0.00    +0.000 F 
ATOM     23  C   UNL     1       7.303   5.076  14.379  0.00  0.00    +0.000 A 
ATOM     24  C   UNL     1       7.009   5.283  15.716  0.00  0.00    +0.000 A 
BRANCH  23  25
ATOM     25  O   UNL     1       8.402   5.697  13.858  0.00  0.00    +0.000 OA
ATOM     26  H   UNL     1       8.739   5.129  13.139  0.00  0.00    +0.000 HD
ENDBRANCH  23  25
ENDBRANCH  17  18
ENDBRANCH   1  17
TORSDOF 5
ENDMDL
MODEL 8
REMARK VINA RESULT:      -8.2      1.746      2.123
REMARK  Name = 
REMARK  5 active torsions:
REMARK  status: ('A' for Active; 'I' for Inactive)
REMARK    1  A    between atoms: C_2  and  C_3
REMARK    2  A    between atoms: C_2  and  C_17
REMARK    3  A    between atoms: C_6  and  C_7
REMARK    4  A    between atoms: C_10  and  O_11
REMARK    5  A    between atoms: C_22  and  O_23
REMARK                            x       y       z     vdW  Elec       q    Type
REMARK                         _______ _______ _______ _____ _____    ______ ____
ROOT
ATOM      1  C   UNL     1       1.117   9.499  19.513  0.00  0.00    +0.000 A 
ATOM      2  C   UNL     1       1.394   8.363  20.270  0.00  0.00    +0.000 A 
ATOM      3  C   UNL     1       2.162   7.329  19.718  0.00  0.00    +0.000 A 
ATOM      4  C   UNL     1       2.656   7.401  18.400  0.00  0.00    +0.000 A 
ATOM      5  C   UNL     1       2.349   8.555  17.660  0.00  0.00    +0.000 A 
ATOM      6  C   UNL     1       1.618   9.602  18.214  0.00  0.00    +0.000 A 
ENDROOT
BRANCH   4   7
ATOM      7  C   UNL     1       3.482   6.323  17.810  0.00  0.00    +0.000 A 
ATOM      8  C   UNL     1       4.618   6.605  17.031  0.00  0.00    +0.000 A 
ATOM      9  C   UNL     1       5.394   5.585  16.471  0.00  0.00    +0.000 A 
ATOM     10  C   UNL     1       5.056   4.254  16.699  0.00  0.00    +0.000 A 
ATOM     11  C   UNL     1       3.938   3.942  17.469  0.00  0.00    +0.000 A 
ATOM     12 CL   UNL     1       3.482   2.308  17.784  0.00  0.00    +0.000 Cl
ATOM     13  C   UNL     1       3.157   4.967  18.012  0.00  0.00    +0.000 A 
BRANCH  10  14
ATOM     14  O   UNL     1       5.824   3.255  16.172  0.00  0.00    +0.000 OA
ATOM     15  H   UNL     1       5.485   3.017  15.294  0.00  0.00    +0.000 HD
ENDBRANCH  10  14
ENDBRANCH   4   7
BRANCH   1  17
ATOM     16  O   UNL     1       0.720  11.224  21.061  0.00  0.00    +0.000 OA
ATOM     17  C   UNL     1       0.299  10.593  20.093  0.00  0.00    +0.000 C 
BRANCH  17  18
ATOM     18  C   UNL     1      -1.026  10.931  19.514  0.00  0.00    +0.000 A 
ATOM     19  C   UNL     1      -1.519  10.170  18.445  0.00  0.00    +0.000 A 
ATOM     20  C   UNL     1      -2.759  10.484  17.878  0.00  0.00    +0.000 A 
ATOM     21  C   UNL     1      -3.491  11.551  18.381  0.00  0.00    +0.000 A 
ATOM     22  F   UNL     1      -4.676  11.870  17.842  0.00  0.00    +0.000 F 
ATOM     23  C   UNL     1      -3.005  12.306  19.447  0.00  0.00    +0.000 A 
ATOM     24  C   UNL     1      -1.774  12.012  20.010  0.00  0.00    +0.000 A 
BRANCH  23  25
ATOM     25  O   UNL     1      -3.717  13.350  19.965  0.00  0.00    +0.000 OA
ATOM     26  H   UNL     1      -3.763  14.037  19.274  0.00  0.00    +0.000 HD
ENDBRANCH  23  25
ENDBRANCH  17  18
ENDBRANCH   1  17
TORSDOF 5
ENDMDL
MODEL 9
REMARK VINA RESULT:      -8.1      3.870      8.690
REMARK  Name = 
REMARK  5 active torsions:
REMARK  status: ('A' for Active; 'I' for Inactive)
REMARK    1  A    between atoms: C_2  and  C_3
REMARK    2  A    between atoms: C_2  and  C_17
REMARK    3  A    between atoms: C_6  and  C_7
REMARK    4  A    between atoms: C_10  and  O_11
REMARK    5  A    between atoms: C_22  and  O_23
REMARK                            x       y       z     vdW  Elec       q    Type
REMARK                         _______ _______ _______ _____ _____    ______ ____
ROOT
ATOM      1  C   UNL     1       2.759   7.466  18.476  0.00  0.00    +0.000 A 
ATOM      2  C   UNL     1       2.208   7.537  19.753  0.00  0.00    +0.000 A 
ATOM      3  C   UNL     1       1.219   8.489  20.031  0.00  0.00    +0.000 A 
ATOM      4  C   UNL     1       0.770   9.395  19.049  0.00  0.00    +0.000 A 
ATOM      5  C   UNL     1       1.354   9.303  17.774  0.00  0.00    +0.000 A 
ATOM      6  C   UNL     1       2.311   8.336  17.480  0.00  0.00    +0.000 A 
ENDROOT
BRANCH   4   7
ATOM      7  C   UNL     1      -0.287  10.395  19.326  0.00  0.00    +0.000 A 
ATOM      8  C   UNL     1      -0.198  11.282  20.412  0.00  0.00    +0.000 A 
ATOM      9  C   UNL     1      -1.201  12.223  20.675  0.00  0.00    +0.000 A 
ATOM     10  C   UNL     1      -2.308  12.304  19.835  0.00  0.00    +0.000 A 
ATOM     11  C   UNL     1      -2.424  11.440  18.749  0.00  0.00    +0.000 A 
ATOM     12 CL   UNL     1      -3.775  11.506  17.679  0.00  0.00    +0.000 Cl
ATOM     13  C   UNL     1      -1.426  10.492  18.503  0.00  0.00    +0.000 A 
BRANCH  10  14
ATOM     14  O   UNL     1      -3.278  13.235  20.075  0.00  0.00    +0.000 OA
ATOM     15  H   UNL     1      -2.862  14.093  20.258  0.00  0.00    +0.000 HD
ENDBRANCH  10  14
ENDBRANCH   4   7
BRANCH   1  17
ATOM     16  O   UNL     1       4.913   6.830  17.778  0.00  0.00    +0.000 OA
ATOM     17  C   UNL     1       3.811   6.461  18.179  0.00  0.00    +0.000 C 
BRANCH  17  18
ATOM     18  C   UNL     1       3.542   5.012  18.364  0.00  0.00    +0.000 A 
ATOM     19  C   UNL     1       2.371   4.460  17.825  0.00  0.00    +0.000 A 
ATOM     20  C   UNL     1       2.095   3.101  18.003  0.00  0.00    +0.000 A 
ATOM     21  C   UNL     1       2.986   2.308  18.714  0.00  0.00    +0.000 A 
ATOM     22  F   UNL     1       2.730   1.005  18.900  0.00  0.00    +0.000 F 
ATOM     23  C   UNL     1       4.153   2.853  19.245  0.00  0.00    +0.000 A 
ATOM     24  C   UNL     1       4.433   4.200  19.086  0.00  0.00    +0.000 A 
BRANCH  23  25
ATOM     25  O   UNL     1       5.049   2.087  19.934  0.00  0.00    +0.000 OA
ATOM     26  H   UNL     1       4.662   1.195  20.015  0.00  0.00    +0.000 HD
ENDBRANCH  23  25
ENDBRANCH  17  18
ENDBRANCH   1  17
TORSDOF 5
ENDMDL
