MODEL 1
REMARK VINA RESULT:      -8.4      0.000      0.000
REMARK  Name = 
REMARK  3 active torsions:
REMARK  status: ('A' for Active; 'I' for Inactive)
REMARK    1  A    between atoms: C_6  and  C_7
REMARK    2  A    between atoms: C_9  and  N_10
REMARK    3  A    between atoms: C_18  and  O_19
REMARK                            x       y       z     vdW  Elec       q    Type
REMARK                         _______ _______ _______ _____ _____    ______ ____
ROOT
ATOM      1  C   UNL     1       5.986   4.516  16.426  0.00  0.00    +0.000 A 
ATOM      2  C   UNL     1       4.625   4.545  16.811  0.00  0.00    +0.000 A 
ATOM      3  C   UNL     1       4.195   4.619  18.150  0.00  0.00    +0.000 A 
ATOM      4  C   UNL     1       5.199   4.653  19.127  0.00  0.00    +0.000 A 
ATOM      5  C   UNL     1       6.551   4.622  18.795  0.00  0.00    +0.000 A 
ATOM      6  C   UNL     1       6.937   4.559  17.460  0.00  0.00    +0.000 A 
ENDROOT
BRANCH   1  12
ATOM      7  N   UNL     1       8.799   6.007  12.924  0.00  0.00    +0.000 N 
ATOM      8  C   UNL     1       7.758   5.194  13.324  0.00  0.00    +0.000 A 
ATOM      9  N   UNL     1       7.187   4.438  12.385  0.00  0.00    +0.000 NA
ATOM     10  C   UNL     1       6.164   3.669  12.793  0.00  0.00    +0.000 A 
ATOM     11  C   UNL     1       5.696   3.655  14.080  0.00  0.00    +0.000 A 
ATOM     12  C   UNL     1       6.350   4.464  14.990  0.00  0.00    +0.000 A 
ATOM     13  N   UNL     1       7.372   5.265  14.600  0.00  0.00    +0.000 NA
ATOM     14  H   UNL     1       8.717   6.185  11.930  0.00  0.00    +0.000 HD
ATOM     15  H   UNL     1       8.859   6.803  13.539  0.00  0.00    +0.000 HD
ENDBRANCH   1  12
BRANCH   3  16
ATOM     16  N   UNL     1       2.857   4.663  18.495  0.00  0.00    +0.000 N 
ATOM     17  C   UNL     1       2.348   5.530  19.559  0.00  0.00    +0.000 C 
ATOM     18  C   UNL     1       1.678   4.686  20.641  0.00  0.00    +0.000 C 
ATOM     19  C   UNL     1       0.617   3.761  20.047  0.00  0.00    +0.000 C 
ATOM     20  C   UNL     1       1.189   2.924  18.905  0.00  0.00    +0.000 C 
ATOM     21  C   UNL     1       1.868   3.798  17.850  0.00  0.00    +0.000 C 
ENDBRANCH   3  16
BRANCH   6  22
ATOM     22  O   UNL     1       8.277   4.558  17.175  0.00  0.00    +0.000 OA
ATOM     23  H   UNL     1       8.704   3.836  17.661  0.00  0.00    +0.000 HD
ENDBRANCH   6  22
TORSDOF 3
ENDMDL
MODEL 2
REMARK VINA RESULT:      -8.2      1.108      1.485
REMARK  Name = 
REMARK  3 active torsions:
REMARK  status: ('A' for Active; 'I' for Inactive)
REMARK    1  A    between atoms: C_6  and  C_7
REMARK    2  A    between atoms: C_9  and  N_10
REMARK    3  A    between atoms: C_18  and  O_19
REMARK                            x       y       z     vdW  Elec       q    Type
REMARK                         _______ _______ _______ _____ _____    ______ ____
ROOT
ATOM      1  C   UNL     1       6.065   4.733  16.363  0.00  0.00    +0.000 A 
ATOM      2  C   UNL     1       5.053   3.904  16.906  0.00  0.00    +0.000 A 
ATOM      3  C   UNL     1       4.623   3.974  18.245  0.00  0.00    +0.000 A 
ATOM      4  C   UNL     1       5.262   4.920  19.057  0.00  0.00    +0.000 A 
ATOM      5  C   UNL     1       6.265   5.754  18.568  0.00  0.00    +0.000 A 
ATOM      6  C   UNL     1       6.655   5.662  17.236  0.00  0.00    +0.000 A 
ENDROOT
BRANCH   1  12
ATOM      7  N   UNL     1       8.915   6.030  12.815  0.00  0.00    +0.000 N 
ATOM      8  C   UNL     1       7.864   5.247  13.246  0.00  0.00    +0.000 A 
ATOM      9  N   UNL     1       7.292   4.451  12.340  0.00  0.00    +0.000 NA
ATOM     10  C   UNL     1       6.260   3.712  12.776  0.00  0.00    +0.000 A 
ATOM     11  C   UNL     1       5.783   3.763  14.059  0.00  0.00    +0.000 A 
ATOM     12  C   UNL     1       6.437   4.609  14.934  0.00  0.00    +0.000 A 
ATOM     13  N   UNL     1       7.469   5.381  14.514  0.00  0.00    +0.000 NA
ATOM     14  H   UNL     1       8.842   6.162  11.814  0.00  0.00    +0.000 HD
ATOM     15  H   UNL     1       8.978   6.854  13.392  0.00  0.00    +0.000 HD
ENDBRANCH   1  12
BRANCH   3  16
ATOM     16  N   UNL     1       3.620   3.163  18.742  0.00  0.00    +0.000 N 
ATOM     17  C   UNL     1       2.455   2.775  17.945  0.00  0.00    +0.000 C 
ATOM     18  C   UNL     1       1.176   3.255  18.629  0.00  0.00    +0.000 C 
ATOM     19  C   UNL     1       1.110   2.780  20.080  0.00  0.00    +0.000 C 
ATOM     20  C   UNL     1       2.374   3.160  20.845  0.00  0.00    +0.000 C 
ATOM     21  C   UNL     1       3.635   2.682  20.125  0.00  0.00    +0.000 C 
ENDBRANCH   3  16
BRANCH   6  22
ATOM     22  O   UNL     1       7.627   6.519  16.788  0.00  0.00    +0.000 OA
ATOM     23  H   UNL     1       8.139   6.840  17.545  0.00  0.00    +0.000 HD
ENDBRANCH   6  22
TORSDOF 3
ENDMDL
MODEL 3
REMARK VINA RESULT:      -7.8      0.875      1.325
REMARK  Name = 
REMARK  3 active torsions:
REMARK  status: ('A' for Active; 'I' for Inactive)
REMARK    1  A    between atoms: C_6  and  C_7
REMARK    2  A    between atoms: C_9  and  N_10
REMARK    3  A    between atoms: C_18  and  O_19
REMARK                            x       y       z     vdW  Elec       q    Type
REMARK                         _______ _______ _______ _____ _____    ______ ____
ROOT
ATOM      1  C   UNL     1       6.033   4.752  16.574  0.00  0.00    +0.000 A 
ATOM      2  C   UNL     1       4.726   5.126  16.968  0.00  0.00    +0.000 A 
ATOM      3  C   UNL     1       4.338   5.310  18.309  0.00  0.00    +0.000 A 
ATOM      4  C   UNL     1       5.324   5.090  19.279  0.00  0.00    +0.000 A 
ATOM      5  C   UNL     1       6.623   4.718  18.939  0.00  0.00    +0.000 A 
ATOM      6  C   UNL     1       6.970   4.556  17.602  0.00  0.00    +0.000 A 
ENDROOT
BRANCH   1  12
ATOM      7  N   UNL     1       8.784   5.979  12.924  0.00  0.00    +0.000 N 
ATOM      8  C   UNL     1       7.740   5.210  13.396  0.00  0.00    +0.000 A 
ATOM      9  N   UNL     1       7.135   4.408  12.520  0.00  0.00    +0.000 NA
ATOM     10  C   UNL     1       6.111   3.683  12.996  0.00  0.00    +0.000 A 
ATOM     11  C   UNL     1       5.674   3.755  14.292  0.00  0.00    +0.000 A 
ATOM     12  C   UNL     1       6.361   4.606  15.136  0.00  0.00    +0.000 A 
ATOM     13  N   UNL     1       7.386   5.365  14.674  0.00  0.00    +0.000 NA
ATOM     14  H   UNL     1       8.681   6.098  11.924  0.00  0.00    +0.000 HD
ATOM     15  H   UNL     1       8.872   6.810  13.487  0.00  0.00    +0.000 HD
ENDBRANCH   1  12
BRANCH   3  16
ATOM     16  N   UNL     1       3.057   5.691  18.662  0.00  0.00    +0.000 N 
ATOM     17  C   UNL     1       2.595   7.077  18.564  0.00  0.00    +0.000 C 
ATOM     18  C   UNL     1       2.161   7.577  19.941  0.00  0.00    +0.000 C 
ATOM     19  C   UNL     1       1.141   6.636  20.578  0.00  0.00    +0.000 C 
ATOM     20  C   UNL     1       1.651   5.198  20.600  0.00  0.00    +0.000 C 
ATOM     21  C   UNL     1       2.094   4.735  19.211  0.00  0.00    +0.000 C 
ENDBRANCH   3  16
BRANCH   6  22
ATOM     22  O   UNL     1       8.265   4.215  17.309  0.00  0.00    +0.000 OA
ATOM     23  H   UNL     1       8.383   4.213  16.347  0.00  0.00    +0.000 HD
ENDBRANCH   6  22
TORSDOF 3
ENDMDL
MODEL 4
REMARK VINA RESULT:      -7.4      3.153      4.461
REMARK  Name = 
REMARK  3 active torsions:
REMARK  status: ('A' for Active; 'I' for Inactive)
REMARK    1  A    between atoms: C_6  and  C_7
REMARK    2  A    between atoms: C_9  and  N_10
REMARK    3  A    between atoms: C_18  and  O_19
REMARK                            x       y       z     vdW  Elec       q    Type
REMARK                         _______ _______ _______ _____ _____    ______ ____
ROOT
ATOM      1  C   UNL     1       3.903   5.679  18.556  0.00  0.00    +0.000 A 
ATOM      2  C   UNL     1       3.309   6.962  18.617  0.00  0.00    +0.000 A 
ATOM      3  C   UNL     1       2.262   7.296  19.499  0.00  0.00    +0.000 A 
ATOM      4  C   UNL     1       1.803   6.272  20.338  0.00  0.00    +0.000 A 
ATOM      5  C   UNL     1       2.354   4.994  20.310  0.00  0.00    +0.000 A 
ATOM      6  C   UNL     1       3.395   4.706  19.432  0.00  0.00    +0.000 A 
ENDROOT
BRANCH   1  12
ATOM      7  N   UNL     1       8.346   4.196  17.882  0.00  0.00    +0.000 N 
ATOM      8  C   UNL     1       7.173   4.667  17.330  0.00  0.00    +0.000 A 
ATOM      9  N   UNL     1       7.154   4.838  16.007  0.00  0.00    +0.000 NA
ATOM     10  C   UNL     1       6.009   5.315  15.493  0.00  0.00    +0.000 A 
ATOM     11  C   UNL     1       4.916   5.637  16.254  0.00  0.00    +0.000 A 
ATOM     12  C   UNL     1       5.019   5.423  17.615  0.00  0.00    +0.000 A 
ATOM     13  N   UNL     1       6.171   4.961  18.161  0.00  0.00    +0.000 NA
ATOM     14  H   UNL     1       9.116   4.414  17.261  0.00  0.00    +0.000 HD
ATOM     15  H   UNL     1       8.415   4.505  18.839  0.00  0.00    +0.000 HD
ENDBRANCH   1  12
BRANCH   3  16
ATOM     16  N   UNL     1       1.713   8.564  19.547  0.00  0.00    +0.000 N 
ATOM     17  C   UNL     1       1.163   9.135  20.778  0.00  0.00    +0.000 C 
ATOM     18  C   UNL     1      -0.312   9.476  20.577  0.00  0.00    +0.000 C 
ATOM     19  C   UNL     1      -0.516  10.360  19.348  0.00  0.00    +0.000 C 
ATOM     20  C   UNL     1       0.127   9.744  18.109  0.00  0.00    +0.000 C 
ATOM     21  C   UNL     1       1.597   9.398  18.350  0.00  0.00    +0.000 C 
ENDBRANCH   3  16
BRANCH   6  22
ATOM     22  O   UNL     1       3.927   3.443  19.455  0.00  0.00    +0.000 OA
ATOM     23  H   UNL     1       3.505   2.934  20.164  0.00  0.00    +0.000 HD
ENDBRANCH   6  22
TORSDOF 3
ENDMDL
MODEL 5
REMARK VINA RESULT:      -7.3      4.899      6.891
REMARK  Name = 
REMARK  3 active torsions:
REMARK  status: ('A' for Active; 'I' for Inactive)
REMARK    1  A    between atoms: C_6  and  C_7
REMARK    2  A    between atoms: C_9  and  N_10
REMARK    3  A    between atoms: C_18  and  O_19
REMARK                            x       y       z     vdW  Elec       q    Type
REMARK                         _______ _______ _______ _____ _____    ______ ____
ROOT
ATOM      1  C   UNL     1       2.324   6.076  19.687  0.00  0.00    +0.000 A 
ATOM      2  C   UNL     1       1.878   7.110  20.545  0.00  0.00    +0.000 A 
ATOM      3  C   UNL     1       1.655   8.434  20.121  0.00  0.00    +0.000 A 
ATOM      4  C   UNL     1       1.911   8.708  18.771  0.00  0.00    +0.000 A 
ATOM      5  C   UNL     1       2.355   7.724  17.890  0.00  0.00    +0.000 A 
ATOM      6  C   UNL     1       2.553   6.424  18.346  0.00  0.00    +0.000 A 
ENDROOT
BRANCH   1  12
ATOM      7  N   UNL     1       4.929   2.128  19.826  0.00  0.00    +0.000 N 
ATOM      8  C   UNL     1       3.818   2.814  20.273  0.00  0.00    +0.000 A 
ATOM      9  N   UNL     1       3.024   2.181  21.138  0.00  0.00    +0.000 NA
ATOM     10  C   UNL     1       1.940   2.859  21.545  0.00  0.00    +0.000 A 
ATOM     11  C   UNL     1       1.626   4.117  21.103  0.00  0.00    +0.000 A 
ATOM     12  C   UNL     1       2.506   4.703  20.213  0.00  0.00    +0.000 A 
ATOM     13  N   UNL     1       3.598   4.031  19.771  0.00  0.00    +0.000 NA
ATOM     14  H   UNL     1       4.766   1.134  19.923  0.00  0.00    +0.000 HD
ATOM     15  H   UNL     1       5.193   2.472  18.916  0.00  0.00    +0.000 HD
ENDBRANCH   1  12
BRANCH   3  16
ATOM     16  N   UNL     1       1.203   9.419  20.979  0.00  0.00    +0.000 N 
ATOM     17  C   UNL     1       1.135   9.228  22.429  0.00  0.00    +0.000 C 
ATOM     18  C   UNL     1      -0.306   9.400  22.908  0.00  0.00    +0.000 C 
ATOM     19  C   UNL     1      -0.891  10.731  22.439  0.00  0.00    +0.000 C 
ATOM     20  C   UNL     1      -0.740  10.902  20.930  0.00  0.00    +0.000 C 
ATOM     21  C   UNL     1       0.709  10.705  20.482  0.00  0.00    +0.000 C 
ENDBRANCH   3  16
BRANCH   6  22
ATOM     22  O   UNL     1       2.964   5.480  17.441  0.00  0.00    +0.000 OA
ATOM     23  H   UNL     1       2.839   4.599  17.823  0.00  0.00    +0.000 HD
ENDBRANCH   6  22
TORSDOF 3
ENDMDL
MODEL 6
REMARK VINA RESULT:      -7.3      1.467      2.178
REMARK  Name = 
REMARK  3 active torsions:
REMARK  status: ('A' for Active; 'I' for Inactive)
REMARK    1  A    between atoms: C_6  and  C_7
REMARK    2  A    between atoms: C_9  and  N_10
REMARK    3  A    between atoms: C_18  and  O_19
REMARK                            x       y       z     vdW  Elec       q    Type
REMARK                         _______ _______ _______ _____ _____    ______ ____
ROOT
ATOM      1  C   UNL     1       6.180   4.746  15.963  0.00  0.00    +0.000 A 
ATOM      2  C   UNL     1       5.195   3.895  16.520  0.00  0.00    +0.000 A 
ATOM      3  C   UNL     1       4.733   4.001  17.846  0.00  0.00    +0.000 A 
ATOM      4  C   UNL     1       5.310   5.008  18.630  0.00  0.00    +0.000 A 
ATOM      5  C   UNL     1       6.285   5.866  18.127  0.00  0.00    +0.000 A 
ATOM      6  C   UNL     1       6.708   5.737  16.807  0.00  0.00    +0.000 A 
ENDROOT
BRANCH   1  12
ATOM      7  N   UNL     1       5.683   2.422  11.871  0.00  0.00    +0.000 N 
ATOM      8  C   UNL     1       6.295   3.442  12.572  0.00  0.00    +0.000 A 
ATOM      9  N   UNL     1       7.186   4.181  11.909  0.00  0.00    +0.000 NA
ATOM     10  C   UNL     1       7.782   5.154  12.615  0.00  0.00    +0.000 A 
ATOM     11  C   UNL     1       7.531   5.388  13.941  0.00  0.00    +0.000 A 
ATOM     12  C   UNL     1       6.589   4.580  14.549  0.00  0.00    +0.000 A 
ATOM     13  N   UNL     1       5.987   3.577  13.864  0.00  0.00    +0.000 NA
ATOM     14  H   UNL     1       6.273   2.155  11.092  0.00  0.00    +0.000 HD
ATOM     15  H   UNL     1       5.397   1.698  12.511  0.00  0.00    +0.000 HD
ENDBRANCH   1  12
BRANCH   3  16
ATOM     16  N   UNL     1       3.757   3.165  18.357  0.00  0.00    +0.000 N 
ATOM     17  C   UNL     1       2.555   2.808  17.603  0.00  0.00    +0.000 C 
ATOM     18  C   UNL     1       1.310   3.254  18.369  0.00  0.00    +0.000 C 
ATOM     19  C   UNL     1       1.317   2.717  19.800  0.00  0.00    +0.000 C 
ATOM     20  C   UNL     1       2.617   3.068  20.517  0.00  0.00    +0.000 C 
ATOM     21  C   UNL     1       3.841   2.626  19.716  0.00  0.00    +0.000 C 
ENDBRANCH   3  16
BRANCH   6  22
ATOM     22  O   UNL     1       7.650   6.619  16.344  0.00  0.00    +0.000 OA
ATOM     23  H   UNL     1       8.513   6.386  16.717  0.00  0.00    +0.000 HD
ENDBRANCH   6  22
TORSDOF 3
ENDMDL
MODEL 7
REMARK VINA RESULT:      -7.3      2.186      6.854
REMARK  Name = 
REMARK  3 active torsions:
REMARK  status: ('A' for Active; 'I' for Inactive)
REMARK    1  A    between atoms: C_6  and  C_7
REMARK    2  A    between atoms: C_9  and  N_10
REMARK    3  A    between atoms: C_18  and  O_19
REMARK                            x       y       z     vdW  Elec       q    Type
REMARK                         _______ _______ _______ _____ _____    ______ ____
ROOT
ATOM      1  C   UNL     1       3.562   4.851  17.692  0.00  0.00    +0.000 A 
ATOM      2  C   UNL     1       4.393   4.269  16.705  0.00  0.00    +0.000 A 
ATOM      3  C   UNL     1       5.280   5.007  15.897  0.00  0.00    +0.000 A 
ATOM      4  C   UNL     1       5.305   6.392  16.103  0.00  0.00    +0.000 A 
ATOM      5  C   UNL     1       4.504   7.010  17.061  0.00  0.00    +0.000 A 
ATOM      6  C   UNL     1       3.647   6.245  17.847  0.00  0.00    +0.000 A 
ENDROOT
BRANCH   1  12
ATOM      7  N   UNL     1       2.274   3.343  21.989  0.00  0.00    +0.000 N 
ATOM      8  C   UNL     1       2.065   3.310  20.625  0.00  0.00    +0.000 A 
ATOM      9  N   UNL     1       1.085   2.520  20.182  0.00  0.00    +0.000 NA
ATOM     10  C   UNL     1       0.912   2.489  18.852  0.00  0.00    +0.000 A 
ATOM     11  C   UNL     1       1.689   3.195  17.972  0.00  0.00    +0.000 A 
ATOM     12  C   UNL     1       2.677   3.994  18.515  0.00  0.00    +0.000 A 
ATOM     13  N   UNL     1       2.886   4.028  19.855  0.00  0.00    +0.000 NA
ATOM     14  H   UNL     1       1.914   2.490  22.399  0.00  0.00    +0.000 HD
ATOM     15  H   UNL     1       3.234   3.584  22.176  0.00  0.00    +0.000 HD
ENDBRANCH   1  12
BRANCH   3  16
ATOM     16  N   UNL     1       6.091   4.408  14.952  0.00  0.00    +0.000 N 
ATOM     17  C   UNL     1       7.441   4.890  14.655  0.00  0.00    +0.000 C 
ATOM     18  C   UNL     1       7.538   5.287  13.183  0.00  0.00    +0.000 C 
ATOM     19  C   UNL     1       7.081   4.151  12.270  0.00  0.00    +0.000 C 
ATOM     20  C   UNL     1       5.694   3.648  12.662  0.00  0.00    +0.000 C 
ATOM     21  C   UNL     1       5.627   3.278  14.144  0.00  0.00    +0.000 C 
ENDBRANCH   3  16
BRANCH   6  22
ATOM     22  O   UNL     1       2.895   6.888  18.795  0.00  0.00    +0.000 OA
ATOM     23  H   UNL     1       3.451   7.075  19.567  0.00  0.00    +0.000 HD
ENDBRANCH   6  22
TORSDOF 3
ENDMDL
MODEL 8
REMARK VINA RESULT:      -7.2      2.870      4.486
REMARK  Name = 
REMARK  3 active torsions:
REMARK  status: ('A' for Active; 'I' for Inactive)
REMARK    1  A    between atoms: C_6  and  C_7
REMARK    2  A    between atoms: C_9  and  N_10
REMARK    3  A    between atoms: C_18  and  O_19
REMARK                            x       y       z     vdW  Elec       q    Type
REMARK                         _______ _______ _______ _____ _____    ______ ____
ROOT
ATOM      1  C   UNL     1       3.980   5.098  18.935  0.00  0.00    +0.000 A 
ATOM      2  C   UNL     1       3.486   6.412  19.110  0.00  0.00    +0.000 A 
ATOM      3  C   UNL     1       2.305   6.714  19.815  0.00  0.00    +0.000 A 
ATOM      4  C   UNL     1       1.602   5.626  20.349  0.00  0.00    +0.000 A 
ATOM      5  C   UNL     1       2.048   4.315  20.200  0.00  0.00    +0.000 A 
ATOM      6  C   UNL     1       3.226   4.058  19.505  0.00  0.00    +0.000 A 
ENDROOT
BRANCH   1  12
ATOM      7  N   UNL     1       6.149   3.560  15.020  0.00  0.00    +0.000 N 
ATOM      8  C   UNL     1       6.257   4.141  16.267  0.00  0.00    +0.000 A 
ATOM      9  N   UNL     1       7.486   4.450  16.685  0.00  0.00    +0.000 NA
ATOM     10  C   UNL     1       7.570   4.996  17.908  0.00  0.00    +0.000 A 
ATOM     11  C   UNL     1       6.483   5.216  18.713  0.00  0.00    +0.000 A 
ATOM     12  C   UNL     1       5.247   4.873  18.200  0.00  0.00    +0.000 A 
ATOM     13  N   UNL     1       5.137   4.301  16.975  0.00  0.00    +0.000 NA
ATOM     14  H   UNL     1       7.028   3.117  14.783  0.00  0.00    +0.000 HD
ATOM     15  H   UNL     1       5.315   2.995  14.983  0.00  0.00    +0.000 HD
ENDBRANCH   1  12
BRANCH   3  16
ATOM     16  N   UNL     1       1.855   8.010  19.983  0.00  0.00    +0.000 N 
ATOM     17  C   UNL     1       1.304   8.493  21.251  0.00  0.00    +0.000 C 
ATOM     18  C   UNL     1      -0.131   8.973  21.043  0.00  0.00    +0.000 C 
ATOM     19  C   UNL     1      -0.217   9.995  19.911  0.00  0.00    +0.000 C 
ATOM     20  C   UNL     1       0.425   9.461  18.633  0.00  0.00    +0.000 C 
ATOM     21  C   UNL     1       1.852   8.972  18.880  0.00  0.00    +0.000 C 
ENDBRANCH   3  16
BRANCH   6  22
ATOM     22  O   UNL     1       3.643   2.757  19.403  0.00  0.00    +0.000 OA
ATOM     23  H   UNL     1       4.611   2.738  19.348  0.00  0.00    +0.000 HD
ENDBRANCH   6  22
TORSDOF 3
ENDMDL
MODEL 9
REMARK VINA RESULT:      -7.1      1.343      1.882
REMARK  Name = 
REMARK  3 active torsions:
REMARK  status: ('A' for Active; 'I' for Inactive)
REMARK    1  A    between atoms: C_6  and  C_7
REMARK    2  A    between atoms: C_9  and  N_10
REMARK    3  A    between atoms: C_18  and  O_19
REMARK                            x       y       z     vdW  Elec       q    Type
REMARK                         _______ _______ _______ _____ _____    ______ ____
ROOT
ATOM      1  C   UNL     1       5.851   4.929  15.782  0.00  0.00    +0.000 A 
ATOM      2  C   UNL     1       4.634   4.332  16.189  0.00  0.00    +0.000 A 
ATOM      3  C   UNL     1       4.034   4.559  17.442  0.00  0.00    +0.000 A 
ATOM      4  C   UNL     1       4.715   5.420  18.313  0.00  0.00    +0.000 A 
ATOM      5  C   UNL     1       5.917   6.027  17.958  0.00  0.00    +0.000 A 
ATOM      6  C   UNL     1       6.473   5.786  16.706  0.00  0.00    +0.000 A 
ENDROOT
BRANCH   1  12
ATOM      7  N   UNL     1       5.701   2.338  11.825  0.00  0.00    +0.000 N 
ATOM      8  C   UNL     1       6.270   3.388  12.516  0.00  0.00    +0.000 A 
ATOM      9  N   UNL     1       7.248   4.056  11.902  0.00  0.00    +0.000 NA
ATOM     10  C   UNL     1       7.801   5.061  12.600  0.00  0.00    +0.000 A 
ATOM     11  C   UNL     1       7.423   5.393  13.874  0.00  0.00    +0.000 A 
ATOM     12  C   UNL     1       6.398   4.654  14.433  0.00  0.00    +0.000 A 
ATOM     13  N   UNL     1       5.837   3.621  13.757  0.00  0.00    +0.000 NA
ATOM     14  H   UNL     1       6.358   2.002  11.132  0.00  0.00    +0.000 HD
ATOM     15  H   UNL     1       5.327   1.669  12.479  0.00  0.00    +0.000 HD
ENDBRANCH   1  12
BRANCH   3  16
ATOM     16  N   UNL     1       2.835   3.974  17.805  0.00  0.00    +0.000 N 
ATOM     17  C   UNL     1       1.733   4.739  18.392  0.00  0.00    +0.000 C 
ATOM     18  C   UNL     1       1.394   4.183  19.773  0.00  0.00    +0.000 C 
ATOM     19  C   UNL     1       1.132   2.679  19.718  0.00  0.00    +0.000 C 
ATOM     20  C   UNL     1       2.286   1.940  19.045  0.00  0.00    +0.000 C 
ATOM     21  C   UNL     1       2.611   2.533  17.673  0.00  0.00    +0.000 C 
ENDBRANCH   3  16
BRANCH   6  22
ATOM     22  O   UNL     1       7.643   6.424  16.386  0.00  0.00    +0.000 OA
ATOM     23  H   UNL     1       7.634   7.314  16.770  0.00  0.00    +0.000 HD
ENDBRANCH   6  22
TORSDOF 3
ENDMDL
