MODEL 1
REMARK VINA RESULT:      -7.0      0.000      0.000
REMARK  Name = 
REMARK  2 active torsions:
REMARK  status: ('A' for Active; 'I' for Inactive)
REMARK    1  A    between atoms: C_2  and  C_12
REMARK    2  A    between atoms: N_3  and  C_4
REMARK                            x       y       z     vdW  Elec       q    Type
REMARK                         _______ _______ _______ _____ _____    ______ ____
ROOT
ATOM      1  C   UNL     1      -0.734   9.636  20.960  0.00  0.00    +0.000 C 
ATOM      2  C   UNL     1      -0.199   8.327  21.557  0.00  0.00    +0.000 C 
ATOM      3  C   UNL     1       1.315   8.214  21.415  0.00  0.00    +0.000 C 
ATOM      4  N   UNL     1       1.701   8.403  20.023  0.00  0.00    +0.000 N 
ATOM      5  C   UNL     1       2.333   7.406  19.345  0.00  0.00    +0.000 A 
ATOM      6  N   UNL     1       2.218   6.113  19.603  0.00  0.00    +0.000 NA
ATOM      7  N   UNL     1       2.912   5.313  18.712  0.00  0.00    +0.000 NA
ATOM      8  C   UNL     1       3.594   6.043  17.862  0.00  0.00    +0.000 A 
ATOM      9  N   UNL     1       4.377   5.514  16.832  0.00  0.00    +0.000 N 
ATOM     10  C   UNL     1       5.205   6.187  15.944  0.00  0.00    +0.000 A 
ATOM     11  C   UNL     1       5.782   5.282  15.079  0.00  0.00    +0.000 A 
ATOM     12  C   UNL     1       5.300   4.005  15.428  0.00  0.00    +0.000 A 
ATOM     13  C   UNL     1       4.454   4.170  16.503  0.00  0.00    +0.000 A 
ATOM     14  S   UNL     1       3.449   7.719  18.054  0.00  0.00    +0.000 S 
ATOM     15  C   UNL     1       1.271   9.635  19.370  0.00  0.00    +0.000 C 
ATOM     16  C   UNL     1      -0.248   9.787  19.507  0.00  0.00    +0.000 C 
ENDROOT
BRANCH   1  18
ATOM     17  O   UNL     1      -0.055  10.771  22.968  0.00  0.00    +0.000 OA
ATOM     18  C   UNL     1      -0.364  10.873  21.783  0.00  0.00    +0.000 C 
ATOM     19  N   UNL     1      -0.394  12.059  21.076  0.00  0.00    +0.000 N 
ATOM     20  H   UNL     1      -0.800  12.064  20.146  0.00  0.00    +0.000 HD
BRANCH  19  21
ATOM     21  C   UNL     1      -0.020  13.331  21.570  0.00  0.00    +0.000 A 
ATOM     22  C   UNL     1      -0.843  14.117  22.380  0.00  0.00    +0.000 A 
ATOM     23  C   UNL     1      -0.412  15.369  22.829  0.00  0.00    +0.000 A 
ATOM     24  C   UNL     1       0.847  15.843  22.468  0.00  0.00    +0.000 A 
ATOM     25 BR   UNL     1       1.411  17.543  23.072  0.00  0.00    +0.000 Br
ATOM     26  C   UNL     1       1.690  15.071  21.675  0.00  0.00    +0.000 A 
ATOM     27  C   UNL     1       1.252  13.821  21.243  0.00  0.00    +0.000 A 
ATOM     28  F   UNL     1       2.066  13.081  20.472  0.00  0.00    +0.000 F 
ENDBRANCH  19  21
ENDBRANCH   1  18
TORSDOF 2
ENDMDL
MODEL 2
REMARK VINA RESULT:      -7.0      1.732      1.760
REMARK  Name = 
REMARK  2 active torsions:
REMARK  status: ('A' for Active; 'I' for Inactive)
REMARK    1  A    between atoms: C_2  and  C_12
REMARK    2  A    between atoms: N_3  and  C_4
REMARK                            x       y       z     vdW  Elec       q    Type
REMARK                         _______ _______ _______ _____ _____    ______ ____
ROOT
ATOM      1  C   UNL     1      -0.791  10.293  19.782  0.00  0.00    +0.000 C 
ATOM      2  C   UNL     1      -0.225   9.208  20.709  0.00  0.00    +0.000 C 
ATOM      3  C   UNL     1       1.292   9.106  20.606  0.00  0.00    +0.000 C 
ATOM      4  N   UNL     1       1.686   8.928  19.215  0.00  0.00    +0.000 N 
ATOM      5  C   UNL     1       2.353   7.804  18.830  0.00  0.00    +0.000 A 
ATOM      6  N   UNL     1       2.272   6.625  19.425  0.00  0.00    +0.000 NA
ATOM      7  N   UNL     1       2.997   5.637  18.782  0.00  0.00    +0.000 NA
ATOM      8  C   UNL     1       3.667   6.132  17.769  0.00  0.00    +0.000 A 
ATOM      9  N   UNL     1       4.474   5.370  16.920  0.00  0.00    +0.000 N 
ATOM     10  C   UNL     1       5.292   5.805  15.886  0.00  0.00    +0.000 A 
ATOM     11  C   UNL     1       5.902   4.719  15.296  0.00  0.00    +0.000 A 
ATOM     12  C   UNL     1       5.453   3.569  15.974  0.00  0.00    +0.000 A 
ATOM     13  C   UNL     1       4.593   3.990  16.964  0.00  0.00    +0.000 A 
ATOM     14  S   UNL     1       3.473   7.793  17.504  0.00  0.00    +0.000 S 
ATOM     15  C   UNL     1       1.228   9.926  18.255  0.00  0.00    +0.000 C 
ATOM     16  C   UNL     1      -0.296  10.064  18.343  0.00  0.00    +0.000 C 
ENDROOT
BRANCH   1  18
ATOM     17  O   UNL     1      -0.082  11.933  21.392  0.00  0.00    +0.000 OA
ATOM     18  C   UNL     1      -0.464  11.716  20.245  0.00  0.00    +0.000 C 
ATOM     19  N   UNL     1      -0.621  12.682  19.270  0.00  0.00    +0.000 N 
ATOM     20  H   UNL     1      -1.078  12.430  18.400  0.00  0.00    +0.000 HD
BRANCH  19  21
ATOM     21  C   UNL     1      -0.311  14.056  19.405  0.00  0.00    +0.000 A 
ATOM     22  C   UNL     1      -1.121  14.966  20.088  0.00  0.00    +0.000 A 
ATOM     23  C   UNL     1      -0.757  16.313  20.179  0.00  0.00    +0.000 A 
ATOM     24  C   UNL     1       0.421  16.758  19.583  0.00  0.00    +0.000 A 
ATOM     25 BR   UNL     1       0.892  18.585  19.702  0.00  0.00    +0.000 Br
ATOM     26  C   UNL     1       1.250  15.867  18.910  0.00  0.00    +0.000 A 
ATOM     27  C   UNL     1       0.881  14.526  18.836  0.00  0.00    +0.000 A 
ATOM     28  F   UNL     1       1.681  13.669  18.180  0.00  0.00    +0.000 F 
ENDBRANCH  19  21
ENDBRANCH   1  18
TORSDOF 2
ENDMDL
MODEL 3
REMARK VINA RESULT:      -7.0      2.002      2.226
REMARK  Name = 
REMARK  2 active torsions:
REMARK  status: ('A' for Active; 'I' for Inactive)
REMARK    1  A    between atoms: C_2  and  C_12
REMARK    2  A    between atoms: N_3  and  C_4
REMARK                            x       y       z     vdW  Elec       q    Type
REMARK                         _______ _______ _______ _____ _____    ______ ____
ROOT
ATOM      1  C   UNL     1      -1.036  10.694  20.855  0.00  0.00    +0.000 C 
ATOM      2  C   UNL     1      -0.412   9.767  21.907  0.00  0.00    +0.000 C 
ATOM      3  C   UNL     1       1.055   9.476  21.610  0.00  0.00    +0.000 C 
ATOM      4  N   UNL     1       1.197   8.970  20.251  0.00  0.00    +0.000 N 
ATOM      5  C   UNL     1       1.701   7.724  20.033  0.00  0.00    +0.000 A 
ATOM      6  N   UNL     1       1.627   6.710  20.880  0.00  0.00    +0.000 NA
ATOM      7  N   UNL     1       2.155   5.535  20.375  0.00  0.00    +0.000 NA
ATOM      8  C   UNL     1       2.685   5.731  19.191  0.00  0.00    +0.000 A 
ATOM      9  N   UNL     1       3.278   4.724  18.425  0.00  0.00    +0.000 N 
ATOM     10  C   UNL     1       3.944   4.841  17.212  0.00  0.00    +0.000 A 
ATOM     11  C   UNL     1       4.361   3.594  16.797  0.00  0.00    +0.000 A 
ATOM     12  C   UNL     1       3.941   2.667  17.770  0.00  0.00    +0.000 A 
ATOM     13  C   UNL     1       3.293   3.378  18.756  0.00  0.00    +0.000 A 
ATOM     14  S   UNL     1       2.580   7.312  18.595  0.00  0.00    +0.000 S 
ATOM     15  C   UNL     1       0.667   9.793  19.170  0.00  0.00    +0.000 C 
ATOM     16  C   UNL     1      -0.806  10.117  19.446  0.00  0.00    +0.000 C 
ENDROOT
BRANCH   1  18
ATOM     17  O   UNL     1       0.155  12.508  21.889  0.00  0.00    +0.000 OA
ATOM     18  C   UNL     1      -0.526  12.135  20.937  0.00  0.00    +0.000 C 
ATOM     19  N   UNL     1      -0.884  12.929  19.865  0.00  0.00    +0.000 N 
ATOM     20  H   UNL     1      -1.566  12.577  19.201  0.00  0.00    +0.000 HD
BRANCH  19  21
ATOM     21  C   UNL     1      -0.479  14.267  19.650  0.00  0.00    +0.000 A 
ATOM     22  C   UNL     1      -1.205  15.374  20.096  0.00  0.00    +0.000 A 
ATOM     23  C   UNL     1      -0.750  16.672  19.844  0.00  0.00    +0.000 A 
ATOM     24  C   UNL     1       0.437  16.870  19.142  0.00  0.00    +0.000 A 
ATOM     25 BR   UNL     1       1.032  18.630  18.797  0.00  0.00    +0.000 Br
ATOM     26  C   UNL     1       1.184  15.783  18.701  0.00  0.00    +0.000 A 
ATOM     27  C   UNL     1       0.724  14.495  18.967  0.00  0.00    +0.000 A 
ATOM     28  F   UNL     1       1.445  13.448  18.535  0.00  0.00    +0.000 F 
ENDBRANCH  19  21
ENDBRANCH   1  18
TORSDOF 2
ENDMDL
MODEL 4
REMARK VINA RESULT:      -6.9      3.074      3.809
REMARK  Name = 
REMARK  2 active torsions:
REMARK  status: ('A' for Active; 'I' for Inactive)
REMARK    1  A    between atoms: C_2  and  C_12
REMARK    2  A    between atoms: N_3  and  C_4
REMARK                            x       y       z     vdW  Elec       q    Type
REMARK                         _______ _______ _______ _____ _____    ______ ____
ROOT
ATOM      1  C   UNL     1       0.697  11.033  21.941  0.00  0.00    +0.000 C 
ATOM      2  C   UNL     1       0.798  11.283  20.430  0.00  0.00    +0.000 C 
ATOM      3  C   UNL     1       0.338  10.075  19.622  0.00  0.00    +0.000 C 
ATOM      4  N   UNL     1       1.059   8.884  20.051  0.00  0.00    +0.000 N 
ATOM      5  C   UNL     1       1.848   8.207  19.172  0.00  0.00    +0.000 A 
ATOM      6  N   UNL     1       2.449   8.736  18.119  0.00  0.00    +0.000 NA
ATOM      7  N   UNL     1       3.251   7.837  17.437  0.00  0.00    +0.000 NA
ATOM      8  C   UNL     1       3.156   6.637  17.959  0.00  0.00    +0.000 A 
ATOM      9  N   UNL     1       3.866   5.526  17.494  0.00  0.00    +0.000 N 
ATOM     10  C   UNL     1       3.770   4.205  17.910  0.00  0.00    +0.000 A 
ATOM     11  C   UNL     1       4.662   3.434  17.196  0.00  0.00    +0.000 A 
ATOM     12  C   UNL     1       5.342   4.293  16.310  0.00  0.00    +0.000 A 
ATOM     13  C   UNL     1       4.834   5.559  16.503  0.00  0.00    +0.000 A 
ATOM     14  S   UNL     1       2.125   6.498  19.294  0.00  0.00    +0.000 S 
ATOM     15  C   UNL     1       0.998   8.537  21.466  0.00  0.00    +0.000 C 
ATOM     16  C   UNL     1       1.442   9.738  22.310  0.00  0.00    +0.000 C 
ENDROOT
BRANCH   1  18
ATOM     17  O   UNL     1      -1.162  10.019  23.080  0.00  0.00    +0.000 OA
ATOM     18  C   UNL     1      -0.746  10.990  22.453  0.00  0.00    +0.000 C 
ATOM     19  N   UNL     1      -1.488  12.118  22.162  0.00  0.00    +0.000 N 
ATOM     20  H   UNL     1      -1.107  12.803  21.517  0.00  0.00    +0.000 HD
BRANCH  19  21
ATOM     21  C   UNL     1      -2.814  12.372  22.585  0.00  0.00    +0.000 A 
ATOM     22  C   UNL     1      -3.207  12.390  23.925  0.00  0.00    +0.000 A 
ATOM     23  C   UNL     1      -4.537  12.643  24.274  0.00  0.00    +0.000 A 
ATOM     24  C   UNL     1      -5.484  12.879  23.280  0.00  0.00    +0.000 A 
ATOM     25 BR   UNL     1      -7.282  13.205  23.766  0.00  0.00    +0.000 Br
ATOM     26  C   UNL     1      -5.114  12.880  21.940  0.00  0.00    +0.000 A 
ATOM     27  C   UNL     1      -3.783  12.637  21.607  0.00  0.00    +0.000 A 
ATOM     28  F   UNL     1      -3.430  12.633  20.311  0.00  0.00    +0.000 F 
ENDBRANCH  19  21
ENDBRANCH   1  18
TORSDOF 2
ENDMDL
MODEL 5
REMARK VINA RESULT:      -6.9      2.451      2.977
REMARK  Name = 
REMARK  2 active torsions:
REMARK  status: ('A' for Active; 'I' for Inactive)
REMARK    1  A    between atoms: C_2  and  C_12
REMARK    2  A    between atoms: N_3  and  C_4
REMARK                            x       y       z     vdW  Elec       q    Type
REMARK                         _______ _______ _______ _____ _____    ______ ____
ROOT
ATOM      1  C   UNL     1      -0.294  10.695  20.650  0.00  0.00    +0.000 C 
ATOM      2  C   UNL     1      -0.095   9.681  21.786  0.00  0.00    +0.000 C 
ATOM      3  C   UNL     1       1.291   9.045  21.743  0.00  0.00    +0.000 C 
ATOM      4  N   UNL     1       1.539   8.478  20.424  0.00  0.00    +0.000 N 
ATOM      5  C   UNL     1       1.764   7.143  20.284  0.00  0.00    +0.000 A 
ATOM      6  N   UNL     1       1.310   6.201  21.095  0.00  0.00    +0.000 NA
ATOM      7  N   UNL     1       1.624   4.920  20.677  0.00  0.00    +0.000 NA
ATOM      8  C   UNL     1       2.379   4.950  19.604  0.00  0.00    +0.000 A 
ATOM      9  N   UNL     1       2.839   3.809  18.941  0.00  0.00    +0.000 N 
ATOM     10  C   UNL     1       3.711   3.729  17.864  0.00  0.00    +0.000 A 
ATOM     11  C   UNL     1       3.886   2.407  17.514  0.00  0.00    +0.000 A 
ATOM     12  C   UNL     1       3.100   1.635  18.390  0.00  0.00    +0.000 A 
ATOM     13  C   UNL     1       2.479   2.508  19.256  0.00  0.00    +0.000 A 
ATOM     14  S   UNL     1       2.753   6.492  19.015  0.00  0.00    +0.000 S 
ATOM     15  C   UNL     1       1.410   9.369  19.277  0.00  0.00    +0.000 C 
ATOM     16  C   UNL     1       0.030  10.037  19.296  0.00  0.00    +0.000 C 
ENDROOT
BRANCH   1  18
ATOM     17  O   UNL     1       0.371  12.681  21.832  0.00  0.00    +0.000 OA
ATOM     18  C   UNL     1       0.520  11.979  20.834  0.00  0.00    +0.000 C 
ATOM     19  N   UNL     1       1.412  12.240  19.814  0.00  0.00    +0.000 N 
ATOM     20  H   UNL     1       1.362  11.685  18.965  0.00  0.00    +0.000 HD
BRANCH  19  21
ATOM     21  C   UNL     1       2.339  13.309  19.772  0.00  0.00    +0.000 A 
ATOM     22  C   UNL     1       2.967  13.830  20.905  0.00  0.00    +0.000 A 
ATOM     23  C   UNL     1       3.870  14.892  20.793  0.00  0.00    +0.000 A 
ATOM     24  C   UNL     1       4.148  15.440  19.544  0.00  0.00    +0.000 A 
ATOM     25 BR   UNL     1       5.359  16.885  19.410  0.00  0.00    +0.000 Br
ATOM     26  C   UNL     1       3.545  14.928  18.400  0.00  0.00    +0.000 A 
ATOM     27  C   UNL     1       2.655  13.863  18.524  0.00  0.00    +0.000 A 
ATOM     28  F   UNL     1       2.071  13.375  17.418  0.00  0.00    +0.000 F 
ENDBRANCH  19  21
ENDBRANCH   1  18
TORSDOF 2
ENDMDL
MODEL 6
REMARK VINA RESULT:      -6.9      1.018      1.370
REMARK  Name = 
REMARK  2 active torsions:
REMARK  status: ('A' for Active; 'I' for Inactive)
REMARK    1  A    between atoms: C_2  and  C_12
REMARK    2  A    between atoms: N_3  and  C_4
REMARK                            x       y       z     vdW  Elec       q    Type
REMARK                         _______ _______ _______ _____ _____    ______ ____
ROOT
ATOM      1  C   UNL     1      -0.705   9.600  20.944  0.00  0.00    +0.000 C 
ATOM      2  C   UNL     1      -0.202   8.266  21.512  0.00  0.00    +0.000 C 
ATOM      3  C   UNL     1       1.313   8.134  21.395  0.00  0.00    +0.000 C 
ATOM      4  N   UNL     1       1.727   8.357  20.016  0.00  0.00    +0.000 N 
ATOM      5  C   UNL     1       2.357   7.369  19.321  0.00  0.00    +0.000 A 
ATOM      6  N   UNL     1       2.217   6.072  19.540  0.00  0.00    +0.000 NA
ATOM      7  N   UNL     1       2.915   5.287  18.639  0.00  0.00    +0.000 NA
ATOM      8  C   UNL     1       3.625   6.029  17.822  0.00  0.00    +0.000 A 
ATOM      9  N   UNL     1       4.418   5.518  16.792  0.00  0.00    +0.000 N 
ATOM     10  C   UNL     1       5.273   6.202  15.939  0.00  0.00    +0.000 A 
ATOM     11  C   UNL     1       5.852   5.313  15.059  0.00  0.00    +0.000 A 
ATOM     12  C   UNL     1       5.344   4.035  15.363  0.00  0.00    +0.000 A 
ATOM     13  C   UNL     1       4.481   4.182  16.426  0.00  0.00    +0.000 A 
ATOM     14  S   UNL     1       3.501   7.701  18.060  0.00  0.00    +0.000 S 
ATOM     15  C   UNL     1       1.329   9.613  19.391  0.00  0.00    +0.000 C 
ATOM     16  C   UNL     1      -0.191   9.785  19.505  0.00  0.00    +0.000 C 
ENDROOT
BRANCH   1  18
ATOM     17  O   UNL     1       0.148  10.654  22.930  0.00  0.00    +0.000 OA
ATOM     18  C   UNL     1      -0.332  10.807  21.809  0.00  0.00    +0.000 C 
ATOM     19  N   UNL     1      -0.564  12.031  21.212  0.00  0.00    +0.000 N 
ATOM     20  H   UNL     1      -1.095  12.061  20.347  0.00  0.00    +0.000 HD
BRANCH  19  21
ATOM     21  C   UNL     1      -0.236  13.296  21.754  0.00  0.00    +0.000 A 
ATOM     22  C   UNL     1       0.902  14.019  21.390  0.00  0.00    +0.000 A 
ATOM     23  C   UNL     1       1.169  15.263  21.970  0.00  0.00    +0.000 A 
ATOM     24  C   UNL     1       0.297  15.791  22.919  0.00  0.00    +0.000 A 
ATOM     25 BR   UNL     1       0.679  17.467  23.705  0.00  0.00    +0.000 Br
ATOM     26  C   UNL     1      -0.850  15.095  23.286  0.00  0.00    +0.000 A 
ATOM     27  C   UNL     1      -1.109  13.861  22.693  0.00  0.00    +0.000 A 
ATOM     28  F   UNL     1      -2.215  13.189  23.054  0.00  0.00    +0.000 F 
ENDBRANCH  19  21
ENDBRANCH   1  18
TORSDOF 2
ENDMDL
MODEL 7
REMARK VINA RESULT:      -6.8      4.850     10.156
REMARK  Name = 
REMARK  2 active torsions:
REMARK  status: ('A' for Active; 'I' for Inactive)
REMARK    1  A    between atoms: C_2  and  C_12
REMARK    2  A    between atoms: N_3  and  C_4
REMARK                            x       y       z     vdW  Elec       q    Type
REMARK                         _______ _______ _______ _____ _____    ______ ____
ROOT
ATOM      1  C   UNL     1       0.083  12.993  18.436  0.00  0.00    +0.000 C 
ATOM      2  C   UNL     1       0.182  14.113  19.481  0.00  0.00    +0.000 C 
ATOM      3  C   UNL     1      -0.277  13.648  20.859  0.00  0.00    +0.000 C 
ATOM      4  N   UNL     1      -1.611  13.068  20.770  0.00  0.00    +0.000 N 
ATOM      5  C   UNL     1      -2.646  13.622  21.459  0.00  0.00    +0.000 A 
ATOM      6  N   UNL     1      -2.736  14.894  21.812  0.00  0.00    +0.000 NA
ATOM      7  N   UNL     1      -3.930  15.205  22.440  0.00  0.00    +0.000 NA
ATOM      8  C   UNL     1      -4.662  14.130  22.611  0.00  0.00    +0.000 A 
ATOM      9  N   UNL     1      -5.930  14.135  23.200  0.00  0.00    +0.000 N 
ATOM     10  C   UNL     1      -6.741  13.052  23.510  0.00  0.00    +0.000 A 
ATOM     11  C   UNL     1      -7.917  13.506  24.069  0.00  0.00    +0.000 A 
ATOM     12  C   UNL     1      -7.846  14.912  24.107  0.00  0.00    +0.000 A 
ATOM     13  C   UNL     1      -6.624  15.272  23.582  0.00  0.00    +0.000 A 
ATOM     14  S   UNL     1      -3.993  12.688  22.029  0.00  0.00    +0.000 S 
ATOM     15  C   UNL     1      -1.803  11.970  19.829  0.00  0.00    +0.000 C 
ATOM     16  C   UNL     1      -1.338  12.401  18.433  0.00  0.00    +0.000 C 
ENDROOT
BRANCH   1  18
ATOM     17  O   UNL     1       2.286  12.165  18.933  0.00  0.00    +0.000 OA
ATOM     18  C   UNL     1       1.127  11.889  18.631  0.00  0.00    +0.000 C 
ATOM     19  N   UNL     1       0.641  10.608  18.456  0.00  0.00    +0.000 N 
ATOM     20  H   UNL     1      -0.288  10.486  18.067  0.00  0.00    +0.000 HD
BRANCH  19  21
ATOM     21  C   UNL     1       1.367   9.410  18.655  0.00  0.00    +0.000 A 
ATOM     22  C   UNL     1       2.206   8.847  17.691  0.00  0.00    +0.000 A 
ATOM     23  C   UNL     1       2.890   7.656  17.952  0.00  0.00    +0.000 A 
ATOM     24  C   UNL     1       2.738   7.020  19.182  0.00  0.00    +0.000 A 
ATOM     25 BR   UNL     1       3.658   5.403  19.515  0.00  0.00    +0.000 Br
ATOM     26  C   UNL     1       1.920   7.570  20.163  0.00  0.00    +0.000 A 
ATOM     27  C   UNL     1       1.251   8.763  19.893  0.00  0.00    +0.000 A 
ATOM     28  F   UNL     1       0.457   9.288  20.840  0.00  0.00    +0.000 F 
ENDBRANCH  19  21
ENDBRANCH   1  18
TORSDOF 2
ENDMDL
MODEL 8
REMARK VINA RESULT:      -6.8      3.390      4.222
REMARK  Name = 
REMARK  2 active torsions:
REMARK  status: ('A' for Active; 'I' for Inactive)
REMARK    1  A    between atoms: C_2  and  C_12
REMARK    2  A    between atoms: N_3  and  C_4
REMARK                            x       y       z     vdW  Elec       q    Type
REMARK                         _______ _______ _______ _____ _____    ______ ____
ROOT
ATOM      1  C   UNL     1      -0.158  12.504  20.052  0.00  0.00    +0.000 C 
ATOM      2  C   UNL     1       0.061  12.103  18.587  0.00  0.00    +0.000 C 
ATOM      3  C   UNL     1      -0.204  10.619  18.358  0.00  0.00    +0.000 C 
ATOM      4  N   UNL     1       0.582   9.822  19.290  0.00  0.00    +0.000 N 
ATOM      5  C   UNL     1       1.511   8.942  18.824  0.00  0.00    +0.000 A 
ATOM      6  N   UNL     1       2.156   9.047  17.674  0.00  0.00    +0.000 NA
ATOM      7  N   UNL     1       3.100   8.053  17.482  0.00  0.00    +0.000 NA
ATOM      8  C   UNL     1       3.071   7.185  18.465  0.00  0.00    +0.000 A 
ATOM      9  N   UNL     1       3.923   6.081  18.556  0.00  0.00    +0.000 N 
ATOM     10  C   UNL     1       3.914   5.059  19.495  0.00  0.00    +0.000 A 
ATOM     11  C   UNL     1       4.938   4.177  19.223  0.00  0.00    +0.000 A 
ATOM     12  C   UNL     1       5.613   4.659  18.085  0.00  0.00    +0.000 A 
ATOM     13  C   UNL     1       4.972   5.814  17.691  0.00  0.00    +0.000 A 
ATOM     14  S   UNL     1       1.936   7.494  19.682  0.00  0.00    +0.000 S 
ATOM     15  C   UNL     1       0.421  10.101  20.712  0.00  0.00    +0.000 C 
ATOM     16  C   UNL     1       0.669  11.591  20.976  0.00  0.00    +0.000 C 
ENDROOT
BRANCH   1  18
ATOM     17  O   UNL     1      -2.475  11.919  19.789  0.00  0.00    +0.000 OA
ATOM     18  C   UNL     1      -1.632  12.500  20.468  0.00  0.00    +0.000 C 
ATOM     19  N   UNL     1      -1.894  13.173  21.645  0.00  0.00    +0.000 N 
ATOM     20  H   UNL     1      -1.162  13.742  22.057  0.00  0.00    +0.000 HD
BRANCH  19  21
ATOM     21  C   UNL     1      -3.149  13.253  22.294  0.00  0.00    +0.000 A 
ATOM     22  C   UNL     1      -3.468  12.535  23.449  0.00  0.00    +0.000 A 
ATOM     23  C   UNL     1      -4.730  12.657  24.037  0.00  0.00    +0.000 A 
ATOM     24  C   UNL     1      -5.683  13.500  23.471  0.00  0.00    +0.000 A 
ATOM     25 BR   UNL     1      -7.391  13.645  24.269  0.00  0.00    +0.000 Br
ATOM     26  C   UNL     1      -5.383  14.237  22.330  0.00  0.00    +0.000 A 
ATOM     27  C   UNL     1      -4.118  14.113  21.759  0.00  0.00    +0.000 A 
ATOM     28  F   UNL     1      -3.834  14.821  20.654  0.00  0.00    +0.000 F 
ENDBRANCH  19  21
ENDBRANCH   1  18
TORSDOF 2
ENDMDL
MODEL 9
REMARK VINA RESULT:      -6.8      1.888      2.280
REMARK  Name = 
REMARK  2 active torsions:
REMARK  status: ('A' for Active; 'I' for Inactive)
REMARK    1  A    between atoms: C_2  and  C_12
REMARK    2  A    between atoms: N_3  and  C_4
REMARK                            x       y       z     vdW  Elec       q    Type
REMARK                         _______ _______ _______ _____ _____    ______ ____
ROOT
ATOM      1  C   UNL     1      -0.731  10.567  21.178  0.00  0.00    +0.000 C 
ATOM      2  C   UNL     1      -0.394   9.452  22.178  0.00  0.00    +0.000 C 
ATOM      3  C   UNL     1       1.051   8.985  22.043  0.00  0.00    +0.000 C 
ATOM      4  N   UNL     1       1.328   8.612  20.662  0.00  0.00    +0.000 N 
ATOM      5  C   UNL     1       1.694   7.337  20.357  0.00  0.00    +0.000 A 
ATOM      6  N   UNL     1       1.366   6.260  21.051  0.00  0.00    +0.000 NA
ATOM      7  N   UNL     1       1.808   5.082  20.476  0.00  0.00    +0.000 NA
ATOM      8  C   UNL     1       2.528   5.325  19.406  0.00  0.00    +0.000 A 
ATOM      9  N   UNL     1       3.094   4.330  18.604  0.00  0.00    +0.000 N 
ATOM     10  C   UNL     1       3.942   4.478  17.515  0.00  0.00    +0.000 A 
ATOM     11  C   UNL     1       4.253   3.237  17.004  0.00  0.00    +0.000 A 
ATOM     12  C   UNL     1       3.578   2.281  17.788  0.00  0.00    +0.000 A 
ATOM     13  C   UNL     1       2.887   2.969  18.761  0.00  0.00    +0.000 A 
ATOM     14  S   UNL     1       2.717   6.959  19.007  0.00  0.00    +0.000 S 
ATOM     15  C   UNL     1       1.073   9.615  19.634  0.00  0.00    +0.000 C 
ATOM     16  C   UNL     1      -0.371  10.117  19.750  0.00  0.00    +0.000 C 
ENDROOT
BRANCH   1  18
ATOM     17  O   UNL     1      -0.102  12.363  22.647  0.00  0.00    +0.000 OA
ATOM     18  C   UNL     1      -0.059  11.902  21.509  0.00  0.00    +0.000 C 
ATOM     19  N   UNL     1       0.588  12.495  20.442  0.00  0.00    +0.000 N 
ATOM     20  H   UNL     1       0.447  12.115  19.512  0.00  0.00    +0.000 HD
BRANCH  19  21
ATOM     21  C   UNL     1       1.354  13.683  20.491  0.00  0.00    +0.000 A 
ATOM     22  C   UNL     1       2.687  13.726  20.905  0.00  0.00    +0.000 A 
ATOM     23  C   UNL     1       3.385  14.938  20.934  0.00  0.00    +0.000 A 
ATOM     24  C   UNL     1       2.750  16.116  20.549  0.00  0.00    +0.000 A 
ATOM     25 BR   UNL     1       3.701  17.748  20.607  0.00  0.00    +0.000 Br
ATOM     26  C   UNL     1       1.427  16.096  20.119  0.00  0.00    +0.000 A 
ATOM     27  C   UNL     1       0.747  14.880  20.086  0.00  0.00    +0.000 A 
ATOM     28  F   UNL     1      -0.532  14.865  19.675  0.00  0.00    +0.000 F 
ENDBRANCH  19  21
ENDBRANCH   1  18
TORSDOF 2
ENDMDL
