MODEL 1
REMARK VINA RESULT:      -7.9      0.000      0.000
REMARK  Name = 
REMARK  1 active torsions:
REMARK  status: ('A' for Active; 'I' for Inactive)
REMARK    1  A    between atoms: N_19  and  C_20
REMARK                            x       y       z     vdW  Elec       q    Type
REMARK                         _______ _______ _______ _____ _____    ______ ____
ROOT
ATOM      1  O   UNL     1       5.096   1.738  19.961  0.00  0.00    +0.000 OA
ATOM      2  C   UNL     1       4.465   2.778  20.006  0.00  0.00    +0.000 A 
ATOM      3  N   UNL     1       3.111   2.857  20.441  0.00  0.00    +0.000 N 
ATOM      4  C   UNL     1       2.644   4.138  20.197  0.00  0.00    +0.000 A 
ATOM      5  C   UNL     1       1.424   4.726  20.339  0.00  0.00    +0.000 A 
ATOM      6  N   UNL     1       1.184   6.011  19.971  0.00  0.00    +0.000 NA
ATOM      7  C   UNL     1       2.213   6.658  19.368  0.00  0.00    +0.000 A 
ATOM      8  N   UNL     1       2.023   8.008  18.912  0.00  0.00    +0.000 N 
ATOM      9  C   UNL     1       2.826   8.572  17.943  0.00  0.00    +0.000 A 
ATOM     10  N   UNL     1       2.590   9.844  17.737  0.00  0.00    +0.000 NA
ATOM     11  C   UNL     1       1.579  10.145  18.607  0.00  0.00    +0.000 A 
ATOM     12  C   UNL     1       1.001  11.404  18.841  0.00  0.00    +0.000 A 
ATOM     13  C   UNL     1      -0.008  11.523  19.797  0.00  0.00    +0.000 A 
ATOM     14  C   UNL     1      -0.453  10.395  20.493  0.00  0.00    +0.000 A 
ATOM     15  C   UNL     1       0.102   9.114  20.265  0.00  0.00    +0.000 A 
ATOM     16  C   UNL     1       1.147   9.016  19.321  0.00  0.00    +0.000 A 
ATOM     17  N   UNL     1       3.457   6.116  19.144  0.00  0.00    +0.000 NA
ATOM     18  C   UNL     1       3.658   4.881  19.630  0.00  0.00    +0.000 A 
ATOM     19  N   UNL     1       4.862   4.074  19.579  0.00  0.00    +0.000 N 
ATOM     20  H   UNL     1       2.557   2.065  20.741  0.00  0.00    +0.000 HD
ENDROOT
BRANCH  19  21
ATOM     21  C   UNL     1       5.991   4.447  18.619  0.00  0.00    +0.000 C 
ATOM     22  C   UNL     1       6.803   5.530  19.342  0.00  0.00    +0.000 C 
ATOM     23  C   UNL     1       7.725   6.421  18.546  0.00  0.00    +0.000 C 
ATOM     24  O   UNL     1       7.980   6.071  17.216  0.00  0.00    +0.000 OA
ATOM     25  C   UNL     1       6.956   5.519  16.512  0.00  0.00    +0.000 A 
ATOM     26  C   UNL     1       7.196   5.651  15.122  0.00  0.00    +0.000 A 
ATOM     27  C   UNL     1       6.419   4.973  14.208  0.00  0.00    +0.000 A 
ATOM     28  C   UNL     1       5.383   4.194  14.712  0.00  0.00    +0.000 A 
ATOM     29 CL   UNL     1       4.475   3.276  13.562  0.00  0.00    +0.000 Cl
ATOM     30  C   UNL     1       5.120   4.084  16.120  0.00  0.00    +0.000 A 
ATOM     31  C   UNL     1       5.910   4.750  17.085  0.00  0.00    +0.000 A 
ENDBRANCH  19  21
TORSDOF 1
ENDMDL
MODEL 2
REMARK VINA RESULT:      -7.4      7.150     10.087
REMARK  Name = 
REMARK  1 active torsions:
REMARK  status: ('A' for Active; 'I' for Inactive)
REMARK    1  A    between atoms: N_19  and  C_20
REMARK                            x       y       z     vdW  Elec       q    Type
REMARK                         _______ _______ _______ _____ _____    ______ ____
ROOT
ATOM      1  O   UNL     1      -2.592  10.524  14.619  0.00  0.00    +0.000 OA
ATOM      2  C   UNL     1      -3.191  10.779  15.647  0.00  0.00    +0.000 A 
ATOM      3  N   UNL     1      -4.557  11.183  15.680  0.00  0.00    +0.000 N 
ATOM      4  C   UNL     1      -4.870  11.569  16.973  0.00  0.00    +0.000 A 
ATOM      5  C   UNL     1      -5.987  12.107  17.538  0.00  0.00    +0.000 A 
ATOM      6  N   UNL     1      -6.044  12.466  18.847  0.00  0.00    +0.000 NA
ATOM      7  C   UNL     1      -4.889  12.339  19.548  0.00  0.00    +0.000 A 
ATOM      8  N   UNL     1      -4.859  12.738  20.929  0.00  0.00    +0.000 N 
ATOM      9  C   UNL     1      -3.680  13.046  21.574  0.00  0.00    +0.000 A 
ATOM     10  N   UNL     1      -3.824  13.270  22.857  0.00  0.00    +0.000 NA
ATOM     11  C   UNL     1      -5.163  13.109  23.079  0.00  0.00    +0.000 A 
ATOM     12  C   UNL     1      -5.838  13.166  24.311  0.00  0.00    +0.000 A 
ATOM     13  C   UNL     1      -7.214  12.944  24.346  0.00  0.00    +0.000 A 
ATOM     14  C   UNL     1      -7.914  12.693  23.162  0.00  0.00    +0.000 A 
ATOM     15  C   UNL     1      -7.262  12.645  21.907  0.00  0.00    +0.000 A 
ATOM     16  C   UNL     1      -5.864  12.836  21.894  0.00  0.00    +0.000 A 
ATOM     17  N   UNL     1      -3.709  11.853  19.035  0.00  0.00    +0.000 NA
ATOM     18  C   UNL     1      -3.754  11.415  17.767  0.00  0.00    +0.000 A 
ATOM     19  N   UNL     1      -2.691  10.826  16.976  0.00  0.00    +0.000 N 
ATOM     20  H   UNL     1      -5.141  11.299  14.863  0.00  0.00    +0.000 HD
ENDROOT
BRANCH  19  21
ATOM     21  C   UNL     1      -1.239  10.953  17.434  0.00  0.00    +0.000 C 
ATOM     22  C   UNL     1      -0.851   9.565  17.960  0.00  0.00    +0.000 C 
ATOM     23  C   UNL     1       0.348   9.423  18.866  0.00  0.00    +0.000 C 
ATOM     24  O   UNL     1       1.196  10.527  19.001  0.00  0.00    +0.000 OA
ATOM     25  C   UNL     1       0.618  11.758  18.991  0.00  0.00    +0.000 A 
ATOM     26  C   UNL     1       1.487  12.706  19.586  0.00  0.00    +0.000 A 
ATOM     27  C   UNL     1       1.225  14.056  19.489  0.00  0.00    +0.000 A 
ATOM     28  C   UNL     1       0.065  14.429  18.819  0.00  0.00    +0.000 A 
ATOM     29 CL   UNL     1      -0.204  16.126  18.623  0.00  0.00    +0.000 Cl
ATOM     30  C   UNL     1      -0.833  13.467  18.242  0.00  0.00    +0.000 A 
ATOM     31  C   UNL     1      -0.583  12.077  18.306  0.00  0.00    +0.000 A 
ENDBRANCH  19  21
TORSDOF 1
ENDMDL
MODEL 3
REMARK VINA RESULT:      -7.0      9.092     12.257
REMARK  Name = 
REMARK  1 active torsions:
REMARK  status: ('A' for Active; 'I' for Inactive)
REMARK    1  A    between atoms: N_19  and  C_20
REMARK                            x       y       z     vdW  Elec       q    Type
REMARK                         _______ _______ _______ _____ _____    ______ ____
ROOT
ATOM      1  O   UNL     1      -7.167  11.095  18.234  0.00  0.00    +0.000 OA
ATOM      2  C   UNL     1      -5.994  11.421  18.277  0.00  0.00    +0.000 A 
ATOM      3  N   UNL     1      -5.047  11.077  17.270  0.00  0.00    +0.000 N 
ATOM      4  C   UNL     1      -3.785  11.437  17.712  0.00  0.00    +0.000 A 
ATOM      5  C   UNL     1      -2.536  11.269  17.195  0.00  0.00    +0.000 A 
ATOM      6  N   UNL     1      -1.414  11.665  17.851  0.00  0.00    +0.000 NA
ATOM      7  C   UNL     1      -1.601  12.164  19.100  0.00  0.00    +0.000 A 
ATOM      8  N   UNL     1      -0.458  12.566  19.873  0.00  0.00    +0.000 N 
ATOM      9  C   UNL     1      -0.506  12.668  21.247  0.00  0.00    +0.000 A 
ATOM     10  N   UNL     1       0.586  13.163  21.778  0.00  0.00    +0.000 NA
ATOM     11  C   UNL     1       1.404  13.398  20.707  0.00  0.00    +0.000 A 
ATOM     12  C   UNL     1       2.674  13.999  20.720  0.00  0.00    +0.000 A 
ATOM     13  C   UNL     1       3.352  14.184  19.516  0.00  0.00    +0.000 A 
ATOM     14  C   UNL     1       2.780  13.753  18.314  0.00  0.00    +0.000 A 
ATOM     15  C   UNL     1       1.510  13.132  18.276  0.00  0.00    +0.000 A 
ATOM     16  C   UNL     1       0.821  12.984  19.499  0.00  0.00    +0.000 A 
ATOM     17  N   UNL     1      -2.825  12.317  19.707  0.00  0.00    +0.000 NA
ATOM     18  C   UNL     1      -3.897  12.009  18.961  0.00  0.00    +0.000 A 
ATOM     19  N   UNL     1      -5.301  12.099  19.314  0.00  0.00    +0.000 N 
ATOM     20  H   UNL     1      -5.259  10.533  16.444  0.00  0.00    +0.000 HD
ENDROOT
BRANCH  19  21
ATOM     21  C   UNL     1      -5.711  12.258  20.777  0.00  0.00    +0.000 C 
ATOM     22  C   UNL     1      -7.013  11.461  20.929  0.00  0.00    +0.000 C 
ATOM     23  C   UNL     1      -7.916  11.731  22.107  0.00  0.00    +0.000 C 
ATOM     24  O   UNL     1      -7.417  12.532  23.140  0.00  0.00    +0.000 OA
ATOM     25  C   UNL     1      -6.598  13.560  22.787  0.00  0.00    +0.000 A 
ATOM     26  C   UNL     1      -6.557  14.524  23.825  0.00  0.00    +0.000 A 
ATOM     27  C   UNL     1      -5.626  15.539  23.802  0.00  0.00    +0.000 A 
ATOM     28  C   UNL     1      -4.768  15.588  22.708  0.00  0.00    +0.000 A 
ATOM     29 CL   UNL     1      -3.545  16.810  22.736  0.00  0.00    +0.000 Cl
ATOM     30  C   UNL     1      -4.830  14.628  21.640  0.00  0.00    +0.000 A 
ATOM     31  C   UNL     1      -5.759  13.563  21.643  0.00  0.00    +0.000 A 
ENDBRANCH  19  21
TORSDOF 1
ENDMDL
MODEL 4
REMARK VINA RESULT:      -6.9      8.416     11.149
REMARK  Name = 
REMARK  1 active torsions:
REMARK  status: ('A' for Active; 'I' for Inactive)
REMARK    1  A    between atoms: N_19  and  C_20
REMARK                            x       y       z     vdW  Elec       q    Type
REMARK                         _______ _______ _______ _____ _____    ______ ____
ROOT
ATOM      1  O   UNL     1       3.090  16.177  23.384  0.00  0.00    +0.000 OA
ATOM      2  C   UNL     1       4.114  15.676  22.956  0.00  0.00    +0.000 A 
ATOM      3  N   UNL     1       5.371  15.767  23.622  0.00  0.00    +0.000 N 
ATOM      4  C   UNL     1       6.350  15.256  22.786  0.00  0.00    +0.000 A 
ATOM      5  C   UNL     1       7.705  15.174  22.883  0.00  0.00    +0.000 A 
ATOM      6  N   UNL     1       8.481  14.671  21.888  0.00  0.00    +0.000 NA
ATOM      7  C   UNL     1       7.833  14.331  20.744  0.00  0.00    +0.000 A 
ATOM      8  N   UNL     1       8.592  13.830  19.630  0.00  0.00    +0.000 N 
ATOM      9  C   UNL     1       8.107  13.870  18.341  0.00  0.00    +0.000 A 
ATOM     10  N   UNL     1       8.875  13.263  17.469  0.00  0.00    +0.000 NA
ATOM     11  C   UNL     1       9.925  12.799  18.212  0.00  0.00    +0.000 A 
ATOM     12  C   UNL     1      11.000  12.009  17.769  0.00  0.00    +0.000 A 
ATOM     13  C   UNL     1      11.969  11.603  18.686  0.00  0.00    +0.000 A 
ATOM     14  C   UNL     1      11.882  12.001  20.023  0.00  0.00    +0.000 A 
ATOM     15  C   UNL     1      10.818  12.808  20.491  0.00  0.00    +0.000 A 
ATOM     16  C   UNL     1       9.826  13.181  19.559  0.00  0.00    +0.000 A 
ATOM     17  N   UNL     1       6.475  14.432  20.553  0.00  0.00    +0.000 NA
ATOM     18  C   UNL     1       5.758  14.833  21.614  0.00  0.00    +0.000 A 
ATOM     19  N   UNL     1       4.322  15.000  21.724  0.00  0.00    +0.000 N 
ATOM     20  H   UNL     1       5.524  16.255  24.495  0.00  0.00    +0.000 HD
ENDROOT
BRANCH  19  21
ATOM     21  C   UNL     1       3.461  15.050  20.463  0.00  0.00    +0.000 C 
ATOM     22  C   UNL     1       3.497  16.511  19.998  0.00  0.00    +0.000 C 
ATOM     23  C   UNL     1       2.441  17.013  19.044  0.00  0.00    +0.000 C 
ATOM     24  O   UNL     1       1.608  16.066  18.438  0.00  0.00    +0.000 OA
ATOM     25  C   UNL     1       1.252  14.986  19.184  0.00  0.00    +0.000 A 
ATOM     26  C   UNL     1       0.087  14.388  18.644  0.00  0.00    +0.000 A 
ATOM     27  C   UNL     1      -0.337  13.153  19.085  0.00  0.00    +0.000 A 
ATOM     28  C   UNL     1       0.406  12.552  20.095  0.00  0.00    +0.000 A 
ATOM     29 CL   UNL     1      -0.080  10.963  20.575  0.00  0.00    +0.000 Cl
ATOM     30  C   UNL     1       1.571  13.172  20.665  0.00  0.00    +0.000 A 
ATOM     31  C   UNL     1       2.043  14.429  20.221  0.00  0.00    +0.000 A 
ENDBRANCH  19  21
TORSDOF 1
ENDMDL
MODEL 5
REMARK VINA RESULT:      -6.7      7.012      9.668
REMARK  Name = 
REMARK  1 active torsions:
REMARK  status: ('A' for Active; 'I' for Inactive)
REMARK    1  A    between atoms: N_19  and  C_20
REMARK                            x       y       z     vdW  Elec       q    Type
REMARK                         _______ _______ _______ _____ _____    ______ ____
ROOT
ATOM      1  O   UNL     1      -2.642  11.756  23.258  0.00  0.00    +0.000 OA
ATOM      2  C   UNL     1      -1.696  12.443  22.920  0.00  0.00    +0.000 A 
ATOM      3  N   UNL     1      -1.475  13.766  23.400  0.00  0.00    +0.000 N 
ATOM      4  C   UNL     1      -0.428  14.325  22.686  0.00  0.00    +0.000 A 
ATOM      5  C   UNL     1       0.134  15.565  22.677  0.00  0.00    +0.000 A 
ATOM      6  N   UNL     1       1.138  15.907  21.829  0.00  0.00    +0.000 NA
ATOM      7  C   UNL     1       1.497  14.963  20.922  0.00  0.00    +0.000 A 
ATOM      8  N   UNL     1       2.524  15.265  19.963  0.00  0.00    +0.000 N 
ATOM      9  C   UNL     1       2.647  14.567  18.780  0.00  0.00    +0.000 A 
ATOM     10  N   UNL     1       3.708  14.892  18.083  0.00  0.00    +0.000 NA
ATOM     11  C   UNL     1       4.322  15.856  18.834  0.00  0.00    +0.000 A 
ATOM     12  C   UNL     1       5.548  16.491  18.571  0.00  0.00    +0.000 A 
ATOM     13  C   UNL     1       6.033  17.436  19.474  0.00  0.00    +0.000 A 
ATOM     14  C   UNL     1       5.292  17.763  20.615  0.00  0.00    +0.000 A 
ATOM     15  C   UNL     1       4.048  17.150  20.894  0.00  0.00    +0.000 A 
ATOM     16  C   UNL     1       3.588  16.170  19.989  0.00  0.00    +0.000 A 
ATOM     17  N   UNL     1       0.942  13.708  20.836  0.00  0.00    +0.000 NA
ATOM     18  C   UNL     1       0.032  13.399  21.774  0.00  0.00    +0.000 A 
ATOM     19  N   UNL     1      -0.691  12.156  21.958  0.00  0.00    +0.000 N 
ATOM     20  H   UNL     1      -2.080  14.250  24.051  0.00  0.00    +0.000 HD
ENDROOT
BRANCH  19  21
ATOM     21  C   UNL     1      -0.728  11.121  20.834  0.00  0.00    +0.000 C 
ATOM     22  C   UNL     1       0.719  10.640  20.671  0.00  0.00    +0.000 C 
ATOM     23  C   UNL     1       1.130   9.942  19.397  0.00  0.00    +0.000 C 
ATOM     24  O   UNL     1       0.119   9.554  18.513  0.00  0.00    +0.000 OA
ATOM     25  C   UNL     1      -0.959  10.375  18.403  0.00  0.00    +0.000 A 
ATOM     26  C   UNL     1      -1.641  10.121  17.187  0.00  0.00    +0.000 A 
ATOM     27  C   UNL     1      -2.886  10.664  16.954  0.00  0.00    +0.000 A 
ATOM     28  C   UNL     1      -3.412  11.488  17.943  0.00  0.00    +0.000 A 
ATOM     29 CL   UNL     1      -5.013  12.087  17.680  0.00  0.00    +0.000 Cl
ATOM     30  C   UNL     1      -2.709  11.771  19.163  0.00  0.00    +0.000 A 
ATOM     31  C   UNL     1      -1.439  11.215  19.442  0.00  0.00    +0.000 A 
ENDBRANCH  19  21
TORSDOF 1
ENDMDL
MODEL 6
REMARK VINA RESULT:      -6.6      5.272      9.297
REMARK  Name = 
REMARK  1 active torsions:
REMARK  status: ('A' for Active; 'I' for Inactive)
REMARK    1  A    between atoms: N_19  and  C_20
REMARK                            x       y       z     vdW  Elec       q    Type
REMARK                         _______ _______ _______ _____ _____    ______ ____
ROOT
ATOM      1  O   UNL     1      -1.164  13.798  22.482  0.00  0.00    +0.000 OA
ATOM      2  C   UNL     1      -0.836  12.682  22.122  0.00  0.00    +0.000 A 
ATOM      3  N   UNL     1      -0.819  11.551  22.988  0.00  0.00    +0.000 N 
ATOM      4  C   UNL     1      -0.227  10.493  22.319  0.00  0.00    +0.000 A 
ATOM      5  C   UNL     1       0.111   9.228  22.694  0.00  0.00    +0.000 A 
ATOM      6  N   UNL     1       0.750   8.365  21.862  0.00  0.00    +0.000 NA
ATOM      7  C   UNL     1       1.115   8.864  20.654  0.00  0.00    +0.000 A 
ATOM      8  N   UNL     1       1.833   8.024  19.734  0.00  0.00    +0.000 N 
ATOM      9  C   UNL     1       2.595   8.546  18.711  0.00  0.00    +0.000 A 
ATOM     10  N   UNL     1       3.079   7.640  17.898  0.00  0.00    +0.000 NA
ATOM     11  C   UNL     1       2.622   6.455  18.405  0.00  0.00    +0.000 A 
ATOM     12  C   UNL     1       2.796   5.170  17.861  0.00  0.00    +0.000 A 
ATOM     13  C   UNL     1       2.227   4.074  18.509  0.00  0.00    +0.000 A 
ATOM     14  C   UNL     1       1.515   4.253  19.699  0.00  0.00    +0.000 A 
ATOM     15  C   UNL     1       1.339   5.533  20.275  0.00  0.00    +0.000 A 
ATOM     16  C   UNL     1       1.890   6.636  19.589  0.00  0.00    +0.000 A 
ATOM     17  N   UNL     1       0.854  10.144  20.224  0.00  0.00    +0.000 NA
ATOM     18  C   UNL     1       0.124  10.908  21.052  0.00  0.00    +0.000 A 
ATOM     19  N   UNL     1      -0.332  12.271  20.859  0.00  0.00    +0.000 N 
ATOM     20  H   UNL     1      -1.068  11.574  23.968  0.00  0.00    +0.000 HD
ENDROOT
BRANCH  19  21
ATOM     21  C   UNL     1       0.289  13.135  19.763  0.00  0.00    +0.000 C 
ATOM     22  C   UNL     1       1.756  12.695  19.674  0.00  0.00    +0.000 C 
ATOM     23  C   UNL     1       2.764  13.600  19.009  0.00  0.00    +0.000 C 
ATOM     24  O   UNL     1       2.278  14.699  18.293  0.00  0.00    +0.000 OA
ATOM     25  C   UNL     1       1.174  15.322  18.785  0.00  0.00    +0.000 A 
ATOM     26  C   UNL     1       1.082  16.634  18.258  0.00  0.00    +0.000 A 
ATOM     27  C   UNL     1      -0.065  17.379  18.427  0.00  0.00    +0.000 A 
ATOM     28  C   UNL     1      -1.095  16.799  19.160  0.00  0.00    +0.000 A 
ATOM     29 CL   UNL     1      -2.562  17.706  19.286  0.00  0.00    +0.000 Cl
ATOM     30  C   UNL     1      -0.991  15.480  19.720  0.00  0.00    +0.000 A 
ATOM     31  C   UNL     1       0.163  14.682  19.548  0.00  0.00    +0.000 A 
ENDBRANCH  19  21
TORSDOF 1
ENDMDL
MODEL 7
REMARK VINA RESULT:      -6.5      7.508     10.197
REMARK  Name = 
REMARK  1 active torsions:
REMARK  status: ('A' for Active; 'I' for Inactive)
REMARK    1  A    between atoms: N_19  and  C_20
REMARK                            x       y       z     vdW  Elec       q    Type
REMARK                         _______ _______ _______ _____ _____    ______ ____
ROOT
ATOM      1  O   UNL     1      -1.919   9.692  16.217  0.00  0.00    +0.000 OA
ATOM      2  C   UNL     1      -2.601  10.290  17.030  0.00  0.00    +0.000 A 
ATOM      3  N   UNL     1      -3.957  10.659  16.799  0.00  0.00    +0.000 N 
ATOM      4  C   UNL     1      -4.373  11.478  17.834  0.00  0.00    +0.000 A 
ATOM      5  C   UNL     1      -5.525  12.165  18.071  0.00  0.00    +0.000 A 
ATOM      6  N   UNL     1      -5.688  12.970  19.153  0.00  0.00    +0.000 NA
ATOM      7  C   UNL     1      -4.599  13.121  19.950  0.00  0.00    +0.000 A 
ATOM      8  N   UNL     1      -4.681  13.990  21.092  0.00  0.00    +0.000 N 
ATOM      9  C   UNL     1      -3.557  14.527  21.683  0.00  0.00    +0.000 A 
ATOM     10  N   UNL     1      -3.806  15.195  22.782  0.00  0.00    +0.000 NA
ATOM     11  C   UNL     1      -5.162  15.103  22.932  0.00  0.00    +0.000 A 
ATOM     12  C   UNL     1      -5.938  15.589  23.998  0.00  0.00    +0.000 A 
ATOM     13  C   UNL     1      -7.315  15.373  23.992  0.00  0.00    +0.000 A 
ATOM     14  C   UNL     1      -7.917  14.702  22.922  0.00  0.00    +0.000 A 
ATOM     15  C   UNL     1      -7.160  14.218  21.829  0.00  0.00    +0.000 A 
ATOM     16  C   UNL     1      -5.763  14.412  21.867  0.00  0.00    +0.000 A 
ATOM     17  N   UNL     1      -3.388  12.501  19.748  0.00  0.00    +0.000 NA
ATOM     18  C   UNL     1      -3.331  11.637  18.723  0.00  0.00    +0.000 A 
ATOM     19  N   UNL     1      -2.214  10.819  18.291  0.00  0.00    +0.000 N 
ATOM     20  H   UNL     1      -4.467  10.464  15.947  0.00  0.00    +0.000 HD
ENDROOT
BRANCH  19  21
ATOM     21  C   UNL     1      -0.805  11.124  18.796  0.00  0.00    +0.000 C 
ATOM     22  C   UNL     1      -0.480  10.015  19.804  0.00  0.00    +0.000 C 
ATOM     23  C   UNL     1       0.635  10.220  20.800  0.00  0.00    +0.000 C 
ATOM     24  O   UNL     1       1.483  11.317  20.611  0.00  0.00    +0.000 OA
ATOM     25  C   UNL     1       0.923  12.456  20.122  0.00  0.00    +0.000 A 
ATOM     26  C   UNL     1       1.750  13.567  20.419  0.00  0.00    +0.000 A 
ATOM     27  C   UNL     1       1.514  14.793  19.834  0.00  0.00    +0.000 A 
ATOM     28  C   UNL     1       0.419  14.888  18.982  0.00  0.00    +0.000 A 
ATOM     29 CL   UNL     1       0.188  16.405  18.184  0.00  0.00    +0.000 Cl
ATOM     30  C   UNL     1      -0.438  13.769  18.705  0.00  0.00    +0.000 A 
ATOM     31  C   UNL     1      -0.212  12.494  19.271  0.00  0.00    +0.000 A 
ENDBRANCH  19  21
TORSDOF 1
ENDMDL
MODEL 8
REMARK VINA RESULT:      -6.5      8.523     10.528
REMARK  Name = 
REMARK  1 active torsions:
REMARK  status: ('A' for Active; 'I' for Inactive)
REMARK    1  A    between atoms: N_19  and  C_20
REMARK                            x       y       z     vdW  Elec       q    Type
REMARK                         _______ _______ _______ _____ _____    ______ ____
ROOT
ATOM      1  O   UNL     1       9.906  13.634  17.454  0.00  0.00    +0.000 OA
ATOM      2  C   UNL     1       9.556  13.463  18.608  0.00  0.00    +0.000 A 
ATOM      3  N   UNL     1       9.835  12.278  19.347  0.00  0.00    +0.000 N 
ATOM      4  C   UNL     1       9.145  12.333  20.546  0.00  0.00    +0.000 A 
ATOM      5  C   UNL     1       8.991  11.451  21.572  0.00  0.00    +0.000 A 
ATOM      6  N   UNL     1       8.201  11.708  22.646  0.00  0.00    +0.000 NA
ATOM      7  C   UNL     1       7.497  12.868  22.600  0.00  0.00    +0.000 A 
ATOM      8  N   UNL     1       6.606  13.191  23.681  0.00  0.00    +0.000 N 
ATOM      9  C   UNL     1       5.569  14.087  23.530  0.00  0.00    +0.000 A 
ATOM     10  N   UNL     1       4.934  14.354  24.645  0.00  0.00    +0.000 NA
ATOM     11  C   UNL     1       5.576  13.598  25.586  0.00  0.00    +0.000 A 
ATOM     12  C   UNL     1       5.334  13.573  26.971  0.00  0.00    +0.000 A 
ATOM     13  C   UNL     1       6.117  12.754  27.784  0.00  0.00    +0.000 A 
ATOM     14  C   UNL     1       7.112  11.949  27.220  0.00  0.00    +0.000 A 
ATOM     15  C   UNL     1       7.365  11.944  25.828  0.00  0.00    +0.000 A 
ATOM     16  C   UNL     1       6.589  12.805  25.024  0.00  0.00    +0.000 A 
ATOM     17  N   UNL     1       7.560  13.785  21.577  0.00  0.00    +0.000 NA
ATOM     18  C   UNL     1       8.443  13.519  20.601  0.00  0.00    +0.000 A 
ATOM     19  N   UNL     1       8.754  14.306  19.424  0.00  0.00    +0.000 N 
ATOM     20  H   UNL     1      10.338  11.479  18.982  0.00  0.00    +0.000 HD
ENDROOT
BRANCH  19  21
ATOM     21  C   UNL     1       7.813  15.428  18.986  0.00  0.00    +0.000 C 
ATOM     22  C   UNL     1       8.395  16.712  19.591  0.00  0.00    +0.000 C 
ATOM     23  C   UNL     1       7.520  17.934  19.721  0.00  0.00    +0.000 C 
ATOM     24  O   UNL     1       6.281  17.920  19.070  0.00  0.00    +0.000 OA
ATOM     25  C   UNL     1       5.619  16.733  19.023  0.00  0.00    +0.000 A 
ATOM     26  C   UNL     1       4.243  16.956  18.773  0.00  0.00    +0.000 A 
ATOM     27  C   UNL     1       3.408  15.906  18.455  0.00  0.00    +0.000 A 
ATOM     28  C   UNL     1       3.971  14.635  18.429  0.00  0.00    +0.000 A 
ATOM     29 CL   UNL     1       2.936  13.339  17.939  0.00  0.00    +0.000 Cl
ATOM     30  C   UNL     1       5.361  14.404  18.713  0.00  0.00    +0.000 A 
ATOM     31  C   UNL     1       6.248  15.461  19.021  0.00  0.00    +0.000 A 
ENDBRANCH  19  21
TORSDOF 1
ENDMDL
MODEL 9
REMARK VINA RESULT:      -6.5      7.594     12.572
REMARK  Name = 
REMARK  1 active torsions:
REMARK  status: ('A' for Active; 'I' for Inactive)
REMARK    1  A    between atoms: N_19  and  C_20
REMARK                            x       y       z     vdW  Elec       q    Type
REMARK                         _______ _______ _______ _____ _____    ______ ____
ROOT
ATOM      1  O   UNL     1      -4.207  17.901  22.738  0.00  0.00    +0.000 OA
ATOM      2  C   UNL     1      -3.443  17.122  22.197  0.00  0.00    +0.000 A 
ATOM      3  N   UNL     1      -2.381  17.532  21.341  0.00  0.00    +0.000 N 
ATOM      4  C   UNL     1      -1.830  16.405  20.753  0.00  0.00    +0.000 A 
ATOM      5  C   UNL     1      -0.864  16.226  19.811  0.00  0.00    +0.000 A 
ATOM      6  N   UNL     1      -0.522  15.000  19.337  0.00  0.00    +0.000 NA
ATOM      7  C   UNL     1      -1.264  13.959  19.794  0.00  0.00    +0.000 A 
ATOM      8  N   UNL     1      -0.991  12.634  19.306  0.00  0.00    +0.000 N 
ATOM      9  C   UNL     1      -1.927  11.625  19.372  0.00  0.00    +0.000 A 
ATOM     10  N   UNL     1      -1.470  10.456  18.995  0.00  0.00    +0.000 NA
ATOM     11  C   UNL     1      -0.166  10.697  18.658  0.00  0.00    +0.000 A 
ATOM     12  C   UNL     1       0.799   9.757  18.257  0.00  0.00    +0.000 A 
ATOM     13  C   UNL     1       2.096  10.189  17.981  0.00  0.00    +0.000 A 
ATOM     14  C   UNL     1       2.420  11.546  18.079  0.00  0.00    +0.000 A 
ATOM     15  C   UNL     1       1.463  12.514  18.465  0.00  0.00    +0.000 A 
ATOM     16  C   UNL     1       0.165  12.056  18.776  0.00  0.00    +0.000 A 
ATOM     17  N   UNL     1      -2.288  14.067  20.705  0.00  0.00    +0.000 NA
ATOM     18  C   UNL     1      -2.499  15.291  21.214  0.00  0.00    +0.000 A 
ATOM     19  N   UNL     1      -3.473  15.702  22.207  0.00  0.00    +0.000 N 
ATOM     20  H   UNL     1      -2.173  18.493  21.103  0.00  0.00    +0.000 HD
ENDROOT
BRANCH  19  21
ATOM     21  C   UNL     1      -4.644  14.784  22.553  0.00  0.00    +0.000 C 
ATOM     22  C   UNL     1      -4.199  14.002  23.796  0.00  0.00    +0.000 C 
ATOM     23  C   UNL     1      -4.914  12.725  24.164  0.00  0.00    +0.000 C 
ATOM     24  O   UNL     1      -6.105  12.429  23.492  0.00  0.00    +0.000 OA
ATOM     25  C   UNL     1      -6.181  12.779  22.181  0.00  0.00    +0.000 A 
ATOM     26  C   UNL     1      -7.197  12.030  21.537  0.00  0.00    +0.000 A 
ATOM     27  C   UNL     1      -7.618  12.365  20.268  0.00  0.00    +0.000 A 
ATOM     28  C   UNL     1      -6.979  13.434  19.650  0.00  0.00    +0.000 A 
ATOM     29 CL   UNL     1      -7.579  13.903  18.097  0.00  0.00    +0.000 Cl
ATOM     30  C   UNL     1      -5.928  14.175  20.291  0.00  0.00    +0.000 A 
ATOM     31  C   UNL     1      -5.486  13.871  21.599  0.00  0.00    +0.000 A 
ENDBRANCH  19  21
TORSDOF 1
ENDMDL
