MODEL 1
REMARK VINA RESULT:      -7.1      0.000      0.000
REMARK  Name = 
REMARK  12 active torsions:
REMARK  status: ('A' for Active; 'I' for Inactive)
REMARK    1  A    between atoms: C_2  and  C_3
REMARK    2  A    between atoms: C_3  and  N_4
REMARK    3  A    between atoms: C_5  and  S_6
REMARK    4  A    between atoms: S_6  and  C_7
REMARK    5  A    between atoms: C_7  and  C_8
REMARK    6  A    between atoms: N_10  and  C_11
REMARK    7  A    between atoms: C_11  and  C_12
REMARK    8  A    between atoms: C_12  and  C_13
REMARK    9  A    between atoms: C_12  and  N_19
REMARK   10  A    between atoms: N_19  and  C_20
REMARK   11  A    between atoms: N_19  and  C_21
REMARK   12  A    between atoms: C_24  and  C_25
REMARK                            x       y       z     vdW  Elec       q    Type
REMARK                         _______ _______ _______ _____ _____    ______ ____
ROOT
ATOM      1  C   UNL     1       1.816   7.729  20.946  0.00  0.00    +0.000 C 
ENDROOT
BRANCH   1   2
ATOM      2  C   UNL     1       1.975   6.246  20.610  0.00  0.00    +0.000 C 
ATOM      3  O   UNL     1       1.107   5.396  20.793  0.00  0.00    +0.000 OA
ATOM      4  N   UNL     1       3.211   5.904  20.073  0.00  0.00    +0.000 N 
ATOM      5  H   UNL     1       3.877   6.615  19.808  0.00  0.00    +0.000 HD
BRANCH   4   6
ATOM      6  C   UNL     1       3.485   4.524  19.690  0.00  0.00    +0.000 C 
BRANCH   6   7
ATOM      7  C   UNL     1       3.316   4.191  18.166  0.00  0.00    +0.000 C 
BRANCH   7   8
ATOM      8  C   UNL     1       4.704   4.302  17.516  0.00  0.00    +0.000 A 
ATOM      9  C   UNL     1       5.859   4.548  18.275  0.00  0.00    +0.000 A 
ATOM     10  C   UNL     1       7.102   4.686  17.655  0.00  0.00    +0.000 A 
ATOM     11  C   UNL     1       7.204   4.605  16.268  0.00  0.00    +0.000 A 
ATOM     12  C   UNL     1       6.066   4.377  15.497  0.00  0.00    +0.000 A 
ATOM     13  C   UNL     1       4.826   4.221  16.118  0.00  0.00    +0.000 A 
ENDBRANCH   7   8
BRANCH   7  14
ATOM     14  N   UNL     1       2.625   2.896  17.873  0.00  0.00    +0.000 NA
ATOM     15  C   UNL     1       3.368   1.755  18.444  0.00  0.00    +0.000 C 
ATOM     16  C   UNL     1       1.273   2.859  18.457  0.00  0.00    +0.000 C 
ENDBRANCH   7  14
ENDBRANCH   6   7
ENDBRANCH   4   6
ENDBRANCH   1   2
BRANCH   1  17
ATOM     17  S   UNL     1       0.108   8.146  21.472  0.00  0.00    +0.000 S 
BRANCH  17  19
ATOM     18  N   UNL     1       0.218  10.633  20.214  0.00  0.00    +0.000 N 
ATOM     19  C   UNL     1       0.155   9.875  21.380  0.00  0.00    +0.000 A 
ATOM     20  N   UNL     1       0.136  10.655  22.426  0.00  0.00    +0.000 NA
ATOM     21  N   UNL     1       0.131  11.934  21.971  0.00  0.00    +0.000 NA
ATOM     22  C   UNL     1       0.233  11.949  20.645  0.00  0.00    +0.000 A 
BRANCH  22  23
ATOM     23  C   UNL     1       0.349  13.295  19.937  0.00  0.00    +0.000 C 
ATOM     24  C   UNL     1       1.267  14.163  20.827  0.00  0.00    +0.000 C 
ATOM     25  C   UNL     1       2.693  13.627  20.693  0.00  0.00    +0.000 C 
ATOM     26  C   UNL     1       3.229  14.102  19.362  0.00  0.00    +0.000 C 
ATOM     27  C   UNL     1       2.338  13.654  18.202  0.00  0.00    +0.000 C 
ATOM     28  C   UNL     1       0.827  13.468  18.483  0.00  0.00    +0.000 C 
ENDBRANCH  22  23
BRANCH  18  29
ATOM     29  C   UNL     1       0.100  10.124  18.864  0.00  0.00    +0.000 C 
BRANCH  29  31
ATOM     30  C   UNL     1       1.997   8.805  17.745  0.00  0.00    +0.000 C 
ATOM     31  C   UNL     1       1.383   9.942  18.099  0.00  0.00    +0.000 C 
ENDBRANCH  29  31
ENDBRANCH  18  29
ENDBRANCH  17  19
ENDBRANCH   1  17
TORSDOF 10
ENDMDL
MODEL 2
REMARK VINA RESULT:      -7.0      5.470      9.815
REMARK  Name = 
REMARK  12 active torsions:
REMARK  status: ('A' for Active; 'I' for Inactive)
REMARK    1  A    between atoms: C_2  and  C_3
REMARK    2  A    between atoms: C_3  and  N_4
REMARK    3  A    between atoms: C_5  and  S_6
REMARK    4  A    between atoms: S_6  and  C_7
REMARK    5  A    between atoms: C_7  and  C_8
REMARK    6  A    between atoms: N_10  and  C_11
REMARK    7  A    between atoms: C_11  and  C_12
REMARK    8  A    between atoms: C_12  and  C_13
REMARK    9  A    between atoms: C_12  and  N_19
REMARK   10  A    between atoms: N_19  and  C_20
REMARK   11  A    between atoms: N_19  and  C_21
REMARK   12  A    between atoms: C_24  and  C_25
REMARK                            x       y       z     vdW  Elec       q    Type
REMARK                         _______ _______ _______ _____ _____    ______ ____
ROOT
ATOM      1  C   UNL     1       7.343   8.095  17.412  0.00  0.00    +0.000 C 
ENDROOT
BRANCH   1   2
ATOM      2  C   UNL     1       8.366   8.646  18.406  0.00  0.00    +0.000 C 
ATOM      3  O   UNL     1       8.907   7.980  19.285  0.00  0.00    +0.000 OA
ATOM      4  N   UNL     1       8.650   9.998  18.253  0.00  0.00    +0.000 N 
ATOM      5  H   UNL     1       8.303  10.515  17.459  0.00  0.00    +0.000 HD
BRANCH   4   6
ATOM      6  C   UNL     1       9.625  10.643  19.126  0.00  0.00    +0.000 C 
BRANCH   6   7
ATOM      7  C   UNL     1       9.530  12.206  19.219  0.00  0.00    +0.000 C 
BRANCH   7   8
ATOM      8  C   UNL     1       9.240  12.561  20.685  0.00  0.00    +0.000 A 
ATOM      9  C   UNL     1       8.738  11.614  21.591  0.00  0.00    +0.000 A 
ATOM     10  C   UNL     1       8.444  11.974  22.907  0.00  0.00    +0.000 A 
ATOM     11  C   UNL     1       8.624  13.289  23.329  0.00  0.00    +0.000 A 
ATOM     12  C   UNL     1       9.108  14.246  22.439  0.00  0.00    +0.000 A 
ATOM     13  C   UNL     1       9.419  13.883  21.128  0.00  0.00    +0.000 A 
ENDBRANCH   7   8
BRANCH   7  14
ATOM     14  N   UNL     1      10.698  12.947  18.647  0.00  0.00    +0.000 NA
ATOM     15  C   UNL     1      11.700  12.013  18.093  0.00  0.00    +0.000 C 
ATOM     16  C   UNL     1      10.291  13.837  17.546  0.00  0.00    +0.000 C 
ENDBRANCH   7  14
ENDBRANCH   6   7
ENDBRANCH   4   6
ENDBRANCH   1   2
BRANCH   1  17
ATOM     17  S   UNL     1       7.488   6.278  17.196  0.00  0.00    +0.000 S 
BRANCH  17  19
ATOM     18  N   UNL     1       4.847   5.385  17.088  0.00  0.00    +0.000 N 
ATOM     19  C   UNL     1       5.964   5.754  17.833  0.00  0.00    +0.000 A 
ATOM     20  N   UNL     1       5.710   5.654  19.109  0.00  0.00    +0.000 NA
ATOM     21  N   UNL     1       4.449   5.169  19.228  0.00  0.00    +0.000 NA
ATOM     22  C   UNL     1       3.889   5.047  18.028  0.00  0.00    +0.000 A 
BRANCH  22  23
ATOM     23  C   UNL     1       2.429   4.612  17.945  0.00  0.00    +0.000 C 
ATOM     24  C   UNL     1       2.435   3.243  17.227  0.00  0.00    +0.000 C 
ATOM     25  C   UNL     1       3.006   2.208  18.198  0.00  0.00    +0.000 C 
ATOM     26  C   UNL     1       1.919   1.883  19.197  0.00  0.00    +0.000 C 
ATOM     27  C   UNL     1       1.425   3.136  19.923  0.00  0.00    +0.000 C 
ATOM     28  C   UNL     1       1.495   4.483  19.164  0.00  0.00    +0.000 C 
ENDBRANCH  22  23
BRANCH  18  29
ATOM     29  C   UNL     1       4.802   5.222  15.651  0.00  0.00    +0.000 C 
BRANCH  29  31
ATOM     30  C   UNL     1       6.182   3.934  13.910  0.00  0.00    +0.000 C 
ATOM     31  C   UNL     1       5.544   4.042  15.083  0.00  0.00    +0.000 C 
ENDBRANCH  29  31
ENDBRANCH  18  29
ENDBRANCH  17  19
ENDBRANCH   1  17
TORSDOF 10
ENDMDL
MODEL 3
REMARK VINA RESULT:      -6.9      2.884      4.771
REMARK  Name = 
REMARK  12 active torsions:
REMARK  status: ('A' for Active; 'I' for Inactive)
REMARK    1  A    between atoms: C_2  and  C_3
REMARK    2  A    between atoms: C_3  and  N_4
REMARK    3  A    between atoms: C_5  and  S_6
REMARK    4  A    between atoms: S_6  and  C_7
REMARK    5  A    between atoms: C_7  and  C_8
REMARK    6  A    between atoms: N_10  and  C_11
REMARK    7  A    between atoms: C_11  and  C_12
REMARK    8  A    between atoms: C_12  and  C_13
REMARK    9  A    between atoms: C_12  and  N_19
REMARK   10  A    between atoms: N_19  and  C_20
REMARK   11  A    between atoms: N_19  and  C_21
REMARK   12  A    between atoms: C_24  and  C_25
REMARK                            x       y       z     vdW  Elec       q    Type
REMARK                         _______ _______ _______ _____ _____    ______ ____
ROOT
ATOM      1  C   UNL     1       1.073  10.186  19.487  0.00  0.00    +0.000 C 
ENDROOT
BRANCH   1   2
ATOM      2  C   UNL     1       1.795   9.285  18.485  0.00  0.00    +0.000 C 
ATOM      3  O   UNL     1       2.032   9.593  17.320  0.00  0.00    +0.000 OA
ATOM      4  N   UNL     1       2.174   8.046  18.991  0.00  0.00    +0.000 N 
ATOM      5  H   UNL     1       2.092   7.840  19.975  0.00  0.00    +0.000 HD
BRANCH   4   6
ATOM      6  C   UNL     1       2.888   7.098  18.143  0.00  0.00    +0.000 C 
BRANCH   6   7
ATOM      7  C   UNL     1       3.665   5.960  18.894  0.00  0.00    +0.000 C 
BRANCH   7   8
ATOM      8  C   UNL     1       2.666   4.825  19.164  0.00  0.00    +0.000 A 
ATOM      9  C   UNL     1       2.203   3.987  18.138  0.00  0.00    +0.000 A 
ATOM     10  C   UNL     1       1.263   2.990  18.403  0.00  0.00    +0.000 A 
ATOM     11  C   UNL     1       0.755   2.832  19.691  0.00  0.00    +0.000 A 
ATOM     12  C   UNL     1       1.192   3.665  20.719  0.00  0.00    +0.000 A 
ATOM     13  C   UNL     1       2.145   4.651  20.458  0.00  0.00    +0.000 A 
ENDBRANCH   7   8
BRANCH   7  14
ATOM     14  N   UNL     1       4.921   5.501  18.222  0.00  0.00    +0.000 NA
ATOM     15  C   UNL     1       5.420   6.518  17.276  0.00  0.00    +0.000 C 
ATOM     16  C   UNL     1       6.000   5.258  19.195  0.00  0.00    +0.000 C 
ENDBRANCH   7  14
ENDBRANCH   6   7
ENDBRANCH   4   6
ENDBRANCH   1   2
BRANCH   1  17
ATOM     17  S   UNL     1       1.311  11.968  19.119  0.00  0.00    +0.000 S 
BRANCH  17  19
ATOM     18  N   UNL     1      -0.619  12.508  21.060  0.00  0.00    +0.000 N 
ATOM     19  C   UNL     1       0.668  12.685  20.560  0.00  0.00    +0.000 A 
ATOM     20  N   UNL     1       1.349  13.483  21.336  0.00  0.00    +0.000 NA
ATOM     21  N   UNL     1       0.548  13.801  22.384  0.00  0.00    +0.000 NA
ATOM     22  C   UNL     1      -0.660  13.269  22.215  0.00  0.00    +0.000 A 
BRANCH  22  23
ATOM     23  C   UNL     1      -1.748  13.593  23.234  0.00  0.00    +0.000 C 
ATOM     24  C   UNL     1      -2.250  15.012  22.882  0.00  0.00    +0.000 C 
ATOM     25  C   UNL     1      -3.063  14.914  21.590  0.00  0.00    +0.000 C 
ATOM     26  C   UNL     1      -4.410  14.330  21.950  0.00  0.00    +0.000 C 
ATOM     27  C   UNL     1      -4.271  12.973  22.643  0.00  0.00    +0.000 C 
ATOM     28  C   UNL     1      -2.992  12.717  23.477  0.00  0.00    +0.000 C 
ENDBRANCH  22  23
BRANCH  18  29
ATOM     29  C   UNL     1      -1.604  11.575  20.556  0.00  0.00    +0.000 C 
BRANCH  29  31
ATOM     30  C   UNL     1      -2.362  11.699  18.106  0.00  0.00    +0.000 C 
ATOM     31  C   UNL     1      -2.444  12.042  19.398  0.00  0.00    +0.000 C 
ENDBRANCH  29  31
ENDBRANCH  18  29
ENDBRANCH  17  19
ENDBRANCH   1  17
TORSDOF 10
ENDMDL
MODEL 4
REMARK VINA RESULT:      -6.8      2.475      3.353
REMARK  Name = 
REMARK  12 active torsions:
REMARK  status: ('A' for Active; 'I' for Inactive)
REMARK    1  A    between atoms: C_2  and  C_3
REMARK    2  A    between atoms: C_3  and  N_4
REMARK    3  A    between atoms: C_5  and  S_6
REMARK    4  A    between atoms: S_6  and  C_7
REMARK    5  A    between atoms: C_7  and  C_8
REMARK    6  A    between atoms: N_10  and  C_11
REMARK    7  A    between atoms: C_11  and  C_12
REMARK    8  A    between atoms: C_12  and  C_13
REMARK    9  A    between atoms: C_12  and  N_19
REMARK   10  A    between atoms: N_19  and  C_20
REMARK   11  A    between atoms: N_19  and  C_21
REMARK   12  A    between atoms: C_24  and  C_25
REMARK                            x       y       z     vdW  Elec       q    Type
REMARK                         _______ _______ _______ _____ _____    ______ ____
ROOT
ATOM      1  C   UNL     1       0.984   9.288  18.318  0.00  0.00    +0.000 C 
ENDROOT
BRANCH   1   2
ATOM      2  C   UNL     1       2.184   8.360  18.131  0.00  0.00    +0.000 C 
ATOM      3  O   UNL     1       3.008   8.466  17.226  0.00  0.00    +0.000 OA
ATOM      4  N   UNL     1       2.284   7.346  19.077  0.00  0.00    +0.000 N 
ATOM      5  H   UNL     1       1.683   7.333  19.888  0.00  0.00    +0.000 HD
BRANCH   4   6
ATOM      6  C   UNL     1       3.396   6.404  19.024  0.00  0.00    +0.000 C 
BRANCH   6   7
ATOM      7  C   UNL     1       3.237   5.216  18.012  0.00  0.00    +0.000 C 
BRANCH   7   8
ATOM      8  C   UNL     1       4.558   5.094  17.238  0.00  0.00    +0.000 A 
ATOM      9  C   UNL     1       5.580   6.048  17.361  0.00  0.00    +0.000 A 
ATOM     10  C   UNL     1       6.753   5.936  16.614  0.00  0.00    +0.000 A 
ATOM     11  C   UNL     1       6.912   4.882  15.717  0.00  0.00    +0.000 A 
ATOM     12  C   UNL     1       5.902   3.933  15.570  0.00  0.00    +0.000 A 
ATOM     13  C   UNL     1       4.736   4.036  16.329  0.00  0.00    +0.000 A 
ENDBRANCH   7   8
BRANCH   7  14
ATOM     14  N   UNL     1       2.780   3.925  18.617  0.00  0.00    +0.000 NA
ATOM     15  C   UNL     1       2.902   3.955  20.088  0.00  0.00    +0.000 C 
ATOM     16  C   UNL     1       1.365   3.653  18.313  0.00  0.00    +0.000 C 
ENDBRANCH   7  14
ENDBRANCH   6   7
ENDBRANCH   4   6
ENDBRANCH   1   2
BRANCH   1  17
ATOM     17  S   UNL     1       1.484  10.989  18.793  0.00  0.00    +0.000 S 
BRANCH  17  19
ATOM     18  N   UNL     1      -0.601  11.868  20.424  0.00  0.00    +0.000 N 
ATOM     19  C   UNL     1       0.602  11.184  20.271  0.00  0.00    +0.000 A 
ATOM     20  N   UNL     1       0.994  10.696  21.416  0.00  0.00    +0.000 NA
ATOM     21  N   UNL     1       0.036  11.000  22.329  0.00  0.00    +0.000 NA
ATOM     22  C   UNL     1      -0.909  11.749  21.769  0.00  0.00    +0.000 A 
BRANCH  22  23
ATOM     23  C   UNL     1      -2.031  12.288  22.651  0.00  0.00    +0.000 C 
ATOM     24  C   UNL     1      -1.431  13.494  23.410  0.00  0.00    +0.000 C 
ATOM     25  C   UNL     1      -1.257  14.638  22.409  0.00  0.00    +0.000 C 
ATOM     26  C   UNL     1      -2.625  15.236  22.169  0.00  0.00    +0.000 C 
ATOM     27  C   UNL     1      -3.621  14.187  21.671  0.00  0.00    +0.000 C 
ATOM     28  C   UNL     1      -3.412  12.722  22.123  0.00  0.00    +0.000 C 
ENDBRANCH  22  23
BRANCH  18  29
ATOM     29  C   UNL     1      -1.413  12.407  19.354  0.00  0.00    +0.000 C 
BRANCH  29  31
ATOM     30  C   UNL     1      -3.696  11.611  18.491  0.00  0.00    +0.000 C 
ATOM     31  C   UNL     1      -2.381  11.459  18.701  0.00  0.00    +0.000 C 
ENDBRANCH  29  31
ENDBRANCH  18  29
ENDBRANCH  17  19
ENDBRANCH   1  17
TORSDOF 10
ENDMDL
MODEL 5
REMARK VINA RESULT:      -6.7      5.393     10.006
REMARK  Name = 
REMARK  12 active torsions:
REMARK  status: ('A' for Active; 'I' for Inactive)
REMARK    1  A    between atoms: C_2  and  C_3
REMARK    2  A    between atoms: C_3  and  N_4
REMARK    3  A    between atoms: C_5  and  S_6
REMARK    4  A    between atoms: S_6  and  C_7
REMARK    5  A    between atoms: C_7  and  C_8
REMARK    6  A    between atoms: N_10  and  C_11
REMARK    7  A    between atoms: C_11  and  C_12
REMARK    8  A    between atoms: C_12  and  C_13
REMARK    9  A    between atoms: C_12  and  N_19
REMARK   10  A    between atoms: N_19  and  C_20
REMARK   11  A    between atoms: N_19  and  C_21
REMARK   12  A    between atoms: C_24  and  C_25
REMARK                            x       y       z     vdW  Elec       q    Type
REMARK                         _______ _______ _______ _____ _____    ______ ____
ROOT
ATOM      1  C   UNL     1       7.208   8.731  17.658  0.00  0.00    +0.000 C 
ENDROOT
BRANCH   1   2
ATOM      2  C   UNL     1       8.430   9.410  18.278  0.00  0.00    +0.000 C 
ATOM      3  O   UNL     1       9.135   8.908  19.149  0.00  0.00    +0.000 OA
ATOM      4  N   UNL     1       8.700  10.681  17.782  0.00  0.00    +0.000 N 
ATOM      5  H   UNL     1       8.199  11.043  16.984  0.00  0.00    +0.000 HD
BRANCH   4   6
ATOM      6  C   UNL     1       9.850  11.429  18.275  0.00  0.00    +0.000 C 
BRANCH   6   7
ATOM      7  C   UNL     1       9.614  12.960  18.525  0.00  0.00    +0.000 C 
BRANCH   7   8
ATOM      8  C   UNL     1       9.071  13.113  19.954  0.00  0.00    +0.000 A 
ATOM      9  C   UNL     1       8.143  14.111  20.291  0.00  0.00    +0.000 A 
ATOM     10  C   UNL     1       7.699  14.254  21.606  0.00  0.00    +0.000 A 
ATOM     11  C   UNL     1       8.193  13.418  22.606  0.00  0.00    +0.000 A 
ATOM     12  C   UNL     1       9.126  12.432  22.292  0.00  0.00    +0.000 A 
ATOM     13  C   UNL     1       9.557  12.277  20.974  0.00  0.00    +0.000 A 
ENDBRANCH   7   8
BRANCH   7  14
ATOM     14  N   UNL     1      10.791  13.838  18.238  0.00  0.00    +0.000 NA
ATOM     15  C   UNL     1      11.655  13.245  17.198  0.00  0.00    +0.000 C 
ATOM     16  C   UNL     1      10.375  15.161  17.742  0.00  0.00    +0.000 C 
ENDBRANCH   7  14
ENDBRANCH   6   7
ENDBRANCH   4   6
ENDBRANCH   1   2
BRANCH   1  17
ATOM     17  S   UNL     1       7.625   7.124  16.876  0.00  0.00    +0.000 S 
BRANCH  17  19
ATOM     18  N   UNL     1       5.705   5.228  17.583  0.00  0.00    +0.000 N 
ATOM     19  C   UNL     1       6.791   6.027  17.927  0.00  0.00    +0.000 A 
ATOM     20  N   UNL     1       7.111   5.842  19.178  0.00  0.00    +0.000 NA
ATOM     21  N   UNL     1       6.283   4.884  19.665  0.00  0.00    +0.000 NA
ATOM     22  C   UNL     1       5.393   4.534  18.740  0.00  0.00    +0.000 A 
BRANCH  22  23
ATOM     23  C   UNL     1       4.301   3.539  19.118  0.00  0.00    +0.000 C 
ATOM     24  C   UNL     1       3.175   4.374  19.770  0.00  0.00    +0.000 C 
ATOM     25  C   UNL     1       2.486   5.176  18.666  0.00  0.00    +0.000 C 
ATOM     26  C   UNL     1       1.588   4.222  17.910  0.00  0.00    +0.000 C 
ATOM     27  C   UNL     1       2.372   3.034  17.350  0.00  0.00    +0.000 C 
ATOM     28  C   UNL     1       3.631   2.571  18.122  0.00  0.00    +0.000 C 
ENDBRANCH  22  23
BRANCH  18  29
ATOM     29  C   UNL     1       5.171   5.049  16.249  0.00  0.00    +0.000 C 
BRANCH  29  31
ATOM     30  C   UNL     1       6.084   3.928  14.127  0.00  0.00    +0.000 C 
ATOM     31  C   UNL     1       6.169   4.784  15.154  0.00  0.00    +0.000 C 
ENDBRANCH  29  31
ENDBRANCH  18  29
ENDBRANCH  17  19
ENDBRANCH   1  17
TORSDOF 10
ENDMDL
MODEL 6
REMARK VINA RESULT:      -6.7      1.943      3.022
REMARK  Name = 
REMARK  12 active torsions:
REMARK  status: ('A' for Active; 'I' for Inactive)
REMARK    1  A    between atoms: C_2  and  C_3
REMARK    2  A    between atoms: C_3  and  N_4
REMARK    3  A    between atoms: C_5  and  S_6
REMARK    4  A    between atoms: S_6  and  C_7
REMARK    5  A    between atoms: C_7  and  C_8
REMARK    6  A    between atoms: N_10  and  C_11
REMARK    7  A    between atoms: C_11  and  C_12
REMARK    8  A    between atoms: C_12  and  C_13
REMARK    9  A    between atoms: C_12  and  N_19
REMARK   10  A    between atoms: N_19  and  C_20
REMARK   11  A    between atoms: N_19  and  C_21
REMARK   12  A    between atoms: C_24  and  C_25
REMARK                            x       y       z     vdW  Elec       q    Type
REMARK                         _______ _______ _______ _____ _____    ______ ____
ROOT
ATOM      1  C   UNL     1       1.574   8.395  19.317  0.00  0.00    +0.000 C 
ENDROOT
BRANCH   1   2
ATOM      2  C   UNL     1       2.665   7.390  18.947  0.00  0.00    +0.000 C 
ATOM      3  O   UNL     1       3.388   7.483  17.959  0.00  0.00    +0.000 OA
ATOM      4  N   UNL     1       2.787   6.319  19.826  0.00  0.00    +0.000 N 
ATOM      5  H   UNL     1       2.282   6.306  20.700  0.00  0.00    +0.000 HD
BRANCH   4   6
ATOM      6  C   UNL     1       3.804   5.299  19.599  0.00  0.00    +0.000 C 
BRANCH   6   7
ATOM      7  C   UNL     1       3.555   4.345  18.378  0.00  0.00    +0.000 C 
BRANCH   7   8
ATOM      8  C   UNL     1       4.840   4.335  17.536  0.00  0.00    +0.000 A 
ATOM      9  C   UNL     1       6.083   4.698  18.077  0.00  0.00    +0.000 A 
ATOM     10  C   UNL     1       7.227   4.720  17.279  0.00  0.00    +0.000 A 
ATOM     11  C   UNL     1       7.141   4.403  15.924  0.00  0.00    +0.000 A 
ATOM     12  C   UNL     1       5.913   4.054  15.367  0.00  0.00    +0.000 A 
ATOM     13  C   UNL     1       4.771   4.015  16.169  0.00  0.00    +0.000 A 
ENDBRANCH   7   8
BRANCH   7  14
ATOM     14  N   UNL     1       3.065   2.977  18.734  0.00  0.00    +0.000 NA
ATOM     15  C   UNL     1       3.695   2.493  19.978  0.00  0.00    +0.000 C 
ATOM     16  C   UNL     1       1.609   2.963  18.960  0.00  0.00    +0.000 C 
ENDBRANCH   7  14
ENDBRANCH   6   7
ENDBRANCH   4   6
ENDBRANCH   1   2
BRANCH   1  17
ATOM     17  S   UNL     1       1.563   9.854  18.203  0.00  0.00    +0.000 S 
BRANCH  17  19
ATOM     18  N   UNL     1       0.071  11.831  19.485  0.00  0.00    +0.000 N 
ATOM     19  C   UNL     1       0.125  10.658  18.737  0.00  0.00    +0.000 A 
ATOM     20  N   UNL     1      -1.080  10.227  18.483  0.00  0.00    +0.000 NA
ATOM     21  N   UNL     1      -1.946  11.131  19.008  0.00  0.00    +0.000 NA
ATOM     22  C   UNL     1      -1.280  12.078  19.661  0.00  0.00    +0.000 A 
BRANCH  22  23
ATOM     23  C   UNL     1      -2.074  13.140  20.416  0.00  0.00    +0.000 C 
ATOM     24  C   UNL     1      -2.577  12.455  21.707  0.00  0.00    +0.000 C 
ATOM     25  C   UNL     1      -1.375  12.260  22.633  0.00  0.00    +0.000 C 
ATOM     26  C   UNL     1      -1.062  13.603  23.252  0.00  0.00    +0.000 C 
ATOM     27  C   UNL     1      -0.795  14.668  22.185  0.00  0.00    +0.000 C 
ATOM     28  C   UNL     1      -1.509  14.516  20.820  0.00  0.00    +0.000 C 
ENDBRANCH  22  23
BRANCH  18  29
ATOM     29  C   UNL     1       1.197  12.676  19.821  0.00  0.00    +0.000 C 
BRANCH  29  31
ATOM     30  C   UNL     1       1.487  15.034  18.848  0.00  0.00    +0.000 C 
ATOM     31  C   UNL     1       1.599  13.700  18.795  0.00  0.00    +0.000 C 
ENDBRANCH  29  31
ENDBRANCH  18  29
ENDBRANCH  17  19
ENDBRANCH   1  17
TORSDOF 10
ENDMDL
MODEL 7
REMARK VINA RESULT:      -6.7      2.204      4.089
REMARK  Name = 
REMARK  12 active torsions:
REMARK  status: ('A' for Active; 'I' for Inactive)
REMARK    1  A    between atoms: C_2  and  C_3
REMARK    2  A    between atoms: C_3  and  N_4
REMARK    3  A    between atoms: C_5  and  S_6
REMARK    4  A    between atoms: S_6  and  C_7
REMARK    5  A    between atoms: C_7  and  C_8
REMARK    6  A    between atoms: N_10  and  C_11
REMARK    7  A    between atoms: C_11  and  C_12
REMARK    8  A    between atoms: C_12  and  C_13
REMARK    9  A    between atoms: C_12  and  N_19
REMARK   10  A    between atoms: N_19  and  C_20
REMARK   11  A    between atoms: N_19  and  C_21
REMARK   12  A    between atoms: C_24  and  C_25
REMARK                            x       y       z     vdW  Elec       q    Type
REMARK                         _______ _______ _______ _____ _____    ______ ____
ROOT
ATOM      1  C   UNL     1       1.439   4.473  19.409  0.00  0.00    +0.000 C 
ENDROOT
BRANCH   1   2
ATOM      2  C   UNL     1       2.292   3.983  18.238  0.00  0.00    +0.000 C 
ATOM      3  O   UNL     1       1.859   3.336  17.288  0.00  0.00    +0.000 OA
ATOM      4  N   UNL     1       3.638   4.318  18.323  0.00  0.00    +0.000 N 
ATOM      5  H   UNL     1       3.971   4.952  19.035  0.00  0.00    +0.000 HD
BRANCH   4   6
ATOM      6  C   UNL     1       4.557   3.928  17.260  0.00  0.00    +0.000 C 
BRANCH   6   7
ATOM      7  C   UNL     1       5.137   5.100  16.393  0.00  0.00    +0.000 C 
BRANCH   7   8
ATOM      8  C   UNL     1       6.211   5.805  17.235  0.00  0.00    +0.000 A 
ATOM      9  C   UNL     1       6.542   7.154  17.034  0.00  0.00    +0.000 A 
ATOM     10  C   UNL     1       7.552   7.759  17.785  0.00  0.00    +0.000 A 
ATOM     11  C   UNL     1       8.259   7.018  18.730  0.00  0.00    +0.000 A 
ATOM     12  C   UNL     1       7.954   5.674  18.932  0.00  0.00    +0.000 A 
ATOM     13  C   UNL     1       6.933   5.073  18.194  0.00  0.00    +0.000 A 
ENDBRANCH   7   8
BRANCH   7  14
ATOM     14  N   UNL     1       5.614   4.704  15.031  0.00  0.00    +0.000 NA
ATOM     15  C   UNL     1       6.988   5.187  14.787  0.00  0.00    +0.000 C 
ATOM     16  C   UNL     1       5.643   3.239  14.870  0.00  0.00    +0.000 C 
ENDBRANCH   7  14
ENDBRANCH   6   7
ENDBRANCH   4   6
ENDBRANCH   1   2
BRANCH   1  17
ATOM     17  S   UNL     1       2.315   5.714  20.439  0.00  0.00    +0.000 S 
BRANCH  17  19
ATOM     18  N   UNL     1       1.644   8.374  19.933  0.00  0.00    +0.000 N 
ATOM     19  C   UNL     1       2.102   7.140  19.479  0.00  0.00    +0.000 A 
ATOM     20  N   UNL     1       2.355   7.195  18.200  0.00  0.00    +0.000 NA
ATOM     21  N   UNL     1       2.124   8.471  17.801  0.00  0.00    +0.000 NA
ATOM     22  C   UNL     1       1.645   9.188  18.814  0.00  0.00    +0.000 A 
BRANCH  22  23
ATOM     23  C   UNL     1       1.220  10.630  18.551  0.00  0.00    +0.000 C 
ATOM     24  C   UNL     1      -0.187  10.547  17.916  0.00  0.00    +0.000 C 
ATOM     25  C   UNL     1      -1.172  10.135  19.011  0.00  0.00    +0.000 C 
ATOM     26  C   UNL     1      -1.430  11.356  19.865  0.00  0.00    +0.000 C 
ATOM     27  C   UNL     1      -0.134  11.924  20.446  0.00  0.00    +0.000 C 
ATOM     28  C   UNL     1       1.168  11.726  19.633  0.00  0.00    +0.000 C 
ENDBRANCH  22  23
BRANCH  18  29
ATOM     29  C   UNL     1       1.411   8.736  21.316  0.00  0.00    +0.000 C 
BRANCH  29  31
ATOM     30  C   UNL     1      -0.590   9.208  22.853  0.00  0.00    +0.000 C 
ATOM     31  C   UNL     1       0.001   8.592  21.821  0.00  0.00    +0.000 C 
ENDBRANCH  29  31
ENDBRANCH  18  29
ENDBRANCH  17  19
ENDBRANCH   1  17
TORSDOF 10
ENDMDL
MODEL 8
REMARK VINA RESULT:      -6.7      1.988      2.590
REMARK  Name = 
REMARK  12 active torsions:
REMARK  status: ('A' for Active; 'I' for Inactive)
REMARK    1  A    between atoms: C_2  and  C_3
REMARK    2  A    between atoms: C_3  and  N_4
REMARK    3  A    between atoms: C_5  and  S_6
REMARK    4  A    between atoms: S_6  and  C_7
REMARK    5  A    between atoms: C_7  and  C_8
REMARK    6  A    between atoms: N_10  and  C_11
REMARK    7  A    between atoms: C_11  and  C_12
REMARK    8  A    between atoms: C_12  and  C_13
REMARK    9  A    between atoms: C_12  and  N_19
REMARK   10  A    between atoms: N_19  and  C_20
REMARK   11  A    between atoms: N_19  and  C_21
REMARK   12  A    between atoms: C_24  and  C_25
REMARK                            x       y       z     vdW  Elec       q    Type
REMARK                         _______ _______ _______ _____ _____    ______ ____
ROOT
ATOM      1  C   UNL     1       0.739   7.165  21.084  0.00  0.00    +0.000 C 
ENDROOT
BRANCH   1   2
ATOM      2  C   UNL     1       1.545   5.958  20.604  0.00  0.00    +0.000 C 
ATOM      3  O   UNL     1       1.183   4.791  20.722  0.00  0.00    +0.000 OA
ATOM      4  N   UNL     1       2.763   6.275  20.012  0.00  0.00    +0.000 N 
ATOM      5  H   UNL     1       3.005   7.232  19.804  0.00  0.00    +0.000 HD
BRANCH   4   6
ATOM      6  C   UNL     1       3.621   5.216  19.494  0.00  0.00    +0.000 C 
BRANCH   6   7
ATOM      7  C   UNL     1       4.156   5.423  18.033  0.00  0.00    +0.000 C 
BRANCH   7   8
ATOM      8  C   UNL     1       5.600   5.937  18.143  0.00  0.00    +0.000 A 
ATOM      9  C   UNL     1       6.501   5.417  19.086  0.00  0.00    +0.000 A 
ATOM     10  C   UNL     1       7.794   5.931  19.193  0.00  0.00    +0.000 A 
ATOM     11  C   UNL     1       8.197   6.986  18.377  0.00  0.00    +0.000 A 
ATOM     12  C   UNL     1       7.311   7.524  17.446  0.00  0.00    +0.000 A 
ATOM     13  C   UNL     1       6.023   6.999  17.326  0.00  0.00    +0.000 A 
ENDBRANCH   7   8
BRANCH   7  14
ATOM     14  N   UNL     1       4.013   4.237  17.132  0.00  0.00    +0.000 NA
ATOM     15  C   UNL     1       5.177   4.110  16.232  0.00  0.00    +0.000 C 
ATOM     16  C   UNL     1       3.927   2.981  17.897  0.00  0.00    +0.000 C 
ENDBRANCH   7  14
ENDBRANCH   6   7
ENDBRANCH   4   6
ENDBRANCH   1   2
BRANCH   1  17
ATOM     17  S   UNL     1       1.723   8.714  21.066  0.00  0.00    +0.000 S 
BRANCH  17  19
ATOM     18  N   UNL     1      -0.059  10.853  21.247  0.00  0.00    +0.000 N 
ATOM     19  C   UNL     1       0.627   9.803  21.851  0.00  0.00    +0.000 A 
ATOM     20  N   UNL     1       0.333   9.741  23.121  0.00  0.00    +0.000 NA
ATOM     21  N   UNL     1      -0.588  10.707  23.365  0.00  0.00    +0.000 NA
ATOM     22  C   UNL     1      -0.802  11.425  22.266  0.00  0.00    +0.000 A 
BRANCH  22  23
ATOM     23  C   UNL     1      -1.731  12.632  22.353  0.00  0.00    +0.000 C 
ATOM     24  C   UNL     1      -0.929  13.730  23.088  0.00  0.00    +0.000 C 
ATOM     25  C   UNL     1       0.149  14.244  22.132  0.00  0.00    +0.000 C 
ATOM     26  C   UNL     1      -0.532  15.154  21.135  0.00  0.00    +0.000 C 
ATOM     27  C   UNL     1      -1.660  14.435  20.392  0.00  0.00    +0.000 C 
ATOM     28  C   UNL     1      -2.400  13.296  21.134  0.00  0.00    +0.000 C 
ENDBRANCH  22  23
BRANCH  18  29
ATOM     29  C   UNL     1      -0.104  11.133  19.828  0.00  0.00    +0.000 C 
BRANCH  29  31
ATOM     30  C   UNL     1      -1.282  10.104  17.792  0.00  0.00    +0.000 C 
ATOM     31  C   UNL     1      -1.252  10.534  19.060  0.00  0.00    +0.000 C 
ENDBRANCH  29  31
ENDBRANCH  18  29
ENDBRANCH  17  19
ENDBRANCH   1  17
TORSDOF 10
ENDMDL
MODEL 9
REMARK VINA RESULT:      -6.7      3.031      5.079
REMARK  Name = 
REMARK  12 active torsions:
REMARK  status: ('A' for Active; 'I' for Inactive)
REMARK    1  A    between atoms: C_2  and  C_3
REMARK    2  A    between atoms: C_3  and  N_4
REMARK    3  A    between atoms: C_5  and  S_6
REMARK    4  A    between atoms: S_6  and  C_7
REMARK    5  A    between atoms: C_7  and  C_8
REMARK    6  A    between atoms: N_10  and  C_11
REMARK    7  A    between atoms: C_11  and  C_12
REMARK    8  A    between atoms: C_12  and  C_13
REMARK    9  A    between atoms: C_12  and  N_19
REMARK   10  A    between atoms: N_19  and  C_20
REMARK   11  A    between atoms: N_19  and  C_21
REMARK   12  A    between atoms: C_24  and  C_25
REMARK                            x       y       z     vdW  Elec       q    Type
REMARK                         _______ _______ _______ _____ _____    ______ ____
ROOT
ATOM      1  C   UNL     1       0.538   9.693  19.339  0.00  0.00    +0.000 C 
ENDROOT
BRANCH   1   2
ATOM      2  C   UNL     1       1.635   9.088  18.463  0.00  0.00    +0.000 C 
ATOM      3  O   UNL     1       2.090   9.621  17.454  0.00  0.00    +0.000 OA
ATOM      4  N   UNL     1       2.098   7.848  18.890  0.00  0.00    +0.000 N 
ATOM      5  H   UNL     1       1.816   7.469  19.782  0.00  0.00    +0.000 HD
BRANCH   4   6
ATOM      6  C   UNL     1       3.159   7.171  18.154  0.00  0.00    +0.000 C 
BRANCH   6   7
ATOM      7  C   UNL     1       3.819   5.945  18.878  0.00  0.00    +0.000 C 
BRANCH   7   8
ATOM      8  C   UNL     1       2.703   4.930  19.167  0.00  0.00    +0.000 A 
ATOM      9  C   UNL     1       2.242   4.686  20.471  0.00  0.00    +0.000 A 
ATOM     10  C   UNL     1       1.257   3.728  20.710  0.00  0.00    +0.000 A 
ATOM     11  C   UNL     1       0.734   2.984  19.654  0.00  0.00    +0.000 A 
ATOM     12  C   UNL     1       1.190   3.202  18.355  0.00  0.00    +0.000 A 
ATOM     13  C   UNL     1       2.163   4.172  18.113  0.00  0.00    +0.000 A 
ENDBRANCH   7   8
BRANCH   7  14
ATOM     14  N   UNL     1       4.996   5.350  18.171  0.00  0.00    +0.000 NA
ATOM     15  C   UNL     1       5.297   6.087  16.927  0.00  0.00    +0.000 C 
ATOM     16  C   UNL     1       6.211   5.402  19.002  0.00  0.00    +0.000 C 
ENDBRANCH   7  14
ENDBRANCH   6   7
ENDBRANCH   4   6
ENDBRANCH   1   2
BRANCH   1  17
ATOM     17  S   UNL     1       0.881  11.442  19.779  0.00  0.00    +0.000 S 
BRANCH  17  19
ATOM     18  N   UNL     1      -1.144  12.944  20.972  0.00  0.00    +0.000 N 
ATOM     19  C   UNL     1      -0.729  12.043  19.995  0.00  0.00    +0.000 A 
ATOM     20  N   UNL     1      -1.736  11.698  19.241  0.00  0.00    +0.000 NA
ATOM     21  N   UNL     1      -2.815  12.401  19.669  0.00  0.00    +0.000 NA
ATOM     22  C   UNL     1      -2.498  13.119  20.742  0.00  0.00    +0.000 A 
BRANCH  22  23
ATOM     23  C   UNL     1      -3.599  13.907  21.445  0.00  0.00    +0.000 C 
ATOM     24  C   UNL     1      -4.390  12.875  22.281  0.00  0.00    +0.000 C 
ATOM     25  C   UNL     1      -3.514  12.458  23.463  0.00  0.00    +0.000 C 
ATOM     26  C   UNL     1      -3.558  13.582  24.474  0.00  0.00    +0.000 C 
ATOM     27  C   UNL     1      -3.103  14.909  23.864  0.00  0.00    +0.000 C 
ATOM     28  C   UNL     1      -3.345  15.128  22.350  0.00  0.00    +0.000 C 
ENDBRANCH  22  23
BRANCH  18  29
ATOM     29  C   UNL     1      -0.281  13.661  21.887  0.00  0.00    +0.000 C 
BRANCH  29  31
ATOM     30  C   UNL     1      -0.065  16.091  21.088  0.00  0.00    +0.000 C 
ATOM     31  C   UNL     1       0.426  14.870  21.338  0.00  0.00    +0.000 C 
ENDBRANCH  29  31
ENDBRANCH  18  29
ENDBRANCH  17  19
ENDBRANCH   1  17
TORSDOF 10
ENDMDL
