MODEL 1
REMARK VINA RESULT:      -8.4      0.000      0.000
REMARK  Name = 
REMARK  8 active torsions:
REMARK  status: ('A' for Active; 'I' for Inactive)
REMARK    1  A    between atoms: C_1  and  O_2
REMARK    2  A    between atoms: O_2  and  C_3
REMARK    3  A    between atoms: C_3  and  C_5
REMARK    4  A    between atoms: C_7  and  C_8
REMARK    5  A    between atoms: C_8  and  N_9
REMARK    6  A    between atoms: C_8  and  C_20
REMARK    7  A    between atoms: C_10  and  O_12
REMARK    8  A    between atoms: O_12  and  C_13
REMARK                            x       y       z     vdW  Elec       q    Type
REMARK                         _______ _______ _______ _____ _____    ______ ____
ROOT
ATOM      1  C   UNL     1       2.740   5.329  19.609  0.00  0.00    +0.000 C 
ENDROOT
BRANCH   1   2
ATOM      2  C   UNL     1       2.315   6.773  19.283  0.00  0.00    +0.000 A 
ATOM      3  C   UNL     1       2.563   7.307  18.006  0.00  0.00    +0.000 A 
ATOM      4  C   UNL     1       2.204   8.625  17.692  0.00  0.00    +0.000 A 
ATOM      5  C   UNL     1       1.596   9.441  18.643  0.00  0.00    +0.000 A 
ATOM      6  C   UNL     1       1.339   8.937  19.910  0.00  0.00    +0.000 A 
ATOM      7  C   UNL     1       1.678   7.617  20.219  0.00  0.00    +0.000 A 
ENDBRANCH   1   2
BRANCH   1   8
ATOM      8  N   UNL     1       4.106   5.303  20.100  0.00  0.00    +0.000 N 
ATOM      9  C   UNL     1       5.232   5.049  19.378  0.00  0.00    +0.000 C 
ATOM     10  O   UNL     1       6.274   5.626  19.652  0.00  0.00    +0.000 OA
ATOM     11  H   UNL     1       4.334   5.837  20.918  0.00  0.00    +0.000 HD
BRANCH   9  12
ATOM     12  O   UNL     1       5.108   3.989  18.501  0.00  0.00    +0.000 OA
BRANCH  12  13
ATOM     13  C   UNL     1       5.614   4.262  17.210  0.00  0.00    +0.000 A 
ATOM     14  C   UNL     1       4.786   4.474  16.101  0.00  0.00    +0.000 A 
ATOM     15  C   UNL     1       5.346   4.784  14.866  0.00  0.00    +0.000 A 
ATOM     16  C   UNL     1       6.720   4.920  14.754  0.00  0.00    +0.000 A 
ATOM     17  F   UNL     1       7.256   5.225  13.563  0.00  0.00    +0.000 F 
ATOM     18  C   UNL     1       7.549   4.759  15.861  0.00  0.00    +0.000 A 
ATOM     19  C   UNL     1       6.996   4.430  17.103  0.00  0.00    +0.000 A 
ENDBRANCH  12  13
ENDBRANCH   9  12
ENDBRANCH   1   8
BRANCH   1  22
ATOM     20  C   UNL     1       1.128   3.396  20.561  0.00  0.00    +0.000 C 
ATOM     21  C   UNL     1       2.316   3.543  21.469  0.00  0.00    +0.000 C 
ATOM     22  C   UNL     1       1.841   4.741  20.670  0.00  0.00    +0.000 C 
BRANCH  20  23
ATOM     23  C   UNL     1       1.173   2.582  19.321  0.00  0.00    +0.000 C 
ATOM     24  O   UNL     1       0.253   2.515  18.518  0.00  0.00    +0.000 OA
BRANCH  23  26
ATOM     25  C   UNL     1       2.928   1.766  17.950  0.00  0.00    +0.000 C 
ATOM     26  O   UNL     1       2.353   1.916  19.248  0.00  0.00    +0.000 OA
ENDBRANCH  23  26
ENDBRANCH  20  23
ENDBRANCH   1  22
TORSDOF 7
ENDMDL
MODEL 2
REMARK VINA RESULT:      -8.4      0.432      1.051
REMARK  Name = 
REMARK  8 active torsions:
REMARK  status: ('A' for Active; 'I' for Inactive)
REMARK    1  A    between atoms: C_1  and  O_2
REMARK    2  A    between atoms: O_2  and  C_3
REMARK    3  A    between atoms: C_3  and  C_5
REMARK    4  A    between atoms: C_7  and  C_8
REMARK    5  A    between atoms: C_8  and  N_9
REMARK    6  A    between atoms: C_8  and  C_20
REMARK    7  A    between atoms: C_10  and  O_12
REMARK    8  A    between atoms: O_12  and  C_13
REMARK                            x       y       z     vdW  Elec       q    Type
REMARK                         _______ _______ _______ _____ _____    ______ ____
ROOT
ATOM      1  C   UNL     1       2.797   5.617  19.368  0.00  0.00    +0.000 C 
ENDROOT
BRANCH   1   2
ATOM      2  C   UNL     1       2.356   7.075  19.139  0.00  0.00    +0.000 A 
ATOM      3  C   UNL     1       1.722   7.788  20.171  0.00  0.00    +0.000 A 
ATOM      4  C   UNL     1       1.292   9.108  19.980  0.00  0.00    +0.000 A 
ATOM      5  C   UNL     1       1.479   9.744  18.755  0.00  0.00    +0.000 A 
ATOM      6  C   UNL     1       2.104   9.063  17.721  0.00  0.00    +0.000 A 
ATOM      7  C   UNL     1       2.551   7.753  17.916  0.00  0.00    +0.000 A 
ENDBRANCH   1   2
BRANCH   1   8
ATOM      8  N   UNL     1       4.123   5.576  19.956  0.00  0.00    +0.000 N 
ATOM      9  C   UNL     1       5.282   5.216  19.340  0.00  0.00    +0.000 C 
ATOM     10  O   UNL     1       6.330   5.771  19.640  0.00  0.00    +0.000 OA
ATOM     11  H   UNL     1       4.320   6.167  20.742  0.00  0.00    +0.000 HD
BRANCH   9  12
ATOM     12  O   UNL     1       5.169   4.092  18.545  0.00  0.00    +0.000 OA
BRANCH  12  13
ATOM     13  C   UNL     1       5.617   4.290  17.220  0.00  0.00    +0.000 A 
ATOM     14  C   UNL     1       4.740   4.453  16.140  0.00  0.00    +0.000 A 
ATOM     15  C   UNL     1       5.244   4.691  14.865  0.00  0.00    +0.000 A 
ATOM     16  C   UNL     1       6.613   4.803  14.683  0.00  0.00    +0.000 A 
ATOM     17  F   UNL     1       7.095   5.038  13.454  0.00  0.00    +0.000 F 
ATOM     18  C   UNL     1       7.492   4.690  15.757  0.00  0.00    +0.000 A 
ATOM     19  C   UNL     1       6.994   4.434  17.039  0.00  0.00    +0.000 A 
ENDBRANCH  12  13
ENDBRANCH   9  12
ENDBRANCH   1   8
BRANCH   1  22
ATOM     20  C   UNL     1       1.231   3.539  20.053  0.00  0.00    +0.000 C 
ATOM     21  C   UNL     1       2.313   3.706  21.083  0.00  0.00    +0.000 C 
ATOM     22  C   UNL     1       1.839   4.916  20.302  0.00  0.00    +0.000 C 
BRANCH  20  23
ATOM     23  C   UNL     1       1.449   2.800  18.785  0.00  0.00    +0.000 C 
ATOM     24  O   UNL     1       1.058   3.192  17.694  0.00  0.00    +0.000 OA
BRANCH  23  26
ATOM     25  C   UNL     1       3.366   1.460  18.392  0.00  0.00    +0.000 C 
ATOM     26  O   UNL     1       2.104   1.638  19.033  0.00  0.00    +0.000 OA
ENDBRANCH  23  26
ENDBRANCH  20  23
ENDBRANCH   1  22
TORSDOF 7
ENDMDL
MODEL 3
REMARK VINA RESULT:      -8.2      3.388      7.133
REMARK  Name = 
REMARK  8 active torsions:
REMARK  status: ('A' for Active; 'I' for Inactive)
REMARK    1  A    between atoms: C_1  and  O_2
REMARK    2  A    between atoms: O_2  and  C_3
REMARK    3  A    between atoms: C_3  and  C_5
REMARK    4  A    between atoms: C_7  and  C_8
REMARK    5  A    between atoms: C_8  and  N_9
REMARK    6  A    between atoms: C_8  and  C_20
REMARK    7  A    between atoms: C_10  and  O_12
REMARK    8  A    between atoms: O_12  and  C_13
REMARK                            x       y       z     vdW  Elec       q    Type
REMARK                         _______ _______ _______ _____ _____    ______ ____
ROOT
ATOM      1  C   UNL     1       5.782   4.591  16.003  0.00  0.00    +0.000 C 
ENDROOT
BRANCH   1   2
ATOM      2  C   UNL     1       6.247   4.421  14.545  0.00  0.00    +0.000 A 
ATOM      3  C   UNL     1       7.329   5.174  14.060  0.00  0.00    +0.000 A 
ATOM      4  C   UNL     1       7.757   5.053  12.730  0.00  0.00    +0.000 A 
ATOM      5  C   UNL     1       7.112   4.183  11.855  0.00  0.00    +0.000 A 
ATOM      6  C   UNL     1       6.042   3.425  12.310  0.00  0.00    +0.000 A 
ATOM      7  C   UNL     1       5.626   3.531  13.640  0.00  0.00    +0.000 A 
ENDBRANCH   1   2
BRANCH   1   8
ATOM      8  N   UNL     1       4.903   3.502  16.385  0.00  0.00    +0.000 N 
ATOM      9  C   UNL     1       3.649   3.605  16.905  0.00  0.00    +0.000 C 
ATOM     10  O   UNL     1       2.799   2.773  16.616  0.00  0.00    +0.000 OA
ATOM     11  H   UNL     1       5.020   2.610  15.941  0.00  0.00    +0.000 HD
BRANCH   9  12
ATOM     12  O   UNL     1       3.524   4.572  17.882  0.00  0.00    +0.000 OA
BRANCH  12  13
ATOM     13  C   UNL     1       2.863   4.117  19.046  0.00  0.00    +0.000 A 
ATOM     14  C   UNL     1       1.528   4.433  19.331  0.00  0.00    +0.000 A 
ATOM     15  C   UNL     1       0.921   3.916  20.471  0.00  0.00    +0.000 A 
ATOM     16  C   UNL     1       1.632   3.058  21.293  0.00  0.00    +0.000 A 
ATOM     17  F   UNL     1       1.041   2.557  22.388  0.00  0.00    +0.000 F 
ATOM     18  C   UNL     1       2.944   2.699  20.993  0.00  0.00    +0.000 A 
ATOM     19  C   UNL     1       3.568   3.228  19.859  0.00  0.00    +0.000 A 
ENDBRANCH  12  13
ENDBRANCH   9  12
ENDBRANCH   1   8
BRANCH   1  22
ATOM     20  C   UNL     1       7.483   5.822  17.689  0.00  0.00    +0.000 C 
ATOM     21  C   UNL     1       6.741   4.745  18.430  0.00  0.00    +0.000 C 
ATOM     22  C   UNL     1       6.969   4.596  16.939  0.00  0.00    +0.000 C 
BRANCH  20  23
ATOM     23  C   UNL     1       6.910   7.173  17.470  0.00  0.00    +0.000 C 
ATOM     24  O   UNL     1       5.722   7.436  17.590  0.00  0.00    +0.000 OA
BRANCH  23  26
ATOM     25  C   UNL     1       8.243   9.056  18.024  0.00  0.00    +0.000 C 
ATOM     26  O   UNL     1       7.889   8.034  17.093  0.00  0.00    +0.000 OA
ENDBRANCH  23  26
ENDBRANCH  20  23
ENDBRANCH   1  22
TORSDOF 7
ENDMDL
MODEL 4
REMARK VINA RESULT:      -7.8      3.409      7.200
REMARK  Name = 
REMARK  8 active torsions:
REMARK  status: ('A' for Active; 'I' for Inactive)
REMARK    1  A    between atoms: C_1  and  O_2
REMARK    2  A    between atoms: O_2  and  C_3
REMARK    3  A    between atoms: C_3  and  C_5
REMARK    4  A    between atoms: C_7  and  C_8
REMARK    5  A    between atoms: C_8  and  N_9
REMARK    6  A    between atoms: C_8  and  C_20
REMARK    7  A    between atoms: C_10  and  O_12
REMARK    8  A    between atoms: O_12  and  C_13
REMARK                            x       y       z     vdW  Elec       q    Type
REMARK                         _______ _______ _______ _____ _____    ______ ____
ROOT
ATOM      1  C   UNL     1       5.854   4.582  16.121  0.00  0.00    +0.000 C 
ENDROOT
BRANCH   1   2
ATOM      2  C   UNL     1       6.361   4.501  14.669  0.00  0.00    +0.000 A 
ATOM      3  C   UNL     1       7.428   5.314  14.251  0.00  0.00    +0.000 A 
ATOM      4  C   UNL     1       7.893   5.274  12.929  0.00  0.00    +0.000 A 
ATOM      5  C   UNL     1       7.300   4.428  11.994  0.00  0.00    +0.000 A 
ATOM      6  C   UNL     1       6.247   3.613  12.383  0.00  0.00    +0.000 A 
ATOM      7  C   UNL     1       5.795   3.638  13.705  0.00  0.00    +0.000 A 
ENDBRANCH   1   2
BRANCH   1   8
ATOM      8  N   UNL     1       4.885   3.533  16.378  0.00  0.00    +0.000 N 
ATOM      9  C   UNL     1       3.644   3.678  16.919  0.00  0.00    +0.000 C 
ATOM     10  O   UNL     1       2.728   2.961  16.541  0.00  0.00    +0.000 OA
ATOM     11  H   UNL     1       4.927   2.694  15.830  0.00  0.00    +0.000 HD
BRANCH   9  12
ATOM     12  O   UNL     1       3.602   4.528  18.006  0.00  0.00    +0.000 OA
BRANCH  12  13
ATOM     13  C   UNL     1       2.960   3.970  19.135  0.00  0.00    +0.000 A 
ATOM     14  C   UNL     1       3.588   3.053  19.988  0.00  0.00    +0.000 A 
ATOM     15  C   UNL     1       2.917   2.575  21.109  0.00  0.00    +0.000 A 
ATOM     16  C   UNL     1       1.644   3.043  21.393  0.00  0.00    +0.000 A 
ATOM     17  F   UNL     1       1.002   2.585  22.478  0.00  0.00    +0.000 F 
ATOM     18  C   UNL     1       1.029   3.990  20.578  0.00  0.00    +0.000 A 
ATOM     19  C   UNL     1       1.690   4.463  19.440  0.00  0.00    +0.000 A 
ENDBRANCH  12  13
ENDBRANCH   9  12
ENDBRANCH   1   8
BRANCH   1  22
ATOM     20  C   UNL     1       7.673   5.563  17.846  0.00  0.00    +0.000 C 
ATOM     21  C   UNL     1       6.757   4.619  18.574  0.00  0.00    +0.000 C 
ATOM     22  C   UNL     1       7.002   4.420  17.091  0.00  0.00    +0.000 C 
BRANCH  20  23
ATOM     23  C   UNL     1       7.317   6.982  17.601  0.00  0.00    +0.000 C 
ATOM     24  O   UNL     1       6.419   7.338  16.851  0.00  0.00    +0.000 OA
BRANCH  23  26
ATOM     25  C   UNL     1       8.209   9.161  17.890  0.00  0.00    +0.000 C 
ATOM     26  O   UNL     1       8.150   7.795  18.298  0.00  0.00    +0.000 OA
ENDBRANCH  23  26
ENDBRANCH  20  23
ENDBRANCH   1  22
TORSDOF 7
ENDMDL
MODEL 5
REMARK VINA RESULT:      -7.8      2.938      5.967
REMARK  Name = 
REMARK  8 active torsions:
REMARK  status: ('A' for Active; 'I' for Inactive)
REMARK    1  A    between atoms: C_1  and  O_2
REMARK    2  A    between atoms: O_2  and  C_3
REMARK    3  A    between atoms: C_3  and  C_5
REMARK    4  A    between atoms: C_7  and  C_8
REMARK    5  A    between atoms: C_8  and  N_9
REMARK    6  A    between atoms: C_8  and  C_20
REMARK    7  A    between atoms: C_10  and  O_12
REMARK    8  A    between atoms: O_12  and  C_13
REMARK                            x       y       z     vdW  Elec       q    Type
REMARK                         _______ _______ _______ _____ _____    ______ ____
ROOT
ATOM      1  C   UNL     1       4.618   5.466  17.457  0.00  0.00    +0.000 C 
ENDROOT
BRANCH   1   2
ATOM      2  C   UNL     1       3.623   6.440  18.114  0.00  0.00    +0.000 A 
ATOM      3  C   UNL     1       3.104   6.161  19.389  0.00  0.00    +0.000 A 
ATOM      4  C   UNL     1       2.180   7.022  19.999  0.00  0.00    +0.000 A 
ATOM      5  C   UNL     1       1.751   8.176  19.348  0.00  0.00    +0.000 A 
ATOM      6  C   UNL     1       2.251   8.476  18.089  0.00  0.00    +0.000 A 
ATOM      7  C   UNL     1       3.186   7.629  17.488  0.00  0.00    +0.000 A 
ENDBRANCH   1   2
BRANCH   1   8
ATOM      8  N   UNL     1       3.917   4.525  16.604  0.00  0.00    +0.000 N 
ATOM      9  C   UNL     1       3.197   3.439  16.998  0.00  0.00    +0.000 C 
ATOM     10  O   UNL     1       2.198   3.110  16.373  0.00  0.00    +0.000 OA
ATOM     11  H   UNL     1       3.610   4.832  15.699  0.00  0.00    +0.000 HD
BRANCH   9  12
ATOM     12  O   UNL     1       3.805   2.693  17.988  0.00  0.00    +0.000 OA
BRANCH  12  13
ATOM     13  C   UNL     1       3.061   2.634  19.188  0.00  0.00    +0.000 A 
ATOM     14  C   UNL     1       3.663   2.537  20.449  0.00  0.00    +0.000 A 
ATOM     15  C   UNL     1       2.875   2.530  21.596  0.00  0.00    +0.000 A 
ATOM     16  C   UNL     1       1.501   2.660  21.480  0.00  0.00    +0.000 A 
ATOM     17  F   UNL     1       0.745   2.658  22.589  0.00  0.00    +0.000 F 
ATOM     18  C   UNL     1       0.896   2.805  20.235  0.00  0.00    +0.000 A 
ATOM     19  C   UNL     1       1.679   2.796  19.076  0.00  0.00    +0.000 A 
ENDBRANCH  12  13
ENDBRANCH   9  12
ENDBRANCH   1   8
BRANCH   1  22
ATOM     20  C   UNL     1       7.114   6.311  16.908  0.00  0.00    +0.000 C 
ATOM     21  C   UNL     1       6.622   5.448  15.780  0.00  0.00    +0.000 C 
ATOM     22  C   UNL     1       5.619   6.220  16.614  0.00  0.00    +0.000 C 
BRANCH  20  23
ATOM     23  C   UNL     1       7.708   5.742  18.143  0.00  0.00    +0.000 C 
ATOM     24  O   UNL     1       7.754   4.544  18.385  0.00  0.00    +0.000 OA
BRANCH  23  26
ATOM     25  C   UNL     1       8.319   8.024  18.350  0.00  0.00    +0.000 C 
ATOM     26  O   UNL     1       8.145   6.741  18.950  0.00  0.00    +0.000 OA
ENDBRANCH  23  26
ENDBRANCH  20  23
ENDBRANCH   1  22
TORSDOF 7
ENDMDL
MODEL 6
REMARK VINA RESULT:      -7.7      0.647      1.402
REMARK  Name = 
REMARK  8 active torsions:
REMARK  status: ('A' for Active; 'I' for Inactive)
REMARK    1  A    between atoms: C_1  and  O_2
REMARK    2  A    between atoms: O_2  and  C_3
REMARK    3  A    between atoms: C_3  and  C_5
REMARK    4  A    between atoms: C_7  and  C_8
REMARK    5  A    between atoms: C_8  and  N_9
REMARK    6  A    between atoms: C_8  and  C_20
REMARK    7  A    between atoms: C_10  and  O_12
REMARK    8  A    between atoms: O_12  and  C_13
REMARK                            x       y       z     vdW  Elec       q    Type
REMARK                         _______ _______ _______ _____ _____    ______ ____
ROOT
ATOM      1  C   UNL     1       2.818   5.410  19.411  0.00  0.00    +0.000 C 
ENDROOT
BRANCH   1   2
ATOM      2  C   UNL     1       2.381   6.864  19.151  0.00  0.00    +0.000 A 
ATOM      3  C   UNL     1       2.633   7.460  17.903  0.00  0.00    +0.000 A 
ATOM      4  C   UNL     1       2.264   8.789  17.650  0.00  0.00    +0.000 A 
ATOM      5  C   UNL     1       1.642   9.552  18.634  0.00  0.00    +0.000 A 
ATOM      6  C   UNL     1       1.379   8.986  19.873  0.00  0.00    +0.000 A 
ATOM      7  C   UNL     1       1.729   7.655  20.122  0.00  0.00    +0.000 A 
ENDBRANCH   1   2
BRANCH   1   8
ATOM      8  N   UNL     1       4.155   5.376  19.974  0.00  0.00    +0.000 N 
ATOM      9  C   UNL     1       5.318   5.125  19.311  0.00  0.00    +0.000 C 
ATOM     10  O   UNL     1       6.345   5.698  19.645  0.00  0.00    +0.000 OA
ATOM     11  H   UNL     1       4.340   5.904  20.807  0.00  0.00    +0.000 HD
BRANCH   9  12
ATOM     12  O   UNL     1       5.239   4.072  18.421  0.00  0.00    +0.000 OA
BRANCH  12  13
ATOM     13  C   UNL     1       5.766   4.371  17.145  0.00  0.00    +0.000 A 
ATOM     14  C   UNL     1       7.132   4.589  16.921  0.00  0.00    +0.000 A 
ATOM     15  C   UNL     1       7.593   4.834  15.631  0.00  0.00    +0.000 A 
ATOM     16  C   UNL     1       6.700   4.820  14.573  0.00  0.00    +0.000 A 
ATOM     17  F   UNL     1       7.149   5.051  13.330  0.00  0.00    +0.000 F 
ATOM     18  C   UNL     1       5.348   4.558  14.778  0.00  0.00    +0.000 A 
ATOM     19  C   UNL     1       4.873   4.327  16.073  0.00  0.00    +0.000 A 
ENDBRANCH  12  13
ENDBRANCH   9  12
ENDBRANCH   1   8
BRANCH   1  22
ATOM     20  C   UNL     1       1.815   3.239  20.645  0.00  0.00    +0.000 C 
ATOM     21  C   UNL     1       2.422   4.156  21.670  0.00  0.00    +0.000 C 
ATOM     22  C   UNL     1       1.875   4.741  20.383  0.00  0.00    +0.000 C 
BRANCH  20  23
ATOM     23  C   UNL     1       2.626   2.272  19.865  0.00  0.00    +0.000 C 
ATOM     24  O   UNL     1       3.825   2.100  20.032  0.00  0.00    +0.000 OA
BRANCH  23  26
ATOM     25  C   UNL     1       0.609   2.286  18.617  0.00  0.00    +0.000 C 
ATOM     26  O   UNL     1       1.847   1.655  18.940  0.00  0.00    +0.000 OA
ENDBRANCH  23  26
ENDBRANCH  20  23
ENDBRANCH   1  22
TORSDOF 7
ENDMDL
MODEL 7
REMARK VINA RESULT:      -7.7      0.680      1.690
REMARK  Name = 
REMARK  8 active torsions:
REMARK  status: ('A' for Active; 'I' for Inactive)
REMARK    1  A    between atoms: C_1  and  O_2
REMARK    2  A    between atoms: O_2  and  C_3
REMARK    3  A    between atoms: C_3  and  C_5
REMARK    4  A    between atoms: C_7  and  C_8
REMARK    5  A    between atoms: C_8  and  N_9
REMARK    6  A    between atoms: C_8  and  C_20
REMARK    7  A    between atoms: C_10  and  O_12
REMARK    8  A    between atoms: O_12  and  C_13
REMARK                            x       y       z     vdW  Elec       q    Type
REMARK                         _______ _______ _______ _____ _____    ______ ____
ROOT
ATOM      1  C   UNL     1       2.793   5.504  19.301  0.00  0.00    +0.000 C 
ENDROOT
BRANCH   1   2
ATOM      2  C   UNL     1       2.364   6.966  19.079  0.00  0.00    +0.000 A 
ATOM      3  C   UNL     1       1.745   7.683  20.118  0.00  0.00    +0.000 A 
ATOM      4  C   UNL     1       1.326   9.008  19.933  0.00  0.00    +0.000 A 
ATOM      5  C   UNL     1       1.511   9.645  18.708  0.00  0.00    +0.000 A 
ATOM      6  C   UNL     1       2.123   8.961  17.668  0.00  0.00    +0.000 A 
ATOM      7  C   UNL     1       2.558   7.646  17.856  0.00  0.00    +0.000 A 
ENDBRANCH   1   2
BRANCH   1   8
ATOM      8  N   UNL     1       4.105   5.449  19.918  0.00  0.00    +0.000 N 
ATOM      9  C   UNL     1       5.287   5.165  19.306  0.00  0.00    +0.000 C 
ATOM     10  O   UNL     1       6.313   5.720  19.674  0.00  0.00    +0.000 OA
ATOM     11  H   UNL     1       4.268   5.982  20.752  0.00  0.00    +0.000 HD
BRANCH   9  12
ATOM     12  O   UNL     1       5.222   4.103  18.425  0.00  0.00    +0.000 OA
BRANCH  12  13
ATOM     13  C   UNL     1       5.754   4.394  17.149  0.00  0.00    +0.000 A 
ATOM     14  C   UNL     1       7.120   4.616  16.930  0.00  0.00    +0.000 A 
ATOM     15  C   UNL     1       7.587   4.853  15.641  0.00  0.00    +0.000 A 
ATOM     16  C   UNL     1       6.699   4.827  14.578  0.00  0.00    +0.000 A 
ATOM     17  F   UNL     1       7.155   5.050  13.336  0.00  0.00    +0.000 F 
ATOM     18  C   UNL     1       5.347   4.560  14.779  0.00  0.00    +0.000 A 
ATOM     19  C   UNL     1       4.867   4.338  16.073  0.00  0.00    +0.000 A 
ENDBRANCH  12  13
ENDBRANCH   9  12
ENDBRANCH   1   8
BRANCH   1  22
ATOM     20  C   UNL     1       1.898   3.328  20.609  0.00  0.00    +0.000 C 
ATOM     21  C   UNL     1       2.239   4.401  21.605  0.00  0.00    +0.000 C 
ATOM     22  C   UNL     1       1.810   4.797  20.206  0.00  0.00    +0.000 C 
BRANCH  20  23
ATOM     23  C   UNL     1       2.923   2.418  20.042  0.00  0.00    +0.000 C 
ATOM     24  O   UNL     1       3.994   2.179  20.581  0.00  0.00    +0.000 OA
BRANCH  23  26
ATOM     25  C   UNL     1       3.496   1.370  17.992  0.00  0.00    +0.000 C 
ATOM     26  O   UNL     1       2.502   1.936  18.845  0.00  0.00    +0.000 OA
ENDBRANCH  23  26
ENDBRANCH  20  23
ENDBRANCH   1  22
TORSDOF 7
ENDMDL
MODEL 8
REMARK VINA RESULT:      -7.7      2.901      5.694
REMARK  Name = 
REMARK  8 active torsions:
REMARK  status: ('A' for Active; 'I' for Inactive)
REMARK    1  A    between atoms: C_1  and  O_2
REMARK    2  A    between atoms: O_2  and  C_3
REMARK    3  A    between atoms: C_3  and  C_5
REMARK    4  A    between atoms: C_7  and  C_8
REMARK    5  A    between atoms: C_8  and  N_9
REMARK    6  A    between atoms: C_8  and  C_20
REMARK    7  A    between atoms: C_10  and  O_12
REMARK    8  A    between atoms: O_12  and  C_13
REMARK                            x       y       z     vdW  Elec       q    Type
REMARK                         _______ _______ _______ _____ _____    ______ ____
ROOT
ATOM      1  C   UNL     1       4.427   5.771  17.854  0.00  0.00    +0.000 C 
ENDROOT
BRANCH   1   2
ATOM      2  C   UNL     1       3.351   6.674  18.485  0.00  0.00    +0.000 A 
ATOM      3  C   UNL     1       2.918   7.828  17.810  0.00  0.00    +0.000 A 
ATOM      4  C   UNL     1       1.955   8.677  18.374  0.00  0.00    +0.000 A 
ATOM      5  C   UNL     1       1.408   8.398  19.624  0.00  0.00    +0.000 A 
ATOM      6  C   UNL     1       1.817   7.263  20.310  0.00  0.00    +0.000 A 
ATOM      7  C   UNL     1       2.763   6.406  19.741  0.00  0.00    +0.000 A 
ENDBRANCH   1   2
BRANCH   1   8
ATOM      8  N   UNL     1       3.833   4.889  16.868  0.00  0.00    +0.000 N 
ATOM      9  C   UNL     1       3.170   3.723  17.105  0.00  0.00    +0.000 C 
ATOM     10  O   UNL     1       2.226   3.405  16.395  0.00  0.00    +0.000 OA
ATOM     11  H   UNL     1       3.551   5.273  15.986  0.00  0.00    +0.000 HD
BRANCH   9  12
ATOM     12  O   UNL     1       3.778   2.912  18.042  0.00  0.00    +0.000 OA
BRANCH  12  13
ATOM     13  C   UNL     1       3.034   2.773  19.236  0.00  0.00    +0.000 A 
ATOM     14  C   UNL     1       3.635   2.563  20.484  0.00  0.00    +0.000 A 
ATOM     15  C   UNL     1       2.849   2.481  21.628  0.00  0.00    +0.000 A 
ATOM     16  C   UNL     1       1.478   2.646  21.527  0.00  0.00    +0.000 A 
ATOM     17  F   UNL     1       0.723   2.572  22.634  0.00  0.00    +0.000 F 
ATOM     18  C   UNL     1       0.874   2.903  20.299  0.00  0.00    +0.000 A 
ATOM     19  C   UNL     1       1.655   2.971  19.141  0.00  0.00    +0.000 A 
ENDBRANCH  12  13
ENDBRANCH   9  12
ENDBRANCH   1   8
BRANCH   1  22
ATOM     20  C   UNL     1       6.949   6.208  17.020  0.00  0.00    +0.000 C 
ATOM     21  C   UNL     1       6.033   6.163  15.830  0.00  0.00    +0.000 C 
ATOM     22  C   UNL     1       5.484   6.607  17.171  0.00  0.00    +0.000 C 
BRANCH  20  23
ATOM     23  C   UNL     1       7.497   4.979  17.647  0.00  0.00    +0.000 C 
ATOM     24  O   UNL     1       8.083   4.103  17.026  0.00  0.00    +0.000 OA
BRANCH  23  26
ATOM     25  C   UNL     1       8.086   5.721  19.821  0.00  0.00    +0.000 C 
ATOM     26  O   UNL     1       7.216   4.972  18.974  0.00  0.00    +0.000 OA
ENDBRANCH  23  26
ENDBRANCH  20  23
ENDBRANCH   1  22
TORSDOF 7
ENDMDL
MODEL 9
REMARK VINA RESULT:      -7.6      3.204      7.009
REMARK  Name = 
REMARK  8 active torsions:
REMARK  status: ('A' for Active; 'I' for Inactive)
REMARK    1  A    between atoms: C_1  and  O_2
REMARK    2  A    between atoms: O_2  and  C_3
REMARK    3  A    between atoms: C_3  and  C_5
REMARK    4  A    between atoms: C_7  and  C_8
REMARK    5  A    between atoms: C_8  and  N_9
REMARK    6  A    between atoms: C_8  and  C_20
REMARK    7  A    between atoms: C_10  and  O_12
REMARK    8  A    between atoms: O_12  and  C_13
REMARK                            x       y       z     vdW  Elec       q    Type
REMARK                         _______ _______ _______ _____ _____    ______ ____
ROOT
ATOM      1  C   UNL     1       5.889   4.482  16.078  0.00  0.00    +0.000 C 
ENDROOT
BRANCH   1   2
ATOM      2  C   UNL     1       6.272   4.317  14.596  0.00  0.00    +0.000 A 
ATOM      3  C   UNL     1       7.352   5.041  14.064  0.00  0.00    +0.000 A 
ATOM      4  C   UNL     1       7.707   4.924  12.713  0.00  0.00    +0.000 A 
ATOM      5  C   UNL     1       6.989   4.086  11.862  0.00  0.00    +0.000 A 
ATOM      6  C   UNL     1       5.920   3.358  12.363  0.00  0.00    +0.000 A 
ATOM      7  C   UNL     1       5.577   3.459  13.715  0.00  0.00    +0.000 A 
ENDBRANCH   1   2
BRANCH   1   8
ATOM      8  N   UNL     1       5.130   3.334  16.537  0.00  0.00    +0.000 N 
ATOM      9  C   UNL     1       3.876   3.339  17.069  0.00  0.00    +0.000 C 
ATOM     10  O   UNL     1       3.114   2.409  16.842  0.00  0.00    +0.000 OA
ATOM     11  H   UNL     1       5.334   2.434  16.144  0.00  0.00    +0.000 HD
BRANCH   9  12
ATOM     12  O   UNL     1       3.663   4.345  17.990  0.00  0.00    +0.000 OA
BRANCH  12  13
ATOM     13  C   UNL     1       2.930   3.926  19.124  0.00  0.00    +0.000 A 
ATOM     14  C   UNL     1       1.571   4.221  19.299  0.00  0.00    +0.000 A 
ATOM     15  C   UNL     1       0.895   3.740  20.415  0.00  0.00    +0.000 A 
ATOM     16  C   UNL     1       1.564   2.938  21.325  0.00  0.00    +0.000 A 
ATOM     17  F   UNL     1       0.907   2.471  22.398  0.00  0.00    +0.000 F 
ATOM     18  C   UNL     1       2.901   2.599  21.136  0.00  0.00    +0.000 A 
ATOM     19  C   UNL     1       3.593   3.092  20.025  0.00  0.00    +0.000 A 
ENDBRANCH  12  13
ENDBRANCH   9  12
ENDBRANCH   1   8
BRANCH   1  22
ATOM     20  C   UNL     1       7.557   5.874  17.668  0.00  0.00    +0.000 C 
ATOM     21  C   UNL     1       6.986   4.717  18.439  0.00  0.00    +0.000 C 
ATOM     22  C   UNL     1       7.128   4.607  16.934  0.00  0.00    +0.000 C 
BRANCH  20  23
ATOM     23  C   UNL     1       6.830   7.158  17.509  0.00  0.00    +0.000 C 
ATOM     24  O   UNL     1       7.331   8.169  17.036  0.00  0.00    +0.000 OA
BRANCH  23  26
ATOM     25  C   UNL     1       4.506   7.440  17.129  0.00  0.00    +0.000 C 
ATOM     26  O   UNL     1       5.568   7.038  17.992  0.00  0.00    +0.000 OA
ENDBRANCH  23  26
ENDBRANCH  20  23
ENDBRANCH   1  22
TORSDOF 7
ENDMDL
