MODEL 1
REMARK VINA RESULT:      -7.3      0.000      0.000
REMARK  Name = 
REMARK  8 active torsions:
REMARK  status: ('A' for Active; 'I' for Inactive)
REMARK    1  A    between atoms: C_2  and  C_3
REMARK    2  A    between atoms: C_8  and  C_9
REMARK    3  A    between atoms: N_11  and  C_12
REMARK    4  A    between atoms: C_12  and  C_13
REMARK    5  A    between atoms: C_13  and  C_14
REMARK    6  A    between atoms: C_14  and  C_15
REMARK    7  A    between atoms: C_15  and  N_16
REMARK    8  A    between atoms: N_19  and  C_20
REMARK                            x       y       z     vdW  Elec       q    Type
REMARK                         _______ _______ _______ _____ _____    ______ ____
ROOT
ATOM      1  C   UNL     1       8.365   8.184  18.206  0.00  0.00    +0.000 C 
ENDROOT
BRANCH   1   2
ATOM      2  C   UNL     1       7.747   7.347  17.087  0.00  0.00    +0.000 C 
BRANCH   2   5
ATOM      3  C   UNL     1       6.443   5.237  17.092  0.00  0.00    +0.000 C 
ATOM      4  O   UNL     1       7.176   4.728  16.245  0.00  0.00    +0.000 OA
ATOM      5  N   UNL     1       6.661   6.518  17.562  0.00  0.00    +0.000 N 
ATOM      6  H   UNL     1       6.002   6.901  18.227  0.00  0.00    +0.000 HD
BRANCH   3  12
ATOM      7  C   UNL     1       1.956   2.634  20.484  0.00  0.00    +0.000 A 
ATOM      8  C   UNL     1       1.464   2.103  19.290  0.00  0.00    +0.000 A 
ATOM      9  C   UNL     1       2.104   2.369  18.077  0.00  0.00    +0.000 A 
ATOM     10  C   UNL     1       3.258   3.178  18.078  0.00  0.00    +0.000 A 
ATOM     11  S   UNL     1       4.203   3.634  16.715  0.00  0.00    +0.000 S 
ATOM     12  C   UNL     1       5.301   4.533  17.664  0.00  0.00    +0.000 A 
ATOM     13  C   UNL     1       4.949   4.492  18.999  0.00  0.00    +0.000 A 
ATOM     14  C   UNL     1       3.774   3.715  19.258  0.00  0.00    +0.000 A 
ATOM     15  C   UNL     1       3.104   3.434  20.476  0.00  0.00    +0.000 A 
BRANCH   7  17
ATOM     16  N   UNL     1       0.744   2.122  22.723  0.00  0.00    +0.000 NA
ATOM     17  C   UNL     1       1.285   2.348  21.721  0.00  0.00    +0.000 C 
ENDBRANCH   7  17
ENDBRANCH   3  12
ENDBRANCH   2   5
ENDBRANCH   1   2
BRANCH   1  18
ATOM     18  C   UNL     1       8.219   9.683  17.912  0.00  0.00    +0.000 C 
BRANCH  18  19
ATOM     19  C   UNL     1       9.207  10.570  18.693  0.00  0.00    +0.000 C 
BRANCH  19  20
ATOM     20  N   UNL     1       9.741  11.687  17.905  0.00  0.00    +0.000 NA
ATOM     21  C   UNL     1       8.940  12.926  18.001  0.00  0.00    +0.000 C 
ATOM     22  C   UNL     1       9.107  13.713  19.318  0.00  0.00    +0.000 C 
ATOM     23  N   UNL     1      10.523  14.056  19.526  0.00  0.00    +0.000 N 
ATOM     24  C   UNL     1      11.429  12.896  19.482  0.00  0.00    +0.000 C 
ATOM     25  C   UNL     1      11.151  11.995  18.245  0.00  0.00    +0.000 C 
BRANCH  23  26
ATOM     26  C   UNL     1      10.958  15.374  19.603  0.00  0.00    +0.000 A 
ATOM     27  C   UNL     1      11.201  15.934  20.880  0.00  0.00    +0.000 A 
ATOM     28  C   UNL     1      11.715  17.219  21.067  0.00  0.00    +0.000 A 
ATOM     29  C   UNL     1      11.969  18.021  19.968  0.00  0.00    +0.000 A 
ATOM     30  C   UNL     1      11.701  17.539  18.686  0.00  0.00    +0.000 A 
ATOM     31 CL   UNL     1      12.017  18.631  17.375  0.00  0.00    +0.000 Cl
ATOM     32  C   UNL     1      11.213  16.227  18.492  0.00  0.00    +0.000 A 
ATOM     33 CL   UNL     1      11.051  15.654  16.851  0.00  0.00    +0.000 Cl
ENDBRANCH  23  26
ENDBRANCH  19  20
ENDBRANCH  18  19
ENDBRANCH   1  18
TORSDOF 8
ENDMDL
MODEL 2
REMARK VINA RESULT:      -6.9      7.448     10.943
REMARK  Name = 
REMARK  8 active torsions:
REMARK  status: ('A' for Active; 'I' for Inactive)
REMARK    1  A    between atoms: C_2  and  C_3
REMARK    2  A    between atoms: C_8  and  C_9
REMARK    3  A    between atoms: N_11  and  C_12
REMARK    4  A    between atoms: C_12  and  C_13
REMARK    5  A    between atoms: C_13  and  C_14
REMARK    6  A    between atoms: C_14  and  C_15
REMARK    7  A    between atoms: C_15  and  N_16
REMARK    8  A    between atoms: N_19  and  C_20
REMARK                            x       y       z     vdW  Elec       q    Type
REMARK                         _______ _______ _______ _____ _____    ______ ____
ROOT
ATOM      1  C   UNL     1       1.183   3.998  20.956  0.00  0.00    +0.000 C 
ENDROOT
BRANCH   1   2
ATOM      2  C   UNL     1       2.248   5.091  20.876  0.00  0.00    +0.000 C 
BRANCH   2   5
ATOM      3  C   UNL     1       1.791   7.415  20.142  0.00  0.00    +0.000 C 
ATOM      4  O   UNL     1       2.353   7.233  19.062  0.00  0.00    +0.000 OA
ATOM      5  N   UNL     1       1.692   6.410  21.084  0.00  0.00    +0.000 N 
ATOM      6  H   UNL     1       1.257   6.629  21.970  0.00  0.00    +0.000 HD
BRANCH   3  12
ATOM      7  C   UNL     1      -0.516  13.144  20.655  0.00  0.00    +0.000 A 
ATOM      8  C   UNL     1      -0.850  12.812  21.969  0.00  0.00    +0.000 A 
ATOM      9  C   UNL     1      -0.562  11.542  22.476  0.00  0.00    +0.000 A 
ATOM     10  C   UNL     1       0.075  10.603  21.641  0.00  0.00    +0.000 A 
ATOM     11  S   UNL     1       0.523   8.992  22.048  0.00  0.00    +0.000 S 
ATOM     12  C   UNL     1       1.188   8.692  20.504  0.00  0.00    +0.000 A 
ATOM     13  C   UNL     1       1.063   9.800  19.688  0.00  0.00    +0.000 A 
ATOM     14  C   UNL     1       0.425  10.912  20.326  0.00  0.00    +0.000 A 
ATOM     15  C   UNL     1       0.119  12.206  19.834  0.00  0.00    +0.000 A 
BRANCH   7  17
ATOM     16  N   UNL     1      -1.061  15.517  19.751  0.00  0.00    +0.000 NA
ATOM     17  C   UNL     1      -0.818  14.455  20.152  0.00  0.00    +0.000 C 
ENDBRANCH   7  17
ENDBRANCH   3  12
ENDBRANCH   2   5
ENDBRANCH   1   2
BRANCH   1  18
ATOM     18  C   UNL     1       1.808   2.609  20.760  0.00  0.00    +0.000 C 
BRANCH  18  19
ATOM     19  C   UNL     1       1.268   1.851  19.533  0.00  0.00    +0.000 C 
BRANCH  19  20
ATOM     20  N   UNL     1       2.295   1.557  18.527  0.00  0.00    +0.000 NA
ATOM     21  C   UNL     1       2.223   2.419  17.327  0.00  0.00    +0.000 C 
ATOM     22  C   UNL     1       2.756   3.855  17.521  0.00  0.00    +0.000 C 
ATOM     23  N   UNL     1       4.151   3.819  17.986  0.00  0.00    +0.000 N 
ATOM     24  C   UNL     1       4.352   3.009  19.200  0.00  0.00    +0.000 C 
ATOM     25  C   UNL     1       3.667   1.618  19.085  0.00  0.00    +0.000 C 
BRANCH  23  26
ATOM     26  C   UNL     1       5.188   4.378  17.249  0.00  0.00    +0.000 A 
ATOM     27  C   UNL     1       5.515   3.804  15.997  0.00  0.00    +0.000 A 
ATOM     28  C   UNL     1       6.483   4.335  15.141  0.00  0.00    +0.000 A 
ATOM     29  C   UNL     1       7.202   5.451  15.530  0.00  0.00    +0.000 A 
ATOM     30  C   UNL     1       6.957   6.030  16.775  0.00  0.00    +0.000 A 
ATOM     31 CL   UNL     1       7.933   7.403  17.189  0.00  0.00    +0.000 Cl
ATOM     32  C   UNL     1       5.954   5.516  17.630  0.00  0.00    +0.000 A 
ATOM     33 CL   UNL     1       5.611   6.392  19.100  0.00  0.00    +0.000 Cl
ENDBRANCH  23  26
ENDBRANCH  19  20
ENDBRANCH  18  19
ENDBRANCH   1  18
TORSDOF 8
ENDMDL
MODEL 3
REMARK VINA RESULT:      -6.9      7.363     10.672
REMARK  Name = 
REMARK  8 active torsions:
REMARK  status: ('A' for Active; 'I' for Inactive)
REMARK    1  A    between atoms: C_2  and  C_3
REMARK    2  A    between atoms: C_8  and  C_9
REMARK    3  A    between atoms: N_11  and  C_12
REMARK    4  A    between atoms: C_12  and  C_13
REMARK    5  A    between atoms: C_13  and  C_14
REMARK    6  A    between atoms: C_14  and  C_15
REMARK    7  A    between atoms: C_15  and  N_16
REMARK    8  A    between atoms: N_19  and  C_20
REMARK                            x       y       z     vdW  Elec       q    Type
REMARK                         _______ _______ _______ _____ _____    ______ ____
ROOT
ATOM      1  C   UNL     1       1.057   3.855  20.887  0.00  0.00    +0.000 C 
ENDROOT
BRANCH   1   2
ATOM      2  C   UNL     1       2.185   4.880  20.780  0.00  0.00    +0.000 C 
BRANCH   2   5
ATOM      3  C   UNL     1       1.953   7.178  19.878  0.00  0.00    +0.000 C 
ATOM      4  O   UNL     1       2.606   6.900  18.874  0.00  0.00    +0.000 OA
ATOM      5  N   UNL     1       1.696   6.239  20.858  0.00  0.00    +0.000 N 
ATOM      6  H   UNL     1       1.190   6.535  21.682  0.00  0.00    +0.000 HD
BRANCH   3  12
ATOM      7  C   UNL     1      -0.523  12.491  21.892  0.00  0.00    +0.000 A 
ATOM      8  C   UNL     1      -0.408  12.956  20.580  0.00  0.00    +0.000 A 
ATOM      9  C   UNL     1       0.133  12.141  19.582  0.00  0.00    +0.000 A 
ATOM     10  C   UNL     1       0.557  10.840  19.921  0.00  0.00    +0.000 A 
ATOM     11  S   UNL     1       1.247   9.669  18.865  0.00  0.00    +0.000 S 
ATOM     12  C   UNL     1       1.398   8.507  20.107  0.00  0.00    +0.000 A 
ATOM     13  C   UNL     1       0.936   9.006  21.309  0.00  0.00    +0.000 A 
ATOM     14  C   UNL     1       0.446  10.349  21.222  0.00  0.00    +0.000 A 
ATOM     15  C   UNL     1      -0.103  11.197  22.217  0.00  0.00    +0.000 A 
BRANCH   7  17
ATOM     16  N   UNL     1      -1.533  14.030  23.723  0.00  0.00    +0.000 NA
ATOM     17  C   UNL     1      -1.084  13.344  22.903  0.00  0.00    +0.000 C 
ENDBRANCH   7  17
ENDBRANCH   3  12
ENDBRANCH   2   5
ENDBRANCH   1   2
BRANCH   1  18
ATOM     18  C   UNL     1       0.960   3.013  19.607  0.00  0.00    +0.000 C 
BRANCH  18  19
ATOM     19  C   UNL     1       1.647   1.638  19.712  0.00  0.00    +0.000 C 
BRANCH  19  20
ATOM     20  N   UNL     1       2.665   1.412  18.679  0.00  0.00    +0.000 NA
ATOM     21  C   UNL     1       2.477   2.231  17.462  0.00  0.00    +0.000 C 
ATOM     22  C   UNL     1       2.882   3.714  17.603  0.00  0.00    +0.000 C 
ATOM     23  N   UNL     1       4.289   3.817  18.023  0.00  0.00    +0.000 N 
ATOM     24  C   UNL     1       4.601   3.062  19.248  0.00  0.00    +0.000 C 
ATOM     25  C   UNL     1       4.042   1.612  19.190  0.00  0.00    +0.000 C 
BRANCH  23  26
ATOM     26  C   UNL     1       5.247   4.448  17.237  0.00  0.00    +0.000 A 
ATOM     27  C   UNL     1       5.453   3.983  15.917  0.00  0.00    +0.000 A 
ATOM     28  C   UNL     1       6.332   4.594  15.019  0.00  0.00    +0.000 A 
ATOM     29  C   UNL     1       7.080   5.684  15.428  0.00  0.00    +0.000 A 
ATOM     30  C   UNL     1       6.954   6.156  16.735  0.00  0.00    +0.000 A 
ATOM     31 CL   UNL     1       7.959   7.502  17.165  0.00  0.00    +0.000 Cl
ATOM     32  C   UNL     1       6.041   5.561  17.636  0.00  0.00    +0.000 A 
ATOM     33 CL   UNL     1       5.838   6.308  19.200  0.00  0.00    +0.000 Cl
ENDBRANCH  23  26
ENDBRANCH  19  20
ENDBRANCH  18  19
ENDBRANCH   1  18
TORSDOF 8
ENDMDL
MODEL 4
REMARK VINA RESULT:      -6.9      7.395      8.983
REMARK  Name = 
REMARK  8 active torsions:
REMARK  status: ('A' for Active; 'I' for Inactive)
REMARK    1  A    between atoms: C_2  and  C_3
REMARK    2  A    between atoms: C_8  and  C_9
REMARK    3  A    between atoms: N_11  and  C_12
REMARK    4  A    between atoms: C_12  and  C_13
REMARK    5  A    between atoms: C_13  and  C_14
REMARK    6  A    between atoms: C_14  and  C_15
REMARK    7  A    between atoms: C_15  and  N_16
REMARK    8  A    between atoms: N_19  and  C_20
REMARK                            x       y       z     vdW  Elec       q    Type
REMARK                         _______ _______ _______ _____ _____    ______ ____
ROOT
ATOM      1  C   UNL     1       0.768   9.809  21.957  0.00  0.00    +0.000 C 
ENDROOT
BRANCH   1   2
ATOM      2  C   UNL     1       0.335   8.383  21.614  0.00  0.00    +0.000 C 
BRANCH   2   5
ATOM      3  C   UNL     1       1.681   8.047  19.558  0.00  0.00    +0.000 C 
ATOM      4  O   UNL     1       1.155   9.010  19.001  0.00  0.00    +0.000 OA
ATOM      5  N   UNL     1       1.338   7.680  20.844  0.00  0.00    +0.000 N 
ATOM      6  H   UNL     1       1.772   6.854  21.236  0.00  0.00    +0.000 HD
BRANCH   3  12
ATOM      7  C   UNL     1       6.038   5.379  16.051  0.00  0.00    +0.000 A 
ATOM      8  C   UNL     1       6.042   4.336  16.978  0.00  0.00    +0.000 A 
ATOM      9  C   UNL     1       5.200   4.374  18.094  0.00  0.00    +0.000 A 
ATOM     10  C   UNL     1       4.346   5.482  18.265  0.00  0.00    +0.000 A 
ATOM     11  S   UNL     1       3.233   5.741  19.552  0.00  0.00    +0.000 S 
ATOM     12  C   UNL     1       2.702   7.232  18.911  0.00  0.00    +0.000 A 
ATOM     13  C   UNL     1       3.367   7.531  17.739  0.00  0.00    +0.000 A 
ATOM     14  C   UNL     1       4.319   6.534  17.349  0.00  0.00    +0.000 A 
ATOM     15  C   UNL     1       5.184   6.473  16.227  0.00  0.00    +0.000 A 
BRANCH   7  17
ATOM     16  N   UNL     1       7.615   5.277  13.990  0.00  0.00    +0.000 NA
ATOM     17  C   UNL     1       6.908   5.320  14.910  0.00  0.00    +0.000 C 
ENDBRANCH   7  17
ENDBRANCH   3  12
ENDBRANCH   2   5
ENDBRANCH   1   2
BRANCH   1  18
ATOM     18  C   UNL     1      -0.322  10.534  22.758  0.00  0.00    +0.000 C 
BRANCH  18  19
ATOM     19  C   UNL     1      -0.756  11.878  22.144  0.00  0.00    +0.000 C 
BRANCH  19  20
ATOM     20  N   UNL     1       0.326  12.578  21.441  0.00  0.00    +0.000 NA
ATOM     21  C   UNL     1       0.149  12.638  19.974  0.00  0.00    +0.000 C 
ATOM     22  C   UNL     1      -0.896  13.662  19.483  0.00  0.00    +0.000 C 
ATOM     23  N   UNL     1      -0.551  15.009  19.967  0.00  0.00    +0.000 N 
ATOM     24  C   UNL     1      -0.373  15.089  21.427  0.00  0.00    +0.000 C 
ATOM     25  C   UNL     1       0.542  13.950  21.959  0.00  0.00    +0.000 C 
BRANCH  23  26
ATOM     26  C   UNL     1      -0.275  16.056  19.095  0.00  0.00    +0.000 A 
ATOM     27  C   UNL     1      -1.250  17.066  18.919  0.00  0.00    +0.000 A 
ATOM     28  C   UNL     1      -1.042  18.200  18.131  0.00  0.00    +0.000 A 
ATOM     29  C   UNL     1       0.151  18.348  17.446  0.00  0.00    +0.000 A 
ATOM     30  C   UNL     1       1.129  17.360  17.543  0.00  0.00    +0.000 A 
ATOM     31 CL   UNL     1       2.575  17.617  16.618  0.00  0.00    +0.000 Cl
ATOM     32  C   UNL     1       0.937  16.227  18.367  0.00  0.00    +0.000 A 
ATOM     33 CL   UNL     1       2.271  15.117  18.549  0.00  0.00    +0.000 Cl
ENDBRANCH  23  26
ENDBRANCH  19  20
ENDBRANCH  18  19
ENDBRANCH   1  18
TORSDOF 8
ENDMDL
MODEL 5
REMARK VINA RESULT:      -6.9      9.136     10.847
REMARK  Name = 
REMARK  8 active torsions:
REMARK  status: ('A' for Active; 'I' for Inactive)
REMARK    1  A    between atoms: C_2  and  C_3
REMARK    2  A    between atoms: C_8  and  C_9
REMARK    3  A    between atoms: N_11  and  C_12
REMARK    4  A    between atoms: C_12  and  C_13
REMARK    5  A    between atoms: C_13  and  C_14
REMARK    6  A    between atoms: C_14  and  C_15
REMARK    7  A    between atoms: C_15  and  N_16
REMARK    8  A    between atoms: N_19  and  C_20
REMARK                            x       y       z     vdW  Elec       q    Type
REMARK                         _______ _______ _______ _____ _____    ______ ____
ROOT
ATOM      1  C   UNL     1       1.496   8.655  21.519  0.00  0.00    +0.000 C 
ENDROOT
BRANCH   1   2
ATOM      2  C   UNL     1       1.211   7.259  20.966  0.00  0.00    +0.000 C 
BRANCH   2   5
ATOM      3  C   UNL     1       2.699   5.545  19.966  0.00  0.00    +0.000 C 
ATOM      4  O   UNL     1       2.293   4.676  20.738  0.00  0.00    +0.000 OA
ATOM      5  N   UNL     1       2.211   6.836  20.010  0.00  0.00    +0.000 N 
ATOM      6  H   UNL     1       2.612   7.519  19.380  0.00  0.00    +0.000 HD
BRANCH   3  12
ATOM      7  C   UNL     1       6.144   4.255  14.979  0.00  0.00    +0.000 A 
ATOM      8  C   UNL     1       7.262   4.428  15.797  0.00  0.00    +0.000 A 
ATOM      9  C   UNL     1       7.110   4.766  17.145  0.00  0.00    +0.000 A 
ATOM     10  C   UNL     1       5.810   4.925  17.665  0.00  0.00    +0.000 A 
ATOM     11  S   UNL     1       5.385   5.334  19.282  0.00  0.00    +0.000 S 
ATOM     12  C   UNL     1       3.711   5.278  18.951  0.00  0.00    +0.000 A 
ATOM     13  C   UNL     1       3.479   4.959  17.627  0.00  0.00    +0.000 A 
ATOM     14  C   UNL     1       4.676   4.751  16.870  0.00  0.00    +0.000 A 
ATOM     15  C   UNL     1       4.857   4.412  15.505  0.00  0.00    +0.000 A 
BRANCH   7  17
ATOM     16  N   UNL     1       6.459   3.627  12.479  0.00  0.00    +0.000 NA
ATOM     17  C   UNL     1       6.321   3.906  13.597  0.00  0.00    +0.000 C 
ENDBRANCH   7  17
ENDBRANCH   3  12
ENDBRANCH   2   5
ENDBRANCH   1   2
BRANCH   1  18
ATOM     18  C   UNL     1       0.291   9.582  21.313  0.00  0.00    +0.000 C 
BRANCH  18  19
ATOM     19  C   UNL     1       0.565  11.052  21.684  0.00  0.00    +0.000 C 
BRANCH  19  20
ATOM     20  N   UNL     1      -0.211  12.011  20.890  0.00  0.00    +0.000 NA
ATOM     21  C   UNL     1      -1.675  11.835  20.999  0.00  0.00    +0.000 C 
ATOM     22  C   UNL     1      -2.299  12.348  22.314  0.00  0.00    +0.000 C 
ATOM     23  N   UNL     1      -1.986  13.773  22.502  0.00  0.00    +0.000 N 
ATOM     24  C   UNL     1      -0.546  14.078  22.442  0.00  0.00    +0.000 C 
ATOM     25  C   UNL     1       0.133  13.418  21.209  0.00  0.00    +0.000 C 
BRANCH  23  26
ATOM     26  C   UNL     1      -2.979  14.742  22.574  0.00  0.00    +0.000 A 
ATOM     27  C   UNL     1      -3.667  15.096  21.390  0.00  0.00    +0.000 A 
ATOM     28  C   UNL     1      -4.735  15.998  21.365  0.00  0.00    +0.000 A 
ATOM     29  C   UNL     1      -5.132  16.620  22.535  0.00  0.00    +0.000 A 
ATOM     30  C   UNL     1      -4.458  16.346  23.725  0.00  0.00    +0.000 A 
ATOM     31 CL   UNL     1      -5.004  17.203  25.132  0.00  0.00    +0.000 Cl
ATOM     32  C   UNL     1      -3.399  15.409  23.760  0.00  0.00    +0.000 A 
ATOM     33 CL   UNL     1      -2.713  15.015  25.316  0.00  0.00    +0.000 Cl
ENDBRANCH  23  26
ENDBRANCH  19  20
ENDBRANCH  18  19
ENDBRANCH   1  18
TORSDOF 8
ENDMDL
MODEL 6
REMARK VINA RESULT:      -6.8      4.858      5.936
REMARK  Name = 
REMARK  8 active torsions:
REMARK  status: ('A' for Active; 'I' for Inactive)
REMARK    1  A    between atoms: C_2  and  C_3
REMARK    2  A    between atoms: C_8  and  C_9
REMARK    3  A    between atoms: N_11  and  C_12
REMARK    4  A    between atoms: C_12  and  C_13
REMARK    5  A    between atoms: C_13  and  C_14
REMARK    6  A    between atoms: C_14  and  C_15
REMARK    7  A    between atoms: C_15  and  N_16
REMARK    8  A    between atoms: N_19  and  C_20
REMARK                            x       y       z     vdW  Elec       q    Type
REMARK                         _______ _______ _______ _____ _____    ______ ____
ROOT
ATOM      1  C   UNL     1       1.865  14.055  18.713  0.00  0.00    +0.000 C 
ENDROOT
BRANCH   1   2
ATOM      2  C   UNL     1       1.128  13.221  19.759  0.00  0.00    +0.000 C 
BRANCH   2   5
ATOM      3  C   UNL     1       0.795  10.862  19.071  0.00  0.00    +0.000 C 
ATOM      4  O   UNL     1      -0.237  11.137  18.460  0.00  0.00    +0.000 OA
ATOM      5  N   UNL     1       1.527  11.831  19.729  0.00  0.00    +0.000 N 
ATOM      6  H   UNL     1       2.344  11.540  20.250  0.00  0.00    +0.000 HD
BRANCH   3  12
ATOM      7  C   UNL     1       3.392   5.282  18.341  0.00  0.00    +0.000 A 
ATOM      8  C   UNL     1       2.956   4.991  19.636  0.00  0.00    +0.000 A 
ATOM      9  C   UNL     1       2.255   5.945  20.380  0.00  0.00    +0.000 A 
ATOM     10  C   UNL     1       1.991   7.202  19.801  0.00  0.00    +0.000 A 
ATOM     11  S   UNL     1       1.151   8.518  20.524  0.00  0.00    +0.000 S 
ATOM     12  C   UNL     1       1.324   9.505  19.141  0.00  0.00    +0.000 A 
ATOM     13  C   UNL     1       2.018   8.844  18.146  0.00  0.00    +0.000 A 
ATOM     14  C   UNL     1       2.410   7.514  18.507  0.00  0.00    +0.000 A 
ATOM     15  C   UNL     1       3.123   6.532  17.774  0.00  0.00    +0.000 A 
BRANCH   7  17
ATOM     16  N   UNL     1       4.685   3.485  16.983  0.00  0.00    +0.000 NA
ATOM     17  C   UNL     1       4.109   4.289  17.592  0.00  0.00    +0.000 C 
ENDBRANCH   7  17
ENDBRANCH   3  12
ENDBRANCH   2   5
ENDBRANCH   1   2
BRANCH   1  18
ATOM     18  C   UNL     1       2.320  15.396  19.303  0.00  0.00    +0.000 C 
BRANCH  18  19
ATOM     19  C   UNL     1       3.705  15.343  19.976  0.00  0.00    +0.000 C 
BRANCH  19  20
ATOM     20  N   UNL     1       4.705  16.197  19.327  0.00  0.00    +0.000 NA
ATOM     21  C   UNL     1       5.972  16.317  20.081  0.00  0.00    +0.000 C 
ATOM     22  C   UNL     1       6.901  15.087  19.998  0.00  0.00    +0.000 C 
ATOM     23  N   UNL     1       7.220  14.786  18.594  0.00  0.00    +0.000 N 
ATOM     24  C   UNL     1       6.034  14.616  17.737  0.00  0.00    +0.000 C 
ATOM     25  C   UNL     1       5.006  15.764  17.941  0.00  0.00    +0.000 C 
BRANCH  23  26
ATOM     26  C   UNL     1       8.524  14.817  18.112  0.00  0.00    +0.000 A 
ATOM     27  C   UNL     1       9.090  16.068  17.769  0.00  0.00    +0.000 A 
ATOM     28  C   UNL     1      10.415  16.220  17.353  0.00  0.00    +0.000 A 
ATOM     29  C   UNL     1      11.223  15.105  17.222  0.00  0.00    +0.000 A 
ATOM     30  C   UNL     1      10.704  13.840  17.500  0.00  0.00    +0.000 A 
ATOM     31 CL   UNL     1      11.783  12.501  17.271  0.00  0.00    +0.000 Cl
ATOM     32  C   UNL     1       9.374  13.686  17.954  0.00  0.00    +0.000 A 
ATOM     33 CL   UNL     1       8.855  12.087  18.422  0.00  0.00    +0.000 Cl
ENDBRANCH  23  26
ENDBRANCH  19  20
ENDBRANCH  18  19
ENDBRANCH   1  18
TORSDOF 8
ENDMDL
MODEL 7
REMARK VINA RESULT:      -6.8      6.974      8.650
REMARK  Name = 
REMARK  8 active torsions:
REMARK  status: ('A' for Active; 'I' for Inactive)
REMARK    1  A    between atoms: C_2  and  C_3
REMARK    2  A    between atoms: C_8  and  C_9
REMARK    3  A    between atoms: N_11  and  C_12
REMARK    4  A    between atoms: C_12  and  C_13
REMARK    5  A    between atoms: C_13  and  C_14
REMARK    6  A    between atoms: C_14  and  C_15
REMARK    7  A    between atoms: C_15  and  N_16
REMARK    8  A    between atoms: N_19  and  C_20
REMARK                            x       y       z     vdW  Elec       q    Type
REMARK                         _______ _______ _______ _____ _____    ______ ____
ROOT
ATOM      1  C   UNL     1       1.421   7.988  21.585  0.00  0.00    +0.000 C 
ENDROOT
BRANCH   1   2
ATOM      2  C   UNL     1       1.316   6.564  21.042  0.00  0.00    +0.000 C 
BRANCH   2   5
ATOM      3  C   UNL     1       2.735   5.012  19.727  0.00  0.00    +0.000 C 
ATOM      4  O   UNL     1       2.274   4.028  20.304  0.00  0.00    +0.000 OA
ATOM      5  N   UNL     1       2.311   6.291  20.028  0.00  0.00    +0.000 N 
ATOM      6  H   UNL     1       2.756   7.065  19.552  0.00  0.00    +0.000 HD
BRANCH   3  12
ATOM      7  C   UNL     1       6.226   4.193  14.672  0.00  0.00    +0.000 A 
ATOM      8  C   UNL     1       7.309   4.628  15.440  0.00  0.00    +0.000 A 
ATOM      9  C   UNL     1       7.130   4.995  16.777  0.00  0.00    +0.000 A 
ATOM     10  C   UNL     1       5.840   4.915  17.338  0.00  0.00    +0.000 A 
ATOM     11  S   UNL     1       5.388   5.312  18.950  0.00  0.00    +0.000 S 
ATOM     12  C   UNL     1       3.751   4.904  18.687  0.00  0.00    +0.000 A 
ATOM     13  C   UNL     1       3.551   4.479  17.388  0.00  0.00    +0.000 A 
ATOM     14  C   UNL     1       4.744   4.477  16.595  0.00  0.00    +0.000 A 
ATOM     15  C   UNL     1       4.950   4.114  15.240  0.00  0.00    +0.000 A 
BRANCH   7  17
ATOM     16  N   UNL     1       6.600   3.514  12.194  0.00  0.00    +0.000 NA
ATOM     17  C   UNL     1       6.430   3.818  13.301  0.00  0.00    +0.000 C 
ENDBRANCH   7  17
ENDBRANCH   3  12
ENDBRANCH   2   5
ENDBRANCH   1   2
BRANCH   1  18
ATOM     18  C   UNL     1       0.044   8.664  21.618  0.00  0.00    +0.000 C 
BRANCH  18  19
ATOM     19  C   UNL     1       0.089  10.151  22.019  0.00  0.00    +0.000 C 
BRANCH  19  20
ATOM     20  N   UNL     1      -0.285  11.063  20.932  0.00  0.00    +0.000 NA
ATOM     21  C   UNL     1      -1.074  12.233  21.375  0.00  0.00    +0.000 C 
ATOM     22  C   UNL     1      -0.262  13.337  22.085  0.00  0.00    +0.000 C 
ATOM     23  N   UNL     1       0.823  13.810  21.210  0.00  0.00    +0.000 N 
ATOM     24  C   UNL     1       1.703  12.735  20.720  0.00  0.00    +0.000 C 
ATOM     25  C   UNL     1       0.889  11.535  20.160  0.00  0.00    +0.000 C 
BRANCH  23  26
ATOM     26  C   UNL     1       0.899  15.129  20.779  0.00  0.00    +0.000 A 
ATOM     27  C   UNL     1       1.589  16.067  21.584  0.00  0.00    +0.000 A 
ATOM     28  C   UNL     1       1.793  17.396  21.206  0.00  0.00    +0.000 A 
ATOM     29  C   UNL     1       1.270  17.855  20.009  0.00  0.00    +0.000 A 
ATOM     30  C   UNL     1       0.540  16.987  19.198  0.00  0.00    +0.000 A 
ATOM     31 CL   UNL     1      -0.106  17.664  17.737  0.00  0.00    +0.000 Cl
ATOM     32  C   UNL     1       0.360  15.632  19.561  0.00  0.00    +0.000 A 
ATOM     33 CL   UNL     1      -0.436  14.582  18.416  0.00  0.00    +0.000 Cl
ENDBRANCH  23  26
ENDBRANCH  19  20
ENDBRANCH  18  19
ENDBRANCH   1  18
TORSDOF 8
ENDMDL
MODEL 8
REMARK VINA RESULT:      -6.8      8.734     10.660
REMARK  Name = 
REMARK  8 active torsions:
REMARK  status: ('A' for Active; 'I' for Inactive)
REMARK    1  A    between atoms: C_2  and  C_3
REMARK    2  A    between atoms: C_8  and  C_9
REMARK    3  A    between atoms: N_11  and  C_12
REMARK    4  A    between atoms: C_12  and  C_13
REMARK    5  A    between atoms: C_13  and  C_14
REMARK    6  A    between atoms: C_14  and  C_15
REMARK    7  A    between atoms: C_15  and  N_16
REMARK    8  A    between atoms: N_19  and  C_20
REMARK                            x       y       z     vdW  Elec       q    Type
REMARK                         _______ _______ _______ _____ _____    ______ ____
ROOT
ATOM      1  C   UNL     1       0.976   8.802  20.836  0.00  0.00    +0.000 C 
ENDROOT
BRANCH   1   2
ATOM      2  C   UNL     1       1.432   7.365  21.085  0.00  0.00    +0.000 C 
BRANCH   2   5
ATOM      3  C   UNL     1       2.663   5.590  19.866  0.00  0.00    +0.000 C 
ATOM      4  O   UNL     1       2.064   4.698  20.466  0.00  0.00    +0.000 OA
ATOM      5  N   UNL     1       2.404   6.924  20.108  0.00  0.00    +0.000 N 
ATOM      6  H   UNL     1       2.957   7.614  19.615  0.00  0.00    +0.000 HD
BRANCH   3  12
ATOM      7  C   UNL     1       6.120   4.224  14.906  0.00  0.00    +0.000 A 
ATOM      8  C   UNL     1       7.236   4.411  15.724  0.00  0.00    +0.000 A 
ATOM      9  C   UNL     1       7.080   4.770  17.066  0.00  0.00    +0.000 A 
ATOM     10  C   UNL     1       5.779   4.936  17.581  0.00  0.00    +0.000 A 
ATOM     11  S   UNL     1       5.351   5.371  19.190  0.00  0.00    +0.000 S 
ATOM     12  C   UNL     1       3.677   5.308  18.857  0.00  0.00    +0.000 A 
ATOM     13  C   UNL     1       3.448   4.967  17.538  0.00  0.00    +0.000 A 
ATOM     14  C   UNL     1       4.648   4.748  16.786  0.00  0.00    +0.000 A 
ATOM     15  C   UNL     1       4.832   4.387  15.427  0.00  0.00    +0.000 A 
BRANCH   7  17
ATOM     16  N   UNL     1       6.440   3.556  12.417  0.00  0.00    +0.000 NA
ATOM     17  C   UNL     1       6.299   3.853  13.531  0.00  0.00    +0.000 C 
ENDBRANCH   7  17
ENDBRANCH   3  12
ENDBRANCH   2   5
ENDBRANCH   1   2
BRANCH   1  18
ATOM     18  C   UNL     1       1.299   9.238  19.400  0.00  0.00    +0.000 C 
BRANCH  18  19
ATOM     19  C   UNL     1       0.978  10.717  19.112  0.00  0.00    +0.000 C 
BRANCH  19  20
ATOM     20  N   UNL     1      -0.442  10.966  18.841  0.00  0.00    +0.000 NA
ATOM     21  C   UNL     1      -1.325  10.730  20.004  0.00  0.00    +0.000 C 
ATOM     22  C   UNL     1      -1.290  11.831  21.085  0.00  0.00    +0.000 C 
ATOM     23  N   UNL     1      -1.635  13.134  20.494  0.00  0.00    +0.000 N 
ATOM     24  C   UNL     1      -0.803  13.500  19.335  0.00  0.00    +0.000 C 
ATOM     25  C   UNL     1      -0.687  12.331  18.316  0.00  0.00    +0.000 C 
BRANCH  23  26
ATOM     26  C   UNL     1      -2.744  13.861  20.911  0.00  0.00    +0.000 A 
ATOM     27  C   UNL     1      -2.543  14.974  21.760  0.00  0.00    +0.000 A 
ATOM     28  C   UNL     1      -3.577  15.819  22.172  0.00  0.00    +0.000 A 
ATOM     29  C   UNL     1      -4.876  15.552  21.777  0.00  0.00    +0.000 A 
ATOM     30  C   UNL     1      -5.140  14.439  20.980  0.00  0.00    +0.000 A 
ATOM     31 CL   UNL     1      -6.804  14.166  20.568  0.00  0.00    +0.000 Cl
ATOM     32  C   UNL     1      -4.092  13.601  20.533  0.00  0.00    +0.000 A 
ATOM     33 CL   UNL     1      -4.493  12.321  19.417  0.00  0.00    +0.000 Cl
ENDBRANCH  23  26
ENDBRANCH  19  20
ENDBRANCH  18  19
ENDBRANCH   1  18
TORSDOF 8
ENDMDL
MODEL 9
REMARK VINA RESULT:      -6.8      5.141      6.274
REMARK  Name = 
REMARK  8 active torsions:
REMARK  status: ('A' for Active; 'I' for Inactive)
REMARK    1  A    between atoms: C_2  and  C_3
REMARK    2  A    between atoms: C_8  and  C_9
REMARK    3  A    between atoms: N_11  and  C_12
REMARK    4  A    between atoms: C_12  and  C_13
REMARK    5  A    between atoms: C_13  and  C_14
REMARK    6  A    between atoms: C_14  and  C_15
REMARK    7  A    between atoms: C_15  and  N_16
REMARK    8  A    between atoms: N_19  and  C_20
REMARK                            x       y       z     vdW  Elec       q    Type
REMARK                         _______ _______ _______ _____ _____    ______ ____
ROOT
ATOM      1  C   UNL     1       0.850  14.098  19.556  0.00  0.00    +0.000 C 
ENDROOT
BRANCH   1   2
ATOM      2  C   UNL     1       0.239  13.211  18.472  0.00  0.00    +0.000 C 
BRANCH   2   5
ATOM      3  C   UNL     1       0.567  10.931  19.394  0.00  0.00    +0.000 C 
ATOM      4  O   UNL     1      -0.217  11.142  20.318  0.00  0.00    +0.000 OA
ATOM      5  N   UNL     1       0.840  11.895  18.442  0.00  0.00    +0.000 N 
ATOM      6  H   UNL     1       1.525  11.681  17.730  0.00  0.00    +0.000 HD
BRANCH   3  12
ATOM      7  C   UNL     1       3.785   5.910  17.707  0.00  0.00    +0.000 A 
ATOM      8  C   UNL     1       3.445   5.367  18.948  0.00  0.00    +0.000 A 
ATOM      9  C   UNL     1       2.668   6.094  19.854  0.00  0.00    +0.000 A 
ATOM     10  C   UNL     1       2.229   7.383  19.492  0.00  0.00    +0.000 A 
ATOM     11  S   UNL     1       1.269   8.453  20.439  0.00  0.00    +0.000 S 
ATOM     12  C   UNL     1       1.259   9.659  19.230  0.00  0.00    +0.000 A 
ATOM     13  C   UNL     1       1.982   9.255  18.125  0.00  0.00    +0.000 A 
ATOM     14  C   UNL     1       2.549   7.946  18.256  0.00  0.00    +0.000 A 
ATOM     15  C   UNL     1       3.341   7.189  17.356  0.00  0.00    +0.000 A 
BRANCH   7  17
ATOM     16  N   UNL     1       5.223   4.527  16.045  0.00  0.00    +0.000 NA
ATOM     17  C   UNL     1       4.583   5.146  16.790  0.00  0.00    +0.000 C 
ENDBRANCH   7  17
ENDBRANCH   3  12
ENDBRANCH   2   5
ENDBRANCH   1   2
BRANCH   1  18
ATOM     18  C   UNL     1       1.448  15.373  18.946  0.00  0.00    +0.000 C 
BRANCH  18  19
ATOM     19  C   UNL     1       2.801  15.781  19.560  0.00  0.00    +0.000 C 
BRANCH  19  20
ATOM     20  N   UNL     1       3.767  14.678  19.635  0.00  0.00    +0.000 NA
ATOM     21  C   UNL     1       4.308  14.265  18.322  0.00  0.00    +0.000 C 
ATOM     22  C   UNL     1       5.368  15.214  17.723  0.00  0.00    +0.000 C 
ATOM     23  N   UNL     1       6.490  15.376  18.660  0.00  0.00    +0.000 N 
ATOM     24  C   UNL     1       6.082  15.816  20.006  0.00  0.00    +0.000 C 
ATOM     25  C   UNL     1       4.894  14.975  20.551  0.00  0.00    +0.000 C 
BRANCH  23  26
ATOM     26  C   UNL     1       7.786  14.998  18.330  0.00  0.00    +0.000 A 
ATOM     27  C   UNL     1       8.064  13.623  18.144  0.00  0.00    +0.000 A 
ATOM     28  C   UNL     1       9.309  13.143  17.733  0.00  0.00    +0.000 A 
ATOM     29  C   UNL     1      10.352  14.030  17.529  0.00  0.00    +0.000 A 
ATOM     30  C   UNL     1      10.149  15.393  17.745  0.00  0.00    +0.000 A 
ATOM     31 CL   UNL     1      11.525  16.422  17.500  0.00  0.00    +0.000 Cl
ATOM     32  C   UNL     1       8.881  15.887  18.128  0.00  0.00    +0.000 A 
ATOM     33 CL   UNL     1       8.677  17.617  18.228  0.00  0.00    +0.000 Cl
ENDBRANCH  23  26
ENDBRANCH  19  20
ENDBRANCH  18  19
ENDBRANCH   1  18
TORSDOF 8
ENDMDL
