MODEL 1
REMARK VINA RESULT:      -6.8      0.000      0.000
REMARK  Name = 
REMARK  18 active torsions:
REMARK  status: ('A' for Active; 'I' for Inactive)
REMARK    1  A    between atoms: C_1  and  C_2
REMARK    2  A    between atoms: C_2  and  C_3
REMARK    3  A    between atoms: C_3  and  C_4
REMARK    4  A    between atoms: C_4  and  C_5
REMARK    5  A    between atoms: C_5  and  C_6
REMARK    6  A    between atoms: C_6  and  C_7
REMARK    7  A    between atoms: C_7  and  C_8
REMARK    8  A    between atoms: C_8  and  C_9
REMARK    9  A    between atoms: C_9  and  C_10
REMARK   10  A    between atoms: C_10  and  C_11
REMARK   11  A    between atoms: C_11  and  C_12
REMARK   12  A    between atoms: C_12  and  C_13
REMARK   13  A    between atoms: C_13  and  C_14
REMARK   14  A    between atoms: C_14  and  C_17
REMARK   15  A    between atoms: N_15  and  O_16
REMARK   16  A    between atoms: C_19  and  C_20
REMARK   17  A    between atoms: C_23  and  O_24
REMARK   18  A    between atoms: C_29  and  O_30
REMARK                            x       y       z     vdW  Elec       q    Type
REMARK                         _______ _______ _______ _____ _____    ______ ____
ROOT
ATOM      1  C   UNL     1       6.702   5.814  15.780  0.00  0.00    +0.000 C 
ATOM      2  N   UNL     1       7.560   5.445  14.851  0.00  0.00    +0.000 NA
ENDROOT
BRANCH   1   3
ATOM      3  C   UNL     1       7.305   6.295  17.066  0.00  0.00    +0.000 A 
ATOM      4  C   UNL     1       7.614   7.655  17.196  0.00  0.00    +0.000 A 
ATOM      5  C   UNL     1       8.231   8.167  18.351  0.00  0.00    +0.000 A 
ATOM      6  C   UNL     1       8.503   7.261  19.389  0.00  0.00    +0.000 A 
ATOM      7  C   UNL     1       8.197   5.908  19.280  0.00  0.00    +0.000 A 
ATOM      8  C   UNL     1       7.621   5.437  18.116  0.00  0.00    +0.000 A 
BRANCH   5   9
ATOM      9  C   UNL     1       8.590   9.594  18.466  0.00  0.00    +0.000 A 
ATOM     10  C   UNL     1       8.139  10.547  17.534  0.00  0.00    +0.000 A 
ATOM     11  C   UNL     1       8.485  11.896  17.636  0.00  0.00    +0.000 A 
ATOM     12  C   UNL     1       9.299  12.314  18.685  0.00  0.00    +0.000 A 
ATOM     13  C   UNL     1       9.760  11.403  19.623  0.00  0.00    +0.000 A 
ATOM     14  C   UNL     1       9.410  10.057  19.518  0.00  0.00    +0.000 A 
BRANCH  12  15
ATOM     15  O   UNL     1       9.669  13.618  18.827  0.00  0.00    +0.000 OA
ATOM     16  H   UNL     1      10.565  13.735  18.474  0.00  0.00    +0.000 HD
ENDBRANCH  12  15
ENDBRANCH   5   9
BRANCH   8  17
ATOM     17  O   UNL     1       7.444   4.085  18.001  0.00  0.00    +0.000 OA
ATOM     18  H   UNL     1       7.104   3.840  17.156  0.00  0.00    +0.000 HD
ENDBRANCH   8  17
ENDBRANCH   1   3
BRANCH   2  19
ATOM     19  O   UNL     1       6.995   5.048  13.646  0.00  0.00    +0.000 OA
ATOM     20  H   UNL     1       6.665   5.908  13.307  0.00  0.00    +0.000 HD
ENDBRANCH   2  19
BRANCH   1  21
ATOM     21  C   UNL     1       5.188   5.806  15.639  0.00  0.00    +0.000 C 
BRANCH  21  22
ATOM     22  C   UNL     1       4.451   4.746  16.433  0.00  0.00    +0.000 C 
BRANCH  22  23
ATOM     23  C   UNL     1       3.951   5.244  17.791  0.00  0.00    +0.000 C 
BRANCH  23  24
ATOM     24  C   UNL     1       2.489   5.649  17.667  0.00  0.00    +0.000 C 
BRANCH  24  25
ATOM     25  C   UNL     1       2.222   6.972  18.343  0.00  0.00    +0.000 C 
BRANCH  25  26
ATOM     26  C   UNL     1       2.574   6.871  19.817  0.00  0.00    +0.000 C 
BRANCH  26  27
ATOM     27  C   UNL     1       1.500   6.076  20.533  0.00  0.00    +0.000 C 
BRANCH  27  28
ATOM     28  C   UNL     1       2.064   4.769  21.059  0.00  0.00    +0.000 C 
BRANCH  28  29
ATOM     29  C   UNL     1       1.093   3.636  20.768  0.00  0.00    +0.000 C 
BRANCH  29  30
ATOM     30  C   UNL     1       1.841   2.421  20.239  0.00  0.00    +0.000 C 
BRANCH  30  31
ATOM     31  C   UNL     1       3.344   2.617  20.386  0.00  0.00    +0.000 C 
BRANCH  31  33
ATOM     32  C   UNL     1       3.217   1.719  18.053  0.00  0.00    +0.000 C 
ATOM     33  C   UNL     1       4.094   1.887  19.281  0.00  0.00    +0.000 C 
ENDBRANCH  31  33
ENDBRANCH  30  31
ENDBRANCH  29  30
ENDBRANCH  28  29
ENDBRANCH  27  28
ENDBRANCH  26  27
ENDBRANCH  25  26
ENDBRANCH  24  25
ENDBRANCH  23  24
ENDBRANCH  22  23
ENDBRANCH  21  22
ENDBRANCH   1  21
TORSDOF 17
ENDMDL
MODEL 2
REMARK VINA RESULT:      -6.7      2.635      8.448
REMARK  Name = 
REMARK  18 active torsions:
REMARK  status: ('A' for Active; 'I' for Inactive)
REMARK    1  A    between atoms: C_1  and  C_2
REMARK    2  A    between atoms: C_2  and  C_3
REMARK    3  A    between atoms: C_3  and  C_4
REMARK    4  A    between atoms: C_4  and  C_5
REMARK    5  A    between atoms: C_5  and  C_6
REMARK    6  A    between atoms: C_6  and  C_7
REMARK    7  A    between atoms: C_7  and  C_8
REMARK    8  A    between atoms: C_8  and  C_9
REMARK    9  A    between atoms: C_9  and  C_10
REMARK   10  A    between atoms: C_10  and  C_11
REMARK   11  A    between atoms: C_11  and  C_12
REMARK   12  A    between atoms: C_12  and  C_13
REMARK   13  A    between atoms: C_13  and  C_14
REMARK   14  A    between atoms: C_14  and  C_17
REMARK   15  A    between atoms: N_15  and  O_16
REMARK   16  A    between atoms: C_19  and  C_20
REMARK   17  A    between atoms: C_23  and  O_24
REMARK   18  A    between atoms: C_29  and  O_30
REMARK                            x       y       z     vdW  Elec       q    Type
REMARK                         _______ _______ _______ _____ _____    ______ ____
ROOT
ATOM      1  C   UNL     1       6.220   5.235  17.272  0.00  0.00    +0.000 C 
ATOM      2  N   UNL     1       6.614   4.490  16.258  0.00  0.00    +0.000 NA
ENDROOT
BRANCH   1   3
ATOM      3  C   UNL     1       4.751   5.205  17.565  0.00  0.00    +0.000 A 
ATOM      4  C   UNL     1       4.118   6.394  17.952  0.00  0.00    +0.000 A 
ATOM      5  C   UNL     1       2.755   6.430  18.295  0.00  0.00    +0.000 A 
ATOM      6  C   UNL     1       2.039   5.225  18.208  0.00  0.00    +0.000 A 
ATOM      7  C   UNL     1       2.649   4.036  17.820  0.00  0.00    +0.000 A 
ATOM      8  C   UNL     1       3.998   4.035  17.522  0.00  0.00    +0.000 A 
BRANCH   5   9
ATOM      9  C   UNL     1       2.104   7.678  18.740  0.00  0.00    +0.000 A 
ATOM     10  C   UNL     1       1.898   8.758  17.862  0.00  0.00    +0.000 A 
ATOM     11  C   UNL     1       1.291   9.942  18.284  0.00  0.00    +0.000 A 
ATOM     12  C   UNL     1       0.877  10.063  19.607  0.00  0.00    +0.000 A 
ATOM     13  C   UNL     1       1.061   9.018  20.500  0.00  0.00    +0.000 A 
ATOM     14  C   UNL     1       1.668   7.836  20.074  0.00  0.00    +0.000 A 
BRANCH  12  15
ATOM     15  O   UNL     1       0.283  11.199  20.070  0.00  0.00    +0.000 OA
ATOM     16  H   UNL     1      -0.556  10.968  20.501  0.00  0.00    +0.000 HD
ENDBRANCH  12  15
ENDBRANCH   5   9
BRANCH   8  17
ATOM     17  O   UNL     1       4.585   2.826  17.259  0.00  0.00    +0.000 OA
ATOM     18  H   UNL     1       5.433   2.922  16.858  0.00  0.00    +0.000 HD
ENDBRANCH   8  17
ENDBRANCH   1   3
BRANCH   2  19
ATOM     19  O   UNL     1       7.983   4.484  16.023  0.00  0.00    +0.000 OA
ATOM     20  H   UNL     1       8.289   3.891  16.744  0.00  0.00    +0.000 HD
ENDBRANCH   2  19
BRANCH   1  21
ATOM     21  C   UNL     1       7.127   6.081  18.150  0.00  0.00    +0.000 C 
BRANCH  21  22
ATOM     22  C   UNL     1       7.553   7.418  17.575  0.00  0.00    +0.000 C 
BRANCH  22  23
ATOM     23  C   UNL     1       8.501   8.197  18.490  0.00  0.00    +0.000 C 
BRANCH  23  24
ATOM     24  C   UNL     1       8.482   9.666  18.093  0.00  0.00    +0.000 C 
BRANCH  24  25
ATOM     25  C   UNL     1       8.970  10.550  19.215  0.00  0.00    +0.000 C 
BRANCH  25  26
ATOM     26  C   UNL     1      10.445  10.857  19.018  0.00  0.00    +0.000 C 
BRANCH  26  27
ATOM     27  C   UNL     1      10.624  11.624  17.722  0.00  0.00    +0.000 C 
BRANCH  27  28
ATOM     28  C   UNL     1      10.988  13.070  18.004  0.00  0.00    +0.000 C 
BRANCH  28  29
ATOM     29  C   UNL     1       9.760  13.950  17.833  0.00  0.00    +0.000 C 
BRANCH  29  30
ATOM     30  C   UNL     1       9.219  14.373  19.192  0.00  0.00    +0.000 C 
BRANCH  30  31
ATOM     31  C   UNL     1      10.340  14.934  20.057  0.00  0.00    +0.000 C 
BRANCH  31  33
ATOM     32  C   UNL     1       9.116  13.386  21.597  0.00  0.00    +0.000 C 
ATOM     33  C   UNL     1      10.260  14.376  21.472  0.00  0.00    +0.000 C 
ENDBRANCH  31  33
ENDBRANCH  30  31
ENDBRANCH  29  30
ENDBRANCH  28  29
ENDBRANCH  27  28
ENDBRANCH  26  27
ENDBRANCH  25  26
ENDBRANCH  24  25
ENDBRANCH  23  24
ENDBRANCH  22  23
ENDBRANCH  21  22
ENDBRANCH   1  21
TORSDOF 17
ENDMDL
MODEL 3
REMARK VINA RESULT:      -6.6      3.207      6.525
REMARK  Name = 
REMARK  18 active torsions:
REMARK  status: ('A' for Active; 'I' for Inactive)
REMARK    1  A    between atoms: C_1  and  C_2
REMARK    2  A    between atoms: C_2  and  C_3
REMARK    3  A    between atoms: C_3  and  C_4
REMARK    4  A    between atoms: C_4  and  C_5
REMARK    5  A    between atoms: C_5  and  C_6
REMARK    6  A    between atoms: C_6  and  C_7
REMARK    7  A    between atoms: C_7  and  C_8
REMARK    8  A    between atoms: C_8  and  C_9
REMARK    9  A    between atoms: C_9  and  C_10
REMARK   10  A    between atoms: C_10  and  C_11
REMARK   11  A    between atoms: C_11  and  C_12
REMARK   12  A    between atoms: C_12  and  C_13
REMARK   13  A    between atoms: C_13  and  C_14
REMARK   14  A    between atoms: C_14  and  C_17
REMARK   15  A    between atoms: N_15  and  O_16
REMARK   16  A    between atoms: C_19  and  C_20
REMARK   17  A    between atoms: C_23  and  O_24
REMARK   18  A    between atoms: C_29  and  O_30
REMARK                            x       y       z     vdW  Elec       q    Type
REMARK                         _______ _______ _______ _____ _____    ______ ____
ROOT
ATOM      1  C   UNL     1       3.940   3.165  18.513  0.00  0.00    +0.000 C 
ATOM      2  N   UNL     1       3.443   1.958  18.327  0.00  0.00    +0.000 NA
ENDROOT
BRANCH   1   3
ATOM      3  C   UNL     1       3.139   4.067  19.403  0.00  0.00    +0.000 A 
ATOM      4  C   UNL     1       2.878   5.376  18.976  0.00  0.00    +0.000 A 
ATOM      5  C   UNL     1       2.180   6.292  19.782  0.00  0.00    +0.000 A 
ATOM      6  C   UNL     1       1.726   5.834  21.029  0.00  0.00    +0.000 A 
ATOM      7  C   UNL     1       1.969   4.537  21.467  0.00  0.00    +0.000 A 
ATOM      8  C   UNL     1       2.687   3.675  20.660  0.00  0.00    +0.000 A 
BRANCH   5   9
ATOM      9  C   UNL     1       1.945   7.681  19.343  0.00  0.00    +0.000 A 
ATOM     10  C   UNL     1       1.245   8.602  20.145  0.00  0.00    +0.000 A 
ATOM     11  C   UNL     1       1.013   9.914  19.728  0.00  0.00    +0.000 A 
ATOM     12  C   UNL     1       1.484  10.327  18.485  0.00  0.00    +0.000 A 
ATOM     13  C   UNL     1       2.180   9.449  17.669  0.00  0.00    +0.000 A 
ATOM     14  C   UNL     1       2.410   8.139  18.091  0.00  0.00    +0.000 A 
BRANCH  12  15
ATOM     15  O   UNL     1       1.281  11.596  18.029  0.00  0.00    +0.000 OA
ATOM     16  H   UNL     1       1.225  11.581  17.060  0.00  0.00    +0.000 HD
ENDBRANCH  12  15
ENDBRANCH   5   9
BRANCH   8  17
ATOM     17  O   UNL     1       3.007   2.447  21.175  0.00  0.00    +0.000 OA
ATOM     18  H   UNL     1       3.930   2.265  21.115  0.00  0.00    +0.000 HD
ENDBRANCH   8  17
ENDBRANCH   1   3
BRANCH   2  19
ATOM     19  O   UNL     1       4.217   1.113  17.542  0.00  0.00    +0.000 OA
ATOM     20  H   UNL     1       3.907   0.237  17.858  0.00  0.00    +0.000 HD
ENDBRANCH   2  19
BRANCH   1  21
ATOM     21  C   UNL     1       5.240   3.686  17.921  0.00  0.00    +0.000 C 
BRANCH  21  22
ATOM     22  C   UNL     1       6.201   4.337  18.896  0.00  0.00    +0.000 C 
BRANCH  22  23
ATOM     23  C   UNL     1       7.529   4.748  18.255  0.00  0.00    +0.000 C 
BRANCH  23  24
ATOM     24  C   UNL     1       8.044   6.007  18.938  0.00  0.00    +0.000 C 
BRANCH  24  25
ATOM     25  C   UNL     1       7.657   7.250  18.173  0.00  0.00    +0.000 C 
BRANCH  25  26
ATOM     26  C   UNL     1       7.177   6.865  16.784  0.00  0.00    +0.000 C 
BRANCH  26  27
ATOM     27  C   UNL     1       5.687   7.132  16.682  0.00  0.00    +0.000 C 
BRANCH  27  28
ATOM     28  C   UNL     1       5.080   6.332  15.543  0.00  0.00    +0.000 C 
BRANCH  28  29
ATOM     29  C   UNL     1       6.087   5.311  15.038  0.00  0.00    +0.000 C 
BRANCH  29  30
ATOM     30  C   UNL     1       5.448   4.409  13.993  0.00  0.00    +0.000 C 
BRANCH  30  31
ATOM     31  C   UNL     1       6.521   3.693  13.183  0.00  0.00    +0.000 C 
BRANCH  31  33
ATOM     32  C   UNL     1       4.445   3.382  11.819  0.00  0.00    +0.000 C 
ATOM     33  C   UNL     1       5.918   3.036  11.949  0.00  0.00    +0.000 C 
ENDBRANCH  31  33
ENDBRANCH  30  31
ENDBRANCH  29  30
ENDBRANCH  28  29
ENDBRANCH  27  28
ENDBRANCH  26  27
ENDBRANCH  25  26
ENDBRANCH  24  25
ENDBRANCH  23  24
ENDBRANCH  22  23
ENDBRANCH  21  22
ENDBRANCH   1  21
TORSDOF 17
ENDMDL
MODEL 4
REMARK VINA RESULT:      -6.5      0.884      2.757
REMARK  Name = 
REMARK  18 active torsions:
REMARK  status: ('A' for Active; 'I' for Inactive)
REMARK    1  A    between atoms: C_1  and  C_2
REMARK    2  A    between atoms: C_2  and  C_3
REMARK    3  A    between atoms: C_3  and  C_4
REMARK    4  A    between atoms: C_4  and  C_5
REMARK    5  A    between atoms: C_5  and  C_6
REMARK    6  A    between atoms: C_6  and  C_7
REMARK    7  A    between atoms: C_7  and  C_8
REMARK    8  A    between atoms: C_8  and  C_9
REMARK    9  A    between atoms: C_9  and  C_10
REMARK   10  A    between atoms: C_10  and  C_11
REMARK   11  A    between atoms: C_11  and  C_12
REMARK   12  A    between atoms: C_12  and  C_13
REMARK   13  A    between atoms: C_13  and  C_14
REMARK   14  A    between atoms: C_14  and  C_17
REMARK   15  A    between atoms: N_15  and  O_16
REMARK   16  A    between atoms: C_19  and  C_20
REMARK   17  A    between atoms: C_23  and  O_24
REMARK   18  A    between atoms: C_29  and  O_30
REMARK                            x       y       z     vdW  Elec       q    Type
REMARK                         _______ _______ _______ _____ _____    ______ ____
ROOT
ATOM      1  C   UNL     1       6.627   5.421  15.779  0.00  0.00    +0.000 C 
ATOM      2  N   UNL     1       7.453   5.299  14.759  0.00  0.00    +0.000 NA
ENDROOT
BRANCH   1   3
ATOM      3  C   UNL     1       7.227   5.974  17.036  0.00  0.00    +0.000 A 
ATOM      4  C   UNL     1       7.499   7.347  17.106  0.00  0.00    +0.000 A 
ATOM      5  C   UNL     1       8.110   7.925  18.231  0.00  0.00    +0.000 A 
ATOM      6  C   UNL     1       8.416   7.072  19.305  0.00  0.00    +0.000 A 
ATOM      7  C   UNL     1       8.148   5.708  19.257  0.00  0.00    +0.000 A 
ATOM      8  C   UNL     1       7.576   5.172  18.120  0.00  0.00    +0.000 A 
BRANCH   5   9
ATOM      9  C   UNL     1       8.430   9.365  18.281  0.00  0.00    +0.000 A 
ATOM     10  C   UNL     1       7.826  10.287  17.407  0.00  0.00    +0.000 A 
ATOM     11  C   UNL     1       8.134  11.649  17.446  0.00  0.00    +0.000 A 
ATOM     12  C   UNL     1       9.063  12.111  18.374  0.00  0.00    +0.000 A 
ATOM     13  C   UNL     1       9.676  11.231  19.254  0.00  0.00    +0.000 A 
ATOM     14  C   UNL     1       9.364   9.872  19.210  0.00  0.00    +0.000 A 
BRANCH  12  15
ATOM     15  O   UNL     1       9.402  13.429  18.451  0.00  0.00    +0.000 OA
ATOM     16  H   UNL     1       9.241  13.747  19.354  0.00  0.00    +0.000 HD
ENDBRANCH  12  15
ENDBRANCH   5   9
BRANCH   8  17
ATOM     17  O   UNL     1       7.436   3.811  18.065  0.00  0.00    +0.000 OA
ATOM     18  H   UNL     1       7.062   3.459  18.856  0.00  0.00    +0.000 HD
ENDBRANCH   8  17
ENDBRANCH   1   3
BRANCH   2  19
ATOM     19  O   UNL     1       6.879   4.834  13.583  0.00  0.00    +0.000 OA
ATOM     20  H   UNL     1       6.235   5.551  13.398  0.00  0.00    +0.000 HD
ENDBRANCH   2  19
BRANCH   1  21
ATOM     21  C   UNL     1       5.148   5.071  15.764  0.00  0.00    +0.000 C 
BRANCH  21  22
ATOM     22  C   UNL     1       4.594   4.469  17.041  0.00  0.00    +0.000 C 
BRANCH  22  23
ATOM     23  C   UNL     1       3.212   3.836  16.862  0.00  0.00    +0.000 C 
BRANCH  23  24
ATOM     24  C   UNL     1       3.063   2.680  17.841  0.00  0.00    +0.000 C 
BRANCH  24  25
ATOM     25  C   UNL     1       1.625   2.493  18.262  0.00  0.00    +0.000 C 
BRANCH  25  26
ATOM     26  C   UNL     1       1.502   2.695  19.762  0.00  0.00    +0.000 C 
BRANCH  26  27
ATOM     27  C   UNL     1       1.201   4.155  20.044  0.00  0.00    +0.000 C 
BRANCH  27  28
ATOM     28  C   UNL     1       2.315   4.781  20.863  0.00  0.00    +0.000 C 
BRANCH  28  29
ATOM     29  C   UNL     1       3.086   5.772  20.007  0.00  0.00    +0.000 C 
BRANCH  29  30
ATOM     30  C   UNL     1       2.128   6.615  19.179  0.00  0.00    +0.000 C 
BRANCH  30  31
ATOM     31  C   UNL     1       2.893   7.417  18.135  0.00  0.00    +0.000 C 
BRANCH  31  33
ATOM     32  C   UNL     1       1.370   9.239  18.927  0.00  0.00    +0.000 C 
ATOM     33  C   UNL     1       2.117   8.665  17.737  0.00  0.00    +0.000 C 
ENDBRANCH  31  33
ENDBRANCH  30  31
ENDBRANCH  29  30
ENDBRANCH  28  29
ENDBRANCH  27  28
ENDBRANCH  26  27
ENDBRANCH  25  26
ENDBRANCH  24  25
ENDBRANCH  23  24
ENDBRANCH  22  23
ENDBRANCH  21  22
ENDBRANCH   1  21
TORSDOF 17
ENDMDL
MODEL 5
REMARK VINA RESULT:      -6.5      2.822      8.199
REMARK  Name = 
REMARK  18 active torsions:
REMARK  status: ('A' for Active; 'I' for Inactive)
REMARK    1  A    between atoms: C_1  and  C_2
REMARK    2  A    between atoms: C_2  and  C_3
REMARK    3  A    between atoms: C_3  and  C_4
REMARK    4  A    between atoms: C_4  and  C_5
REMARK    5  A    between atoms: C_5  and  C_6
REMARK    6  A    between atoms: C_6  and  C_7
REMARK    7  A    between atoms: C_7  and  C_8
REMARK    8  A    between atoms: C_8  and  C_9
REMARK    9  A    between atoms: C_9  and  C_10
REMARK   10  A    between atoms: C_10  and  C_11
REMARK   11  A    between atoms: C_11  and  C_12
REMARK   12  A    between atoms: C_12  and  C_13
REMARK   13  A    between atoms: C_13  and  C_14
REMARK   14  A    between atoms: C_14  and  C_17
REMARK   15  A    between atoms: N_15  and  O_16
REMARK   16  A    between atoms: C_19  and  C_20
REMARK   17  A    between atoms: C_23  and  O_24
REMARK   18  A    between atoms: C_29  and  O_30
REMARK                            x       y       z     vdW  Elec       q    Type
REMARK                         _______ _______ _______ _____ _____    ______ ____
ROOT
ATOM      1  C   UNL     1       4.715   4.742  17.372  0.00  0.00    +0.000 C 
ATOM      2  N   UNL     1       4.834   3.468  17.054  0.00  0.00    +0.000 NA
ENDROOT
BRANCH   1   3
ATOM      3  C   UNL     1       3.753   5.047  18.480  0.00  0.00    +0.000 A 
ATOM      4  C   UNL     1       3.176   6.323  18.538  0.00  0.00    +0.000 A 
ATOM      5  C   UNL     1       2.308   6.697  19.578  0.00  0.00    +0.000 A 
ATOM      6  C   UNL     1       2.016   5.726  20.551  0.00  0.00    +0.000 A 
ATOM      7  C   UNL     1       2.574   4.453  20.506  0.00  0.00    +0.000 A 
ATOM      8  C   UNL     1       3.449   4.134  19.486  0.00  0.00    +0.000 A 
BRANCH   5   9
ATOM      9  C   UNL     1       1.736   8.055  19.655  0.00  0.00    +0.000 A 
ATOM     10  C   UNL     1       1.739   8.922  18.547  0.00  0.00    +0.000 A 
ATOM     11  C   UNL     1       1.206  10.211  18.621  0.00  0.00    +0.000 A 
ATOM     12  C   UNL     1       0.656  10.654  19.820  0.00  0.00    +0.000 A 
ATOM     13  C   UNL     1       0.632   9.825  20.931  0.00  0.00    +0.000 A 
ATOM     14  C   UNL     1       1.166   8.539  20.853  0.00  0.00    +0.000 A 
BRANCH  12  15
ATOM     15  O   UNL     1       0.127  11.904  19.945  0.00  0.00    +0.000 OA
ATOM     16  H   UNL     1      -0.163  12.216  19.073  0.00  0.00    +0.000 HD
ENDBRANCH  12  15
ENDBRANCH   5   9
BRANCH   8  17
ATOM     17  O   UNL     1       4.067   2.913  19.542  0.00  0.00    +0.000 OA
ATOM     18  H   UNL     1       4.993   2.990  19.699  0.00  0.00    +0.000 HD
ENDBRANCH   8  17
ENDBRANCH   1   3
BRANCH   2  19
ATOM     19  O   UNL     1       5.764   3.189  16.062  0.00  0.00    +0.000 OA
ATOM     20  H   UNL     1       5.921   2.233  16.222  0.00  0.00    +0.000 HD
ENDBRANCH   2  19
BRANCH   1  21
ATOM     21  C   UNL     1       5.477   5.888  16.727  0.00  0.00    +0.000 C 
BRANCH  21  22
ATOM     22  C   UNL     1       6.976   5.902  16.953  0.00  0.00    +0.000 C 
BRANCH  22  23
ATOM     23  C   UNL     1       7.366   6.031  18.427  0.00  0.00    +0.000 C 
BRANCH  23  24
ATOM     24  C   UNL     1       8.128   7.332  18.630  0.00  0.00    +0.000 C 
BRANCH  24  25
ATOM     25  C   UNL     1       7.874   8.305  17.504  0.00  0.00    +0.000 C 
BRANCH  25  26
ATOM     26  C   UNL     1       8.191   9.717  17.968  0.00  0.00    +0.000 C 
BRANCH  26  27
ATOM     27  C   UNL     1       9.049   9.650  19.216  0.00  0.00    +0.000 C 
BRANCH  27  28
ATOM     28  C   UNL     1       9.994  10.836  19.278  0.00  0.00    +0.000 C 
BRANCH  28  29
ATOM     29  C   UNL     1      10.238  11.372  17.876  0.00  0.00    +0.000 C 
BRANCH  29  30
ATOM     30  C   UNL     1      11.566  12.112  17.816  0.00  0.00    +0.000 C 
BRANCH  30  31
ATOM     31  C   UNL     1      11.358  13.533  17.309  0.00  0.00    +0.000 C 
BRANCH  31  33
ATOM     32  C   UNL     1      11.318  14.419  19.650  0.00  0.00    +0.000 C 
ATOM     33  C   UNL     1      11.955  14.544  18.277  0.00  0.00    +0.000 C 
ENDBRANCH  31  33
ENDBRANCH  30  31
ENDBRANCH  29  30
ENDBRANCH  28  29
ENDBRANCH  27  28
ENDBRANCH  26  27
ENDBRANCH  25  26
ENDBRANCH  24  25
ENDBRANCH  23  24
ENDBRANCH  22  23
ENDBRANCH  21  22
ENDBRANCH   1  21
TORSDOF 17
ENDMDL
MODEL 6
REMARK VINA RESULT:      -6.5      2.878      8.265
REMARK  Name = 
REMARK  18 active torsions:
REMARK  status: ('A' for Active; 'I' for Inactive)
REMARK    1  A    between atoms: C_1  and  C_2
REMARK    2  A    between atoms: C_2  and  C_3
REMARK    3  A    between atoms: C_3  and  C_4
REMARK    4  A    between atoms: C_4  and  C_5
REMARK    5  A    between atoms: C_5  and  C_6
REMARK    6  A    between atoms: C_6  and  C_7
REMARK    7  A    between atoms: C_7  and  C_8
REMARK    8  A    between atoms: C_8  and  C_9
REMARK    9  A    between atoms: C_9  and  C_10
REMARK   10  A    between atoms: C_10  and  C_11
REMARK   11  A    between atoms: C_11  and  C_12
REMARK   12  A    between atoms: C_12  and  C_13
REMARK   13  A    between atoms: C_13  and  C_14
REMARK   14  A    between atoms: C_14  and  C_17
REMARK   15  A    between atoms: N_15  and  O_16
REMARK   16  A    between atoms: C_19  and  C_20
REMARK   17  A    between atoms: C_23  and  O_24
REMARK   18  A    between atoms: C_29  and  O_30
REMARK                            x       y       z     vdW  Elec       q    Type
REMARK                         _______ _______ _______ _____ _____    ______ ____
ROOT
ATOM      1  C   UNL     1       6.530   4.963  19.008  0.00  0.00    +0.000 C 
ATOM      2  N   UNL     1       7.229   5.215  20.097  0.00  0.00    +0.000 NA
ENDROOT
BRANCH   1   3
ATOM      3  C   UNL     1       5.042   4.940  19.184  0.00  0.00    +0.000 A 
ATOM      4  C   UNL     1       4.334   6.146  19.093  0.00  0.00    +0.000 A 
ATOM      5  C   UNL     1       2.946   6.207  19.300  0.00  0.00    +0.000 A 
ATOM      6  C   UNL     1       2.284   5.000  19.578  0.00  0.00    +0.000 A 
ATOM      7  C   UNL     1       2.968   3.792  19.666  0.00  0.00    +0.000 A 
ATOM      8  C   UNL     1       4.338   3.777  19.488  0.00  0.00    +0.000 A 
BRANCH   5   9
ATOM      9  C   UNL     1       2.213   7.487  19.242  0.00  0.00    +0.000 A 
ATOM     10  C   UNL     1       1.587   8.032  20.378  0.00  0.00    +0.000 A 
ATOM     11  C   UNL     1       0.885   9.238  20.323  0.00  0.00    +0.000 A 
ATOM     12  C   UNL     1       0.800   9.923  19.115  0.00  0.00    +0.000 A 
ATOM     13  C   UNL     1       1.407   9.417  17.975  0.00  0.00    +0.000 A 
ATOM     14  C   UNL     1       2.107   8.212  18.036  0.00  0.00    +0.000 A 
BRANCH  12  15
ATOM     15  O   UNL     1       0.124  11.102  19.007  0.00  0.00    +0.000 OA
ATOM     16  H   UNL     1       0.528  11.638  18.306  0.00  0.00    +0.000 HD
ENDBRANCH  12  15
ENDBRANCH   5   9
BRANCH   8  17
ATOM     17  O   UNL     1       4.990   2.591  19.698  0.00  0.00    +0.000 OA
ATOM     18  H   UNL     1       4.436   1.846  19.531  0.00  0.00    +0.000 HD
ENDBRANCH   8  17
ENDBRANCH   1   3
BRANCH   2  19
ATOM     19  O   UNL     1       8.604   5.285  19.916  0.00  0.00    +0.000 OA
ATOM     20  H   UNL     1       8.662   5.969  19.214  0.00  0.00    +0.000 HD
ENDBRANCH   2  19
BRANCH   1  21
ATOM     21  C   UNL     1       7.109   4.722  17.623  0.00  0.00    +0.000 C 
BRANCH  21  22
ATOM     22  C   UNL     1       6.701   5.712  16.549  0.00  0.00    +0.000 C 
BRANCH  22  23
ATOM     23  C   UNL     1       7.628   6.926  16.461  0.00  0.00    +0.000 C 
BRANCH  23  24
ATOM     24  C   UNL     1       7.200   7.957  17.496  0.00  0.00    +0.000 C 
BRANCH  24  25
ATOM     25  C   UNL     1       8.344   8.336  18.406  0.00  0.00    +0.000 C 
BRANCH  25  26
ATOM     26  C   UNL     1       8.743   9.779  18.149  0.00  0.00    +0.000 C 
BRANCH  26  27
ATOM     27  C   UNL     1       9.248  10.393  19.440  0.00  0.00    +0.000 C 
BRANCH  27  28
ATOM     28  C   UNL     1      10.482  11.238  19.182  0.00  0.00    +0.000 C 
BRANCH  28  29
ATOM     29  C   UNL     1      10.774  12.105  20.396  0.00  0.00    +0.000 C 
BRANCH  29  30
ATOM     30  C   UNL     1       9.683  13.151  20.574  0.00  0.00    +0.000 C 
BRANCH  30  31
ATOM     31  C   UNL     1       9.613  13.601  22.028  0.00  0.00    +0.000 C 
BRANCH  31  33
ATOM     32  C   UNL     1      10.344  15.662  20.809  0.00  0.00    +0.000 C 
ATOM     33  C   UNL     1       9.912  15.089  22.147  0.00  0.00    +0.000 C 
ENDBRANCH  31  33
ENDBRANCH  30  31
ENDBRANCH  29  30
ENDBRANCH  28  29
ENDBRANCH  27  28
ENDBRANCH  26  27
ENDBRANCH  25  26
ENDBRANCH  24  25
ENDBRANCH  23  24
ENDBRANCH  22  23
ENDBRANCH  21  22
ENDBRANCH   1  21
TORSDOF 17
ENDMDL
MODEL 7
REMARK VINA RESULT:      -6.5      2.960      7.995
REMARK  Name = 
REMARK  18 active torsions:
REMARK  status: ('A' for Active; 'I' for Inactive)
REMARK    1  A    between atoms: C_1  and  C_2
REMARK    2  A    between atoms: C_2  and  C_3
REMARK    3  A    between atoms: C_3  and  C_4
REMARK    4  A    between atoms: C_4  and  C_5
REMARK    5  A    between atoms: C_5  and  C_6
REMARK    6  A    between atoms: C_6  and  C_7
REMARK    7  A    between atoms: C_7  and  C_8
REMARK    8  A    between atoms: C_8  and  C_9
REMARK    9  A    between atoms: C_9  and  C_10
REMARK   10  A    between atoms: C_10  and  C_11
REMARK   11  A    between atoms: C_11  and  C_12
REMARK   12  A    between atoms: C_12  and  C_13
REMARK   13  A    between atoms: C_13  and  C_14
REMARK   14  A    between atoms: C_14  and  C_17
REMARK   15  A    between atoms: N_15  and  O_16
REMARK   16  A    between atoms: C_19  and  C_20
REMARK   17  A    between atoms: C_23  and  O_24
REMARK   18  A    between atoms: C_29  and  O_30
REMARK                            x       y       z     vdW  Elec       q    Type
REMARK                         _______ _______ _______ _____ _____    ______ ____
ROOT
ATOM      1  C   UNL     1       6.184   5.085  17.322  0.00  0.00    +0.000 C 
ATOM      2  N   UNL     1       6.078   4.448  16.173  0.00  0.00    +0.000 NA
ENDROOT
BRANCH   1   3
ATOM      3  C   UNL     1       4.951   5.095  18.174  0.00  0.00    +0.000 A 
ATOM      4  C   UNL     1       4.165   6.255  18.207  0.00  0.00    +0.000 A 
ATOM      5  C   UNL     1       3.025   6.354  19.024  0.00  0.00    +0.000 A 
ATOM      6  C   UNL     1       2.686   5.228  19.792  0.00  0.00    +0.000 A 
ATOM      7  C   UNL     1       3.450   4.066  19.767  0.00  0.00    +0.000 A 
ATOM      8  C   UNL     1       4.581   4.018  18.976  0.00  0.00    +0.000 A 
BRANCH   5   9
ATOM      9  C   UNL     1       2.225   7.593  19.084  0.00  0.00    +0.000 A 
ATOM     10  C   UNL     1       2.000   8.384  17.942  0.00  0.00    +0.000 A 
ATOM     11  C   UNL     1       1.251   9.561  17.999  0.00  0.00    +0.000 A 
ATOM     12  C   UNL     1       0.711   9.967  19.215  0.00  0.00    +0.000 A 
ATOM     13  C   UNL     1       0.909   9.211  20.360  0.00  0.00    +0.000 A 
ATOM     14  C   UNL     1       1.658   8.035  20.298  0.00  0.00    +0.000 A 
BRANCH  12  15
ATOM     15  O   UNL     1      -0.025  11.109  19.325  0.00  0.00    +0.000 OA
ATOM     16  H   UNL     1       0.073  11.466  20.223  0.00  0.00    +0.000 HD
ENDBRANCH  12  15
ENDBRANCH   5   9
BRANCH   8  17
ATOM     17  O   UNL     1       5.370   2.903  19.068  0.00  0.00    +0.000 OA
ATOM     18  H   UNL     1       6.262   3.115  19.289  0.00  0.00    +0.000 HD
ENDBRANCH   8  17
ENDBRANCH   1   3
BRANCH   2  19
ATOM     19  O   UNL     1       7.239   4.400  15.413  0.00  0.00    +0.000 OA
ATOM     20  H   UNL     1       7.550   3.491  15.611  0.00  0.00    +0.000 HD
ENDBRANCH   2  19
BRANCH   1  21
ATOM     21  C   UNL     1       7.437   5.773  17.839  0.00  0.00    +0.000 C 
BRANCH  21  22
ATOM     22  C   UNL     1       7.512   7.272  17.620  0.00  0.00    +0.000 C 
BRANCH  22  23
ATOM     23  C   UNL     1       8.434   7.984  18.613  0.00  0.00    +0.000 C 
BRANCH  23  24
ATOM     24  C   UNL     1       8.514   9.459  18.250  0.00  0.00    +0.000 C 
BRANCH  24  25
ATOM     25  C   UNL     1       9.260  10.249  19.298  0.00  0.00    +0.000 C 
BRANCH  25  26
ATOM     26  C   UNL     1       9.948  11.437  18.649  0.00  0.00    +0.000 C 
BRANCH  26  27
ATOM     27  C   UNL     1      10.714  12.208  19.706  0.00  0.00    +0.000 C 
BRANCH  27  28
ATOM     28  C   UNL     1       9.989  12.150  21.038  0.00  0.00    +0.000 C 
BRANCH  28  29
ATOM     29  C   UNL     1       9.017  13.314  21.145  0.00  0.00    +0.000 C 
BRANCH  29  30
ATOM     30  C   UNL     1       9.300  14.127  22.399  0.00  0.00    +0.000 C 
BRANCH  30  31
ATOM     31  C   UNL     1       8.491  13.590  23.573  0.00  0.00    +0.000 C 
BRANCH  31  33
ATOM     32  C   UNL     1       6.670  11.875  23.647  0.00  0.00    +0.000 C 
ATOM     33  C   UNL     1       7.073  13.248  23.139  0.00  0.00    +0.000 C 
ENDBRANCH  31  33
ENDBRANCH  30  31
ENDBRANCH  29  30
ENDBRANCH  28  29
ENDBRANCH  27  28
ENDBRANCH  26  27
ENDBRANCH  25  26
ENDBRANCH  24  25
ENDBRANCH  23  24
ENDBRANCH  22  23
ENDBRANCH  21  22
ENDBRANCH   1  21
TORSDOF 17
ENDMDL
MODEL 8
REMARK VINA RESULT:      -6.4      2.961      8.118
REMARK  Name = 
REMARK  18 active torsions:
REMARK  status: ('A' for Active; 'I' for Inactive)
REMARK    1  A    between atoms: C_1  and  C_2
REMARK    2  A    between atoms: C_2  and  C_3
REMARK    3  A    between atoms: C_3  and  C_4
REMARK    4  A    between atoms: C_4  and  C_5
REMARK    5  A    between atoms: C_5  and  C_6
REMARK    6  A    between atoms: C_6  and  C_7
REMARK    7  A    between atoms: C_7  and  C_8
REMARK    8  A    between atoms: C_8  and  C_9
REMARK    9  A    between atoms: C_9  and  C_10
REMARK   10  A    between atoms: C_10  and  C_11
REMARK   11  A    between atoms: C_11  and  C_12
REMARK   12  A    between atoms: C_12  and  C_13
REMARK   13  A    between atoms: C_13  and  C_14
REMARK   14  A    between atoms: C_14  and  C_17
REMARK   15  A    between atoms: N_15  and  O_16
REMARK   16  A    between atoms: C_19  and  C_20
REMARK   17  A    between atoms: C_23  and  O_24
REMARK   18  A    between atoms: C_29  and  O_30
REMARK                            x       y       z     vdW  Elec       q    Type
REMARK                         _______ _______ _______ _____ _____    ______ ____
ROOT
ATOM      1  C   UNL     1       4.932   4.718  18.266  0.00  0.00    +0.000 C 
ATOM      2  N   UNL     1       4.761   3.804  17.331  0.00  0.00    +0.000 NA
ENDROOT
BRANCH   1   3
ATOM      3  C   UNL     1       3.740   4.987  19.135  0.00  0.00    +0.000 A 
ATOM      4  C   UNL     1       3.225   6.289  19.187  0.00  0.00    +0.000 A 
ATOM      5  C   UNL     1       2.144   6.626  20.020  0.00  0.00    +0.000 A 
ATOM      6  C   UNL     1       1.577   5.593  20.784  0.00  0.00    +0.000 A 
ATOM      7  C   UNL     1       2.071   4.293  20.741  0.00  0.00    +0.000 A 
ATOM      8  C   UNL     1       3.155   4.009  19.934  0.00  0.00    +0.000 A 
BRANCH   5   9
ATOM      9  C   UNL     1       1.633   8.008  20.100  0.00  0.00    +0.000 A 
ATOM     10  C   UNL     1       1.547   8.831  18.962  0.00  0.00    +0.000 A 
ATOM     11  C   UNL     1       1.072  10.142  19.037  0.00  0.00    +0.000 A 
ATOM     12  C   UNL     1       0.672  10.653  20.268  0.00  0.00    +0.000 A 
ATOM     13  C   UNL     1       0.739   9.869  21.410  0.00  0.00    +0.000 A 
ATOM     14  C   UNL     1       1.214   8.560  21.330  0.00  0.00    +0.000 A 
BRANCH  12  15
ATOM     15  O   UNL     1       0.204  11.927  20.397  0.00  0.00    +0.000 OA
ATOM     16  H   UNL     1      -0.428  12.108  19.683  0.00  0.00    +0.000 HD
ENDBRANCH  12  15
ENDBRANCH   5   9
BRANCH   8  17
ATOM     17  O   UNL     1       3.684   2.748  20.008  0.00  0.00    +0.000 OA
ATOM     18  H   UNL     1       4.349   2.679  20.673  0.00  0.00    +0.000 HD
ENDBRANCH   8  17
ENDBRANCH   1   3
BRANCH   2  19
ATOM     19  O   UNL     1       5.884   3.526  16.563  0.00  0.00    +0.000 OA
ATOM     20  H   UNL     1       6.566   3.432  17.264  0.00  0.00    +0.000 HD
ENDBRANCH   2  19
BRANCH   1  21
ATOM     21  C   UNL     1       6.219   5.482  18.531  0.00  0.00    +0.000 C 
BRANCH  21  22
ATOM     22  C   UNL     1       6.512   6.638  17.594  0.00  0.00    +0.000 C 
BRANCH  22  23
ATOM     23  C   UNL     1       7.892   7.261  17.814  0.00  0.00    +0.000 C 
BRANCH  23  24
ATOM     24  C   UNL     1       7.790   8.771  17.652  0.00  0.00    +0.000 C 
BRANCH  24  25
ATOM     25  C   UNL     1       8.793   9.491  18.520  0.00  0.00    +0.000 C 
BRANCH  25  26
ATOM     26  C   UNL     1       8.805  10.968  18.168  0.00  0.00    +0.000 C 
BRANCH  26  27
ATOM     27  C   UNL     1      10.239  11.426  17.986  0.00  0.00    +0.000 C 
BRANCH  27  28
ATOM     28  C   UNL     1      10.972  11.422  19.315  0.00  0.00    +0.000 C 
BRANCH  28  29
ATOM     29  C   UNL     1      10.567  12.640  20.129  0.00  0.00    +0.000 C 
BRANCH  29  30
ATOM     30  C   UNL     1       9.859  12.212  21.407  0.00  0.00    +0.000 C 
BRANCH  30  31
ATOM     31  C   UNL     1       9.313  13.427  22.143  0.00  0.00    +0.000 C 
BRANCH  31  33
ATOM     32  C   UNL     1       7.596  11.817  22.996  0.00  0.00    +0.000 C 
ATOM     33  C   UNL     1       8.480  13.002  23.344  0.00  0.00    +0.000 C 
ENDBRANCH  31  33
ENDBRANCH  30  31
ENDBRANCH  29  30
ENDBRANCH  28  29
ENDBRANCH  27  28
ENDBRANCH  26  27
ENDBRANCH  25  26
ENDBRANCH  24  25
ENDBRANCH  23  24
ENDBRANCH  22  23
ENDBRANCH  21  22
ENDBRANCH   1  21
TORSDOF 17
ENDMDL
MODEL 9
REMARK VINA RESULT:      -6.3      2.794      8.498
REMARK  Name = 
REMARK  18 active torsions:
REMARK  status: ('A' for Active; 'I' for Inactive)
REMARK    1  A    between atoms: C_1  and  C_2
REMARK    2  A    between atoms: C_2  and  C_3
REMARK    3  A    between atoms: C_3  and  C_4
REMARK    4  A    between atoms: C_4  and  C_5
REMARK    5  A    between atoms: C_5  and  C_6
REMARK    6  A    between atoms: C_6  and  C_7
REMARK    7  A    between atoms: C_7  and  C_8
REMARK    8  A    between atoms: C_8  and  C_9
REMARK    9  A    between atoms: C_9  and  C_10
REMARK   10  A    between atoms: C_10  and  C_11
REMARK   11  A    between atoms: C_11  and  C_12
REMARK   12  A    between atoms: C_12  and  C_13
REMARK   13  A    between atoms: C_13  and  C_14
REMARK   14  A    between atoms: C_14  and  C_17
REMARK   15  A    between atoms: N_15  and  O_16
REMARK   16  A    between atoms: C_19  and  C_20
REMARK   17  A    between atoms: C_23  and  O_24
REMARK   18  A    between atoms: C_29  and  O_30
REMARK                            x       y       z     vdW  Elec       q    Type
REMARK                         _______ _______ _______ _____ _____    ______ ____
ROOT
ATOM      1  C   UNL     1       5.653   4.832  16.781  0.00  0.00    +0.000 C 
ATOM      2  N   UNL     1       5.474   3.785  16.000  0.00  0.00    +0.000 NA
ENDROOT
BRANCH   1   3
ATOM      3  C   UNL     1       4.648   4.999  17.881  0.00  0.00    +0.000 A 
ATOM      4  C   UNL     1       3.884   6.173  17.922  0.00  0.00    +0.000 A 
ATOM      5  C   UNL     1       2.962   6.421  18.953  0.00  0.00    +0.000 A 
ATOM      6  C   UNL     1       2.814   5.428  19.935  0.00  0.00    +0.000 A 
ATOM      7  C   UNL     1       3.558   4.253  19.908  0.00  0.00    +0.000 A 
ATOM      8  C   UNL     1       4.478   4.060  18.895  0.00  0.00    +0.000 A 
BRANCH   5   9
ATOM      9  C   UNL     1       2.190   7.678  19.012  0.00  0.00    +0.000 A 
ATOM     10  C   UNL     1       2.003   8.485  17.874  0.00  0.00    +0.000 A 
ATOM     11  C   UNL     1       1.280   9.678  17.930  0.00  0.00    +0.000 A 
ATOM     12  C   UNL     1       0.729  10.086  19.141  0.00  0.00    +0.000 A 
ATOM     13  C   UNL     1       0.891   9.315  20.282  0.00  0.00    +0.000 A 
ATOM     14  C   UNL     1       1.613   8.123  20.221  0.00  0.00    +0.000 A 
BRANCH  12  15
ATOM     15  O   UNL     1       0.019  11.244  19.250  0.00  0.00    +0.000 OA
ATOM     16  H   UNL     1      -0.568  11.332  18.481  0.00  0.00    +0.000 HD
ENDBRANCH  12  15
ENDBRANCH   5   9
BRANCH   8  17
ATOM     17  O   UNL     1       5.273   2.948  18.968  0.00  0.00    +0.000 OA
ATOM     18  H   UNL     1       6.051   3.099  19.479  0.00  0.00    +0.000 HD
ENDBRANCH   8  17
ENDBRANCH   1   3
BRANCH   2  19
ATOM     19  O   UNL     1       6.437   3.610  15.015  0.00  0.00    +0.000 OA
ATOM     20  H   UNL     1       6.034   4.112  14.274  0.00  0.00    +0.000 HD
ENDBRANCH   2  19
BRANCH   1  21
ATOM     21  C   UNL     1       6.784   5.840  16.663  0.00  0.00    +0.000 C 
BRANCH  21  22
ATOM     22  C   UNL     1       6.711   7.035  17.593  0.00  0.00    +0.000 C 
BRANCH  22  23
ATOM     23  C   UNL     1       7.878   8.010  17.420  0.00  0.00    +0.000 C 
BRANCH  23  24
ATOM     24  C   UNL     1       8.552   8.226  18.767  0.00  0.00    +0.000 C 
BRANCH  24  25
ATOM     25  C   UNL     1       9.012   9.654  18.934  0.00  0.00    +0.000 C 
BRANCH  25  26
ATOM     26  C   UNL     1       8.544  10.483  17.750  0.00  0.00    +0.000 C 
BRANCH  26  27
ATOM     27  C   UNL     1       8.852  11.944  18.011  0.00  0.00    +0.000 C 
BRANCH  27  28
ATOM     28  C   UNL     1      10.243  12.099  18.600  0.00  0.00    +0.000 C 
BRANCH  28  29
ATOM     29  C   UNL     1      11.283  11.969  17.499  0.00  0.00    +0.000 C 
BRANCH  29  30
ATOM     30  C   UNL     1      11.413  13.279  16.736  0.00  0.00    +0.000 C 
BRANCH  30  31
ATOM     31  C   UNL     1      11.298  14.461  17.689  0.00  0.00    +0.000 C 
BRANCH  31  33
ATOM     32  C   UNL     1       9.994  16.576  17.380  0.00  0.00    +0.000 C 
ATOM     33  C   UNL     1      11.193  15.769  16.916  0.00  0.00    +0.000 C 
ENDBRANCH  31  33
ENDBRANCH  30  31
ENDBRANCH  29  30
ENDBRANCH  28  29
ENDBRANCH  27  28
ENDBRANCH  26  27
ENDBRANCH  25  26
ENDBRANCH  24  25
ENDBRANCH  23  24
ENDBRANCH  22  23
ENDBRANCH  21  22
ENDBRANCH   1  21
TORSDOF 17
ENDMDL
