MODEL 1
REMARK VINA RESULT:      -7.0      0.000      0.000
REMARK  Name = 
REMARK  8 active torsions:
REMARK  status: ('A' for Active; 'I' for Inactive)
REMARK    1  A    between atoms: C_1  and  O_2
REMARK    2  A    between atoms: O_2  and  C_3
REMARK    3  A    between atoms: C_3  and  C_5
REMARK    4  A    between atoms: C_8  and  C_9
REMARK    5  A    between atoms: C_9  and  C_10
REMARK    6  A    between atoms: C_9  and  C_11
REMARK    7  A    between atoms: C_9  and  C_12
REMARK    8  A    between atoms: C_22  and  C_23
REMARK                            x       y       z     vdW  Elec       q    Type
REMARK                         _______ _______ _______ _____ _____    ______ ____
ROOT
ATOM      1  C   UNL     1       2.684   6.347  20.213  0.00  0.00    +0.000 C 
ATOM      2  C   UNL     1       1.890   5.397  21.077  0.00  0.00    +0.000 C 
ATOM      3  O   UNL     1       2.238   4.085  20.650  0.00  0.00    +0.000 OA
ATOM      4  C   UNL     1       2.803   4.156  19.312  0.00  0.00    +0.000 C 
ATOM      5  N   UNL     1       3.036   5.559  19.027  0.00  0.00    +0.000 N 
ATOM      6  C   UNL     1       3.860   6.198  18.116  0.00  0.00    +0.000 C 
ATOM      7  O   UNL     1       3.864   7.437  18.123  0.00  0.00    +0.000 OA
ATOM      8  N   UNL     1       4.684   5.501  17.211  0.00  0.00    +0.000 N 
ATOM      9  C   UNL     1       5.054   4.171  17.242  0.00  0.00    +0.000 C 
ATOM     10  C   UNL     1       5.617   3.499  16.240  0.00  0.00    +0.000 C 
ATOM     11  C   UNL     1       5.946   4.176  14.991  0.00  0.00    +0.000 C 
ATOM     12  O   UNL     1       6.250   3.503  14.008  0.00  0.00    +0.000 OA
ATOM     13  C   UNL     1       5.958   5.672  14.970  0.00  0.00    +0.000 C 
ATOM     14  C   UNL     1       5.415   6.360  16.236  0.00  0.00    +0.000 C 
ATOM     15  C   UNL     1       6.570   7.090  16.948  0.00  0.00    +0.000 C 
ENDROOT
BRANCH   4  16
ATOM     16  C   UNL     1       1.894   3.302  18.355  0.00  0.00    +0.000 C 
ATOM     17  C   UNL     1       1.267   4.201  17.276  0.00  0.00    +0.000 C 
ATOM     18  C   UNL     1       2.525   2.129  17.579  0.00  0.00    +0.000 C 
ATOM     19  C   UNL     1       0.809   2.669  19.262  0.00  0.00    +0.000 C 
ENDBRANCH   4  16
BRANCH   1  20
ATOM     20  C   UNL     1       1.824   7.598  20.084  0.00  0.00    +0.000 C 
ATOM     21  O   UNL     1       1.679   8.254  19.056  0.00  0.00    +0.000 OA
BRANCH  20  23
ATOM     22  C   UNL     1       1.277   9.025  21.883  0.00  0.00    +0.000 C 
ATOM     23  O   UNL     1       1.098   7.770  21.225  0.00  0.00    +0.000 OA
ENDBRANCH  20  23
ENDBRANCH   1  20
TORSDOF 3
ENDMDL
MODEL 2
REMARK VINA RESULT:      -6.6      1.057      1.440
REMARK  Name = 
REMARK  8 active torsions:
REMARK  status: ('A' for Active; 'I' for Inactive)
REMARK    1  A    between atoms: C_1  and  O_2
REMARK    2  A    between atoms: O_2  and  C_3
REMARK    3  A    between atoms: C_3  and  C_5
REMARK    4  A    between atoms: C_8  and  C_9
REMARK    5  A    between atoms: C_9  and  C_10
REMARK    6  A    between atoms: C_9  and  C_11
REMARK    7  A    between atoms: C_9  and  C_12
REMARK    8  A    between atoms: C_22  and  C_23
REMARK                            x       y       z     vdW  Elec       q    Type
REMARK                         _______ _______ _______ _____ _____    ______ ____
ROOT
ATOM      1  C   UNL     1       2.760   5.288  20.647  0.00  0.00    +0.000 C 
ATOM      2  C   UNL     1       2.368   4.091  21.480  0.00  0.00    +0.000 C 
ATOM      3  O   UNL     1       3.044   2.975  20.912  0.00  0.00    +0.000 OA
ATOM      4  C   UNL     1       3.430   3.297  19.548  0.00  0.00    +0.000 C 
ATOM      5  N   UNL     1       3.211   4.719  19.373  0.00  0.00    +0.000 N 
ATOM      6  C   UNL     1       3.718   5.633  18.465  0.00  0.00    +0.000 C 
ATOM      7  O   UNL     1       3.358   6.813  18.582  0.00  0.00    +0.000 OA
ATOM      8  N   UNL     1       4.618   5.276  17.443  0.00  0.00    +0.000 N 
ATOM      9  C   UNL     1       5.365   4.120  17.327  0.00  0.00    +0.000 C 
ATOM     10  C   UNL     1       6.000   3.713  16.230  0.00  0.00    +0.000 C 
ATOM     11  C   UNL     1       5.992   4.535  15.026  0.00  0.00    +0.000 C 
ATOM     12  O   UNL     1       6.384   4.049  13.967  0.00  0.00    +0.000 OA
ATOM     13  C   UNL     1       5.562   5.964  15.138  0.00  0.00    +0.000 C 
ATOM     14  C   UNL     1       4.965   6.375  16.497  0.00  0.00    +0.000 C 
ATOM     15  C   UNL     1       5.918   7.372  17.184  0.00  0.00    +0.000 C 
ENDROOT
BRANCH   4  16
ATOM     16  C   UNL     1       2.725   2.271  18.589  0.00  0.00    +0.000 C 
ATOM     17  C   UNL     1       1.385   1.816  19.191  0.00  0.00    +0.000 C 
ATOM     18  C   UNL     1       2.386   2.708  17.149  0.00  0.00    +0.000 C 
ATOM     19  C   UNL     1       3.710   1.084  18.446  0.00  0.00    +0.000 C 
ENDBRANCH   4  16
BRANCH   1  20
ATOM     20  C   UNL     1       1.561   6.228  20.695  0.00  0.00    +0.000 C 
ATOM     21  O   UNL     1       0.397   5.900  20.477  0.00  0.00    +0.000 OA
BRANCH  20  23
ATOM     22  C   UNL     1       1.124   8.543  20.833  0.00  0.00    +0.000 C 
ATOM     23  O   UNL     1       1.949   7.434  21.196  0.00  0.00    +0.000 OA
ENDBRANCH  20  23
ENDBRANCH   1  20
TORSDOF 3
ENDMDL
MODEL 3
REMARK VINA RESULT:      -6.5      8.393     10.661
REMARK  Name = 
REMARK  8 active torsions:
REMARK  status: ('A' for Active; 'I' for Inactive)
REMARK    1  A    between atoms: C_1  and  O_2
REMARK    2  A    between atoms: O_2  and  C_3
REMARK    3  A    between atoms: C_3  and  C_5
REMARK    4  A    between atoms: C_8  and  C_9
REMARK    5  A    between atoms: C_9  and  C_10
REMARK    6  A    between atoms: C_9  and  C_11
REMARK    7  A    between atoms: C_9  and  C_12
REMARK    8  A    between atoms: C_22  and  C_23
REMARK                            x       y       z     vdW  Elec       q    Type
REMARK                         _______ _______ _______ _____ _____    ______ ____
ROOT
ATOM      1  C   UNL     1       7.283  12.856  22.804  0.00  0.00    +0.000 C 
ATOM      2  C   UNL     1       6.664  14.131  23.325  0.00  0.00    +0.000 C 
ATOM      3  O   UNL     1       6.851  15.108  22.309  0.00  0.00    +0.000 OA
ATOM      4  C   UNL     1       7.926  14.678  21.430  0.00  0.00    +0.000 C 
ATOM      5  N   UNL     1       8.222  13.300  21.769  0.00  0.00    +0.000 N 
ATOM      6  C   UNL     1       8.853  12.286  21.069  0.00  0.00    +0.000 C 
ATOM      7  O   UNL     1       8.938  11.179  21.621  0.00  0.00    +0.000 OA
ATOM      8  N   UNL     1       9.378  12.462  19.774  0.00  0.00    +0.000 N 
ATOM      9  C   UNL     1       9.126  13.486  18.882  0.00  0.00    +0.000 C 
ATOM     10  C   UNL     1       9.830  13.748  17.784  0.00  0.00    +0.000 C 
ATOM     11  C   UNL     1      10.946  12.891  17.400  0.00  0.00    +0.000 C 
ATOM     12  O   UNL     1      11.718  13.272  16.523  0.00  0.00    +0.000 OA
ATOM     13  C   UNL     1      11.074  11.550  18.052  0.00  0.00    +0.000 C 
ATOM     14  C   UNL     1      10.116  11.288  19.229  0.00  0.00    +0.000 C 
ATOM     15  C   UNL     1       9.118  10.184  18.829  0.00  0.00    +0.000 C 
ENDROOT
BRANCH   4  16
ATOM     16  C   UNL     1       9.063  15.762  21.489  0.00  0.00    +0.000 C 
ATOM     17  C   UNL     1       8.887  16.650  22.732  0.00  0.00    +0.000 C 
ATOM     18  C   UNL     1      10.534  15.298  21.536  0.00  0.00    +0.000 C 
ATOM     19  C   UNL     1       8.925  16.587  20.184  0.00  0.00    +0.000 C 
ENDBRANCH   4  16
BRANCH   1  20
ATOM     20  C   UNL     1       7.784  12.113  24.037  0.00  0.00    +0.000 C 
ATOM     21  O   UNL     1       8.750  12.445  24.720  0.00  0.00    +0.000 OA
BRANCH  20  23
ATOM     22  C   UNL     1       6.315  11.254  25.673  0.00  0.00    +0.000 C 
ATOM     23  O   UNL     1       6.894  11.137  24.372  0.00  0.00    +0.000 OA
ENDBRANCH  20  23
ENDBRANCH   1  20
TORSDOF 3
ENDMDL
MODEL 4
REMARK VINA RESULT:      -6.4      0.604      1.020
REMARK  Name = 
REMARK  8 active torsions:
REMARK  status: ('A' for Active; 'I' for Inactive)
REMARK    1  A    between atoms: C_1  and  O_2
REMARK    2  A    between atoms: O_2  and  C_3
REMARK    3  A    between atoms: C_3  and  C_5
REMARK    4  A    between atoms: C_8  and  C_9
REMARK    5  A    between atoms: C_9  and  C_10
REMARK    6  A    between atoms: C_9  and  C_11
REMARK    7  A    between atoms: C_9  and  C_12
REMARK    8  A    between atoms: C_22  and  C_23
REMARK                            x       y       z     vdW  Elec       q    Type
REMARK                         _______ _______ _______ _____ _____    ______ ____
ROOT
ATOM      1  C   UNL     1       2.657   6.499  20.130  0.00  0.00    +0.000 C 
ATOM      2  C   UNL     1       1.821   5.589  20.998  0.00  0.00    +0.000 C 
ATOM      3  O   UNL     1       2.152   4.260  20.615  0.00  0.00    +0.000 OA
ATOM      4  C   UNL     1       2.752   4.283  19.291  0.00  0.00    +0.000 C 
ATOM      5  N   UNL     1       3.022   5.672  18.975  0.00  0.00    +0.000 N 
ATOM      6  C   UNL     1       3.882   6.269  18.069  0.00  0.00    +0.000 C 
ATOM      7  O   UNL     1       3.913   7.508  18.043  0.00  0.00    +0.000 OA
ATOM      8  N   UNL     1       4.714   5.532  17.205  0.00  0.00    +0.000 N 
ATOM      9  C   UNL     1       5.055   4.196  17.280  0.00  0.00    +0.000 C 
ATOM     10  C   UNL     1       5.629   3.486  16.311  0.00  0.00    +0.000 C 
ATOM     11  C   UNL     1       6.004   4.122  15.054  0.00  0.00    +0.000 C 
ATOM     12  O   UNL     1       6.319   3.416  14.098  0.00  0.00    +0.000 OA
ATOM     13  C   UNL     1       6.048   5.616  14.994  0.00  0.00    +0.000 C 
ATOM     14  C   UNL     1       5.487   6.349  16.227  0.00  0.00    +0.000 C 
ATOM     15  C   UNL     1       6.639   7.074  16.948  0.00  0.00    +0.000 C 
ENDROOT
BRANCH   4  16
ATOM     16  C   UNL     1       1.850   3.422  18.334  0.00  0.00    +0.000 C 
ATOM     17  C   UNL     1       1.241   4.311  17.237  0.00  0.00    +0.000 C 
ATOM     18  C   UNL     1       2.484   2.236  17.579  0.00  0.00    +0.000 C 
ATOM     19  C   UNL     1       0.751   2.806  19.235  0.00  0.00    +0.000 C 
ENDBRANCH   4  16
BRANCH   1  20
ATOM     20  C   UNL     1       1.827   7.763  19.946  0.00  0.00    +0.000 C 
ATOM     21  O   UNL     1       1.616   8.604  20.818  0.00  0.00    +0.000 OA
BRANCH  20  23
ATOM     22  C   UNL     1       1.175   9.242  18.226  0.00  0.00    +0.000 C 
ATOM     23  O   UNL     1       1.512   7.913  18.629  0.00  0.00    +0.000 OA
ENDBRANCH  20  23
ENDBRANCH   1  20
TORSDOF 3
ENDMDL
MODEL 5
REMARK VINA RESULT:      -6.4      2.430      4.329
REMARK  Name = 
REMARK  8 active torsions:
REMARK  status: ('A' for Active; 'I' for Inactive)
REMARK    1  A    between atoms: C_1  and  O_2
REMARK    2  A    between atoms: O_2  and  C_3
REMARK    3  A    between atoms: C_3  and  C_5
REMARK    4  A    between atoms: C_8  and  C_9
REMARK    5  A    between atoms: C_9  and  C_10
REMARK    6  A    between atoms: C_9  and  C_11
REMARK    7  A    between atoms: C_9  and  C_12
REMARK    8  A    between atoms: C_22  and  C_23
REMARK                            x       y       z     vdW  Elec       q    Type
REMARK                         _______ _______ _______ _____ _____    ______ ____
ROOT
ATOM      1  C   UNL     1       3.052   3.398  18.523  0.00  0.00    +0.000 C 
ATOM      2  C   UNL     1       1.628   3.656  18.093  0.00  0.00    +0.000 C 
ATOM      3  O   UNL     1       1.649   4.874  17.357  0.00  0.00    +0.000 OA
ATOM      4  C   UNL     1       2.855   5.612  17.697  0.00  0.00    +0.000 C 
ATOM      5  N   UNL     1       3.701   4.711  18.455  0.00  0.00    +0.000 N 
ATOM      6  C   UNL     1       5.060   4.713  18.719  0.00  0.00    +0.000 C 
ATOM      7  O   UNL     1       5.511   3.776  19.393  0.00  0.00    +0.000 OA
ATOM      8  N   UNL     1       5.929   5.715  18.246  0.00  0.00    +0.000 N 
ATOM      9  C   UNL     1       5.699   6.647  17.253  0.00  0.00    +0.000 C 
ATOM     10  C   UNL     1       6.440   7.727  17.016  0.00  0.00    +0.000 C 
ATOM     11  C   UNL     1       7.643   7.983  17.800  0.00  0.00    +0.000 C 
ATOM     12  O   UNL     1       8.182   9.085  17.725  0.00  0.00    +0.000 OA
ATOM     13  C   UNL     1       8.209   6.870  18.624  0.00  0.00    +0.000 C 
ATOM     14  C   UNL     1       7.337   5.604  18.724  0.00  0.00    +0.000 C 
ATOM     15  C   UNL     1       8.045   4.446  17.996  0.00  0.00    +0.000 C 
ENDROOT
BRANCH   4  16
ATOM     16  C   UNL     1       2.423   6.990  18.316  0.00  0.00    +0.000 C 
ATOM     17  C   UNL     1       2.401   6.899  19.851  0.00  0.00    +0.000 C 
ATOM     18  C   UNL     1       3.263   8.245  18.003  0.00  0.00    +0.000 C 
ATOM     19  C   UNL     1       1.010   7.280  17.749  0.00  0.00    +0.000 C 
ENDBRANCH   4  16
BRANCH   1  20
ATOM     20  C   UNL     1       2.949   2.652  19.847  0.00  0.00    +0.000 C 
ATOM     21  O   UNL     1       3.446   1.552  20.080  0.00  0.00    +0.000 OA
BRANCH  20  23
ATOM     22  C   UNL     1       1.490   2.822  21.695  0.00  0.00    +0.000 C 
ATOM     23  O   UNL     1       2.385   3.464  20.785  0.00  0.00    +0.000 OA
ENDBRANCH  20  23
ENDBRANCH   1  20
TORSDOF 3
ENDMDL
MODEL 6
REMARK VINA RESULT:      -6.4      2.732      6.521
REMARK  Name = 
REMARK  8 active torsions:
REMARK  status: ('A' for Active; 'I' for Inactive)
REMARK    1  A    between atoms: C_1  and  O_2
REMARK    2  A    between atoms: O_2  and  C_3
REMARK    3  A    between atoms: C_3  and  C_5
REMARK    4  A    between atoms: C_8  and  C_9
REMARK    5  A    between atoms: C_9  and  C_10
REMARK    6  A    between atoms: C_9  and  C_11
REMARK    7  A    between atoms: C_9  and  C_12
REMARK    8  A    between atoms: C_22  and  C_23
REMARK                            x       y       z     vdW  Elec       q    Type
REMARK                         _______ _______ _______ _____ _____    ______ ____
ROOT
ATOM      1  C   UNL     1       6.072   4.058  15.571  0.00  0.00    +0.000 C 
ATOM      2  C   UNL     1       7.520   4.480  15.630  0.00  0.00    +0.000 C 
ATOM      3  O   UNL     1       7.915   4.356  16.991  0.00  0.00    +0.000 OA
ATOM      4  C   UNL     1       6.728   4.349  17.831  0.00  0.00    +0.000 C 
ATOM      5  N   UNL     1       5.588   4.209  16.947  0.00  0.00    +0.000 N 
ATOM      6  C   UNL     1       4.288   3.785  17.166  0.00  0.00    +0.000 C 
ATOM      7  O   UNL     1       3.527   3.749  16.187  0.00  0.00    +0.000 OA
ATOM      8  N   UNL     1       3.816   3.391  18.432  0.00  0.00    +0.000 N 
ATOM      9  C   UNL     1       4.551   3.070  19.557  0.00  0.00    +0.000 C 
ATOM     10  C   UNL     1       4.069   2.954  20.792  0.00  0.00    +0.000 C 
ATOM     11  C   UNL     1       2.642   3.115  21.045  0.00  0.00    +0.000 C 
ATOM     12  O   UNL     1       2.249   3.230  22.204  0.00  0.00    +0.000 OA
ATOM     13  C   UNL     1       1.701   3.076  19.882  0.00  0.00    +0.000 C 
ATOM     14  C   UNL     1       2.361   3.072  18.491  0.00  0.00    +0.000 C 
ATOM     15  C   UNL     1       2.097   1.715  17.812  0.00  0.00    +0.000 C 
ENDROOT
BRANCH   4  16
ATOM     16  C   UNL     1       6.818   5.576  18.808  0.00  0.00    +0.000 C 
ATOM     17  C   UNL     1       5.413   5.977  19.288  0.00  0.00    +0.000 C 
ATOM     18  C   UNL     1       7.656   5.444  20.096  0.00  0.00    +0.000 C 
ATOM     19  C   UNL     1       7.480   6.715  17.992  0.00  0.00    +0.000 C 
ENDBRANCH   4  16
BRANCH   1  20
ATOM     20  C   UNL     1       5.456   4.870  14.438  0.00  0.00    +0.000 C 
ATOM     21  O   UNL     1       5.409   6.098  14.393  0.00  0.00    +0.000 OA
BRANCH  20  23
ATOM     22  C   UNL     1       6.232   3.615  12.597  0.00  0.00    +0.000 C 
ATOM     23  O   UNL     1       5.134   4.041  13.406  0.00  0.00    +0.000 OA
ENDBRANCH  20  23
ENDBRANCH   1  20
TORSDOF 3
ENDMDL
MODEL 7
REMARK VINA RESULT:      -6.2      2.429      4.543
REMARK  Name = 
REMARK  8 active torsions:
REMARK  status: ('A' for Active; 'I' for Inactive)
REMARK    1  A    between atoms: C_1  and  O_2
REMARK    2  A    between atoms: O_2  and  C_3
REMARK    3  A    between atoms: C_3  and  C_5
REMARK    4  A    between atoms: C_8  and  C_9
REMARK    5  A    between atoms: C_9  and  C_10
REMARK    6  A    between atoms: C_9  and  C_11
REMARK    7  A    between atoms: C_9  and  C_12
REMARK    8  A    between atoms: C_22  and  C_23
REMARK                            x       y       z     vdW  Elec       q    Type
REMARK                         _______ _______ _______ _____ _____    ______ ____
ROOT
ATOM      1  C   UNL     1       2.881   3.622  18.582  0.00  0.00    +0.000 C 
ATOM      2  C   UNL     1       1.467   3.934  18.155  0.00  0.00    +0.000 C 
ATOM      3  O   UNL     1       1.535   5.140  17.404  0.00  0.00    +0.000 OA
ATOM      4  C   UNL     1       2.771   5.833  17.730  0.00  0.00    +0.000 C 
ATOM      5  N   UNL     1       3.583   4.907  18.496  0.00  0.00    +0.000 N 
ATOM      6  C   UNL     1       4.942   4.856  18.754  0.00  0.00    +0.000 C 
ATOM      7  O   UNL     1       5.358   3.910  19.438  0.00  0.00    +0.000 OA
ATOM      8  N   UNL     1       5.849   5.816  18.266  0.00  0.00    +0.000 N 
ATOM      9  C   UNL     1       5.653   6.746  17.263  0.00  0.00    +0.000 C 
ATOM     10  C   UNL     1       6.436   7.791  17.010  0.00  0.00    +0.000 C 
ATOM     11  C   UNL     1       7.652   8.007  17.787  0.00  0.00    +0.000 C 
ATOM     12  O   UNL     1       8.235   9.085  17.696  0.00  0.00    +0.000 OA
ATOM     13  C   UNL     1       8.176   6.882  18.621  0.00  0.00    +0.000 C 
ATOM     14  C   UNL     1       7.253   5.654  18.739  0.00  0.00    +0.000 C 
ATOM     15  C   UNL     1       7.911   4.459  18.023  0.00  0.00    +0.000 C 
ENDROOT
BRANCH   4  16
ATOM     16  C   UNL     1       2.398   7.234  18.335  0.00  0.00    +0.000 C 
ATOM     17  C   UNL     1       2.378   7.162  19.871  0.00  0.00    +0.000 C 
ATOM     18  C   UNL     1       3.288   8.450  18.005  0.00  0.00    +0.000 C 
ATOM     19  C   UNL     1       0.996   7.576  17.769  0.00  0.00    +0.000 C 
ENDBRANCH   4  16
BRANCH   1  20
ATOM     20  C   UNL     1       2.754   2.896  19.916  0.00  0.00    +0.000 C 
ATOM     21  O   UNL     1       2.408   3.416  20.974  0.00  0.00    +0.000 OA
BRANCH  20  23
ATOM     22  C   UNL     1       3.668   1.184  18.574  0.00  0.00    +0.000 C 
ATOM     23  O   UNL     1       2.900   1.556  19.719  0.00  0.00    +0.000 OA
ENDBRANCH  20  23
ENDBRANCH   1  20
TORSDOF 3
ENDMDL
MODEL 8
REMARK VINA RESULT:      -6.1      9.062     12.024
REMARK  Name = 
REMARK  8 active torsions:
REMARK  status: ('A' for Active; 'I' for Inactive)
REMARK    1  A    between atoms: C_1  and  O_2
REMARK    2  A    between atoms: O_2  and  C_3
REMARK    3  A    between atoms: C_3  and  C_5
REMARK    4  A    between atoms: C_8  and  C_9
REMARK    5  A    between atoms: C_9  and  C_10
REMARK    6  A    between atoms: C_9  and  C_11
REMARK    7  A    between atoms: C_9  and  C_12
REMARK    8  A    between atoms: C_22  and  C_23
REMARK                            x       y       z     vdW  Elec       q    Type
REMARK                         _______ _______ _______ _____ _____    ______ ____
ROOT
ATOM      1  C   UNL     1      11.356  13.495  19.890  0.00  0.00    +0.000 C 
ATOM      2  C   UNL     1      11.818  14.624  19.000  0.00  0.00    +0.000 C 
ATOM      3  O   UNL     1      10.950  15.720  19.266  0.00  0.00    +0.000 OA
ATOM      4  C   UNL     1       9.730  15.221  19.880  0.00  0.00    +0.000 C 
ATOM      5  N   UNL     1       9.969  13.833  20.224  0.00  0.00    +0.000 N 
ATOM      6  C   UNL     1       9.353  12.979  21.122  0.00  0.00    +0.000 C 
ATOM      7  O   UNL     1       9.803  11.828  21.217  0.00  0.00    +0.000 OA
ATOM      8  N   UNL     1       8.262  13.369  21.923  0.00  0.00    +0.000 N 
ATOM      9  C   UNL     1       7.815  14.648  22.194  0.00  0.00    +0.000 C 
ATOM     10  C   UNL     1       6.643  14.960  22.740  0.00  0.00    +0.000 C 
ATOM     11  C   UNL     1       5.721  13.910  23.160  0.00  0.00    +0.000 C 
ATOM     12  O   UNL     1       4.564  14.210  23.447  0.00  0.00    +0.000 OA
ATOM     13  C   UNL     1       6.239  12.512  23.282  0.00  0.00    +0.000 C 
ATOM     14  C   UNL     1       7.665  12.280  22.747  0.00  0.00    +0.000 C 
ATOM     15  C   UNL     1       8.597  11.948  23.928  0.00  0.00    +0.000 C 
ENDROOT
BRANCH   4  16
ATOM     16  C   UNL     1       8.526  15.601  18.944  0.00  0.00    +0.000 C 
ATOM     17  C   UNL     1       7.845  14.329  18.411  0.00  0.00    +0.000 C 
ATOM     18  C   UNL     1       7.378  16.457  19.517  0.00  0.00    +0.000 C 
ATOM     19  C   UNL     1       9.137  16.437  17.792  0.00  0.00    +0.000 C 
ENDBRANCH   4  16
BRANCH   1  20
ATOM     20  C   UNL     1      11.681  12.216  19.128  0.00  0.00    +0.000 C 
ATOM     21  O   UNL     1      12.333  11.274  19.573  0.00  0.00    +0.000 OA
BRANCH  20  23
ATOM     22  C   UNL     1       9.956  11.212  17.869  0.00  0.00    +0.000 C 
ATOM     23  O   UNL     1      10.987  12.197  17.956  0.00  0.00    +0.000 OA
ENDBRANCH  20  23
ENDBRANCH   1  20
TORSDOF 3
ENDMDL
MODEL 9
REMARK VINA RESULT:      -6.0      7.174     10.589
REMARK  Name = 
REMARK  8 active torsions:
REMARK  status: ('A' for Active; 'I' for Inactive)
REMARK    1  A    between atoms: C_1  and  O_2
REMARK    2  A    between atoms: O_2  and  C_3
REMARK    3  A    between atoms: C_3  and  C_5
REMARK    4  A    between atoms: C_8  and  C_9
REMARK    5  A    between atoms: C_9  and  C_10
REMARK    6  A    between atoms: C_9  and  C_11
REMARK    7  A    between atoms: C_9  and  C_12
REMARK    8  A    between atoms: C_22  and  C_23
REMARK                            x       y       z     vdW  Elec       q    Type
REMARK                         _______ _______ _______ _____ _____    ______ ____
ROOT
ATOM      1  C   UNL     1      -5.375  13.537  20.265  0.00  0.00    +0.000 C 
ATOM      2  C   UNL     1      -5.484  14.613  21.318  0.00  0.00    +0.000 C 
ATOM      3  O   UNL     1      -4.152  15.022  21.608  0.00  0.00    +0.000 OA
ATOM      4  C   UNL     1      -3.233  13.980  21.179  0.00  0.00    +0.000 C 
ATOM      5  N   UNL     1      -4.001  13.040  20.387  0.00  0.00    +0.000 N 
ATOM      6  C   UNL     1      -3.629  12.096  19.445  0.00  0.00    +0.000 C 
ATOM      7  O   UNL     1      -4.532  11.441  18.905  0.00  0.00    +0.000 OA
ATOM      8  N   UNL     1      -2.288  11.868  19.080  0.00  0.00    +0.000 N 
ATOM      9  C   UNL     1      -1.188  12.669  19.320  0.00  0.00    +0.000 C 
ATOM     10  C   UNL     1       0.083  12.300  19.187  0.00  0.00    +0.000 C 
ATOM     11  C   UNL     1       0.418  10.967  18.701  0.00  0.00    +0.000 C 
ATOM     12  O   UNL     1       1.577  10.568  18.799  0.00  0.00    +0.000 OA
ATOM     13  C   UNL     1      -0.653  10.155  18.045  0.00  0.00    +0.000 C 
ATOM     14  C   UNL     1      -2.077  10.737  18.132  0.00  0.00    +0.000 C 
ATOM     15  C   UNL     1      -2.541  11.145  16.721  0.00  0.00    +0.000 C 
ENDROOT
BRANCH   4  16
ATOM     16  C   UNL     1      -2.443  13.480  22.442  0.00  0.00    +0.000 C 
ATOM     17  C   UNL     1      -3.187  13.881  23.727  0.00  0.00    +0.000 C 
ATOM     18  C   UNL     1      -2.164  11.971  22.598  0.00  0.00    +0.000 C 
ATOM     19  C   UNL     1      -1.052  14.157  22.363  0.00  0.00    +0.000 C 
ENDBRANCH   4  16
BRANCH   1  20
ATOM     20  C   UNL     1      -6.559  12.608  20.507  0.00  0.00    +0.000 C 
ATOM     21  O   UNL     1      -6.583  11.691  21.325  0.00  0.00    +0.000 OA
BRANCH  20  23
ATOM     22  C   UNL     1      -7.541  12.990  18.395  0.00  0.00    +0.000 C 
ATOM     23  O   UNL     1      -7.643  13.064  19.818  0.00  0.00    +0.000 OA
ENDBRANCH  20  23
ENDBRANCH   1  20
TORSDOF 3
ENDMDL
