MODEL 1
REMARK VINA RESULT:      -8.8      0.000      0.000
REMARK  Name = 
REMARK  10 active torsions:
REMARK  status: ('A' for Active; 'I' for Inactive)
REMARK    1  A    between atoms: C_1  and  O_2
REMARK    2  A    between atoms: O_2  and  C_3
REMARK    3  A    between atoms: C_6  and  N_7
REMARK    4  A    between atoms: C_9  and  C_10
REMARK    5  A    between atoms: C_12  and  C_13
REMARK    6  A    between atoms: C_16  and  N_17
REMARK    7  A    between atoms: N_17  and  S_18
REMARK    8  A    between atoms: S_18  and  C_21
REMARK    9  A    between atoms: C_24  and  C_25
REMARK   10  A    between atoms: C_28  and  C_29
REMARK                            x       y       z     vdW  Elec       q    Type
REMARK                         _______ _______ _______ _____ _____    ______ ____
ROOT
ATOM      1  N   UNL     1      -0.390  11.335  18.256  0.00  0.00    +0.000 N 
ATOM      2  H   UNL     1       0.149  11.620  17.451  0.00  0.00    +0.000 HD
ENDROOT
BRANCH   1   8
ATOM      3  C   UNL     1      -2.592  10.885  17.204  0.00  0.00    +0.000 A 
ATOM      4  C   UNL     1      -3.977  11.053  17.269  0.00  0.00    +0.000 A 
ATOM      5  C   UNL     1      -4.581  11.728  18.338  0.00  0.00    +0.000 A 
ATOM      6  C   UNL     1      -3.830  12.262  19.388  0.00  0.00    +0.000 A 
ATOM      7  C   UNL     1      -2.439  12.075  19.313  0.00  0.00    +0.000 A 
ATOM      8  C   UNL     1      -1.813  11.417  18.237  0.00  0.00    +0.000 A 
BRANCH   6   9
ATOM      9  N   UNL     1      -4.417  12.933  20.440  0.00  0.00    +0.000 N 
ATOM     10  C   UNL     1      -5.881  13.075  20.557  0.00  0.00    +0.000 C 
ATOM     11  C   UNL     1      -6.380  12.397  21.865  0.00  0.00    +0.000 C 
ATOM     12  C   UNL     1      -7.881  12.614  22.035  0.00  0.00    +0.000 C 
ATOM     13  N   UNL     1      -5.685  12.892  23.077  0.00  0.00    +0.000 NA
ATOM     14  C   UNL     1      -4.222  12.729  22.918  0.00  0.00    +0.000 C 
ATOM     15  C   UNL     1      -3.533  13.317  24.149  0.00  0.00    +0.000 C 
ATOM     16  C   UNL     1      -3.681  13.401  21.626  0.00  0.00    +0.000 C 
ATOM     17  H   UNL     1      -6.000  12.359  23.887  0.00  0.00    +0.000 HD
ENDBRANCH   6   9
BRANCH   3  19
ATOM     18  C   UNL     1      -3.088  10.200  14.951  0.00  0.00    +0.000 C 
ATOM     19  O   UNL     1      -2.177  10.328  16.028  0.00  0.00    +0.000 OA
ENDBRANCH   3  19
ENDBRANCH   1   8
BRANCH   1  20
ATOM     20  S   UNL     1       0.462  11.018  19.648  0.00  0.00    +0.000 S 
ATOM     21  O   UNL     1       1.518  12.000  19.806  0.00  0.00    +0.000 OA
ATOM     22  O   UNL     1      -0.521  10.807  20.683  0.00  0.00    +0.000 OA
BRANCH  20  23
ATOM     23  C   UNL     1       1.224   9.433  19.370  0.00  0.00    +0.000 A 
ATOM     24  C   UNL     1       1.211   8.483  20.392  0.00  0.00    +0.000 A 
ATOM     25  C   UNL     1       1.816   7.243  20.204  0.00  0.00    +0.000 A 
ATOM     26  C   UNL     1       2.527   6.978  19.028  0.00  0.00    +0.000 A 
ATOM     27  C   UNL     1       2.560   7.962  18.028  0.00  0.00    +0.000 A 
ATOM     28  F   UNL     1       3.260   7.774  16.901  0.00  0.00    +0.000 F 
ATOM     29  C   UNL     1       1.898   9.179  18.179  0.00  0.00    +0.000 A 
BRANCH  26  30
ATOM     30  C   UNL     1       3.210   5.702  18.860  0.00  0.00    +0.000 A 
ATOM     31  C   UNL     1       4.543   5.522  19.178  0.00  0.00    +0.000 A 
ATOM     32  S   UNL     1       5.079   3.920  18.908  0.00  0.00    +0.000 S 
ATOM     33  C   UNL     1       3.539   3.442  18.350  0.00  0.00    +0.000 A 
ATOM     34  C   UNL     1       3.274   2.043  17.926  0.00  0.00    +0.000 C 
ATOM     35  C   UNL     1       2.643   4.488  18.366  0.00  0.00    +0.000 A 
ENDBRANCH  26  30
ENDBRANCH  20  23
ENDBRANCH   1  20
TORSDOF 6
ENDMDL
MODEL 2
REMARK VINA RESULT:      -8.7      1.306      1.878
REMARK  Name = 
REMARK  10 active torsions:
REMARK  status: ('A' for Active; 'I' for Inactive)
REMARK    1  A    between atoms: C_1  and  O_2
REMARK    2  A    between atoms: O_2  and  C_3
REMARK    3  A    between atoms: C_6  and  N_7
REMARK    4  A    between atoms: C_9  and  C_10
REMARK    5  A    between atoms: C_12  and  C_13
REMARK    6  A    between atoms: C_16  and  N_17
REMARK    7  A    between atoms: N_17  and  S_18
REMARK    8  A    between atoms: S_18  and  C_21
REMARK    9  A    between atoms: C_24  and  C_25
REMARK   10  A    between atoms: C_28  and  C_29
REMARK                            x       y       z     vdW  Elec       q    Type
REMARK                         _______ _______ _______ _____ _____    ______ ____
ROOT
ATOM      1  N   UNL     1      -0.453  11.448  18.372  0.00  0.00    +0.000 N 
ATOM      2  H   UNL     1       0.008  11.720  17.515  0.00  0.00    +0.000 HD
ENDROOT
BRANCH   1   8
ATOM      3  C   UNL     1      -2.765  11.007  17.586  0.00  0.00    +0.000 A 
ATOM      4  C   UNL     1      -4.131  11.217  17.789  0.00  0.00    +0.000 A 
ATOM      5  C   UNL     1      -4.600  11.962  18.879  0.00  0.00    +0.000 A 
ATOM      6  C   UNL     1      -3.729  12.527  19.813  0.00  0.00    +0.000 A 
ATOM      7  C   UNL     1      -2.359  12.298  19.600  0.00  0.00    +0.000 A 
ATOM      8  C   UNL     1      -1.867  11.569  18.500  0.00  0.00    +0.000 A 
BRANCH   6   9
ATOM      9  N   UNL     1      -4.184  13.266  20.884  0.00  0.00    +0.000 N 
ATOM     10  C   UNL     1      -4.650  12.631  22.132  0.00  0.00    +0.000 C 
ATOM     11  C   UNL     1      -3.764  13.087  23.326  0.00  0.00    +0.000 C 
ATOM     12  C   UNL     1      -4.292  12.500  24.632  0.00  0.00    +0.000 C 
ATOM     13  N   UNL     1      -3.686  14.561  23.461  0.00  0.00    +0.000 NA
ATOM     14  C   UNL     1      -3.214  15.157  22.190  0.00  0.00    +0.000 C 
ATOM     15  C   UNL     1      -3.217  16.678  22.338  0.00  0.00    +0.000 C 
ATOM     16  C   UNL     1      -4.078  14.733  20.971  0.00  0.00    +0.000 C 
ATOM     17  H   UNL     1      -3.035  14.796  24.209  0.00  0.00    +0.000 HD
ENDBRANCH   6   9
BRANCH   3  19
ATOM     18  C   UNL     1      -3.144  10.801  15.219  0.00  0.00    +0.000 C 
ATOM     19  O   UNL     1      -2.492  10.380  16.404  0.00  0.00    +0.000 OA
ENDBRANCH   3  19
ENDBRANCH   1   8
BRANCH   1  20
ATOM     20  S   UNL     1       0.530  11.104  19.669  0.00  0.00    +0.000 S 
ATOM     21  O   UNL     1       1.555  12.123  19.785  0.00  0.00    +0.000 OA
ATOM     22  O   UNL     1      -0.349  10.800  20.771  0.00  0.00    +0.000 OA
BRANCH  20  23
ATOM     23  C   UNL     1       1.328   9.569  19.245  0.00  0.00    +0.000 A 
ATOM     24  C   UNL     1       1.790   9.380  17.942  0.00  0.00    +0.000 A 
ATOM     25  C   UNL     1       2.402   8.183  17.582  0.00  0.00    +0.000 A 
ATOM     26  C   UNL     1       2.469   7.124  18.496  0.00  0.00    +0.000 A 
ATOM     27  C   UNL     1       1.964   7.323  19.790  0.00  0.00    +0.000 A 
ATOM     28  F   UNL     1       1.966   6.329  20.689  0.00  0.00    +0.000 F 
ATOM     29  C   UNL     1       1.413   8.542  20.179  0.00  0.00    +0.000 A 
BRANCH  26  30
ATOM     30  C   UNL     1       3.056   5.851  18.097  0.00  0.00    +0.000 A 
ATOM     31  C   UNL     1       4.339   5.747  17.595  0.00  0.00    +0.000 A 
ATOM     32  S   UNL     1       4.780   4.135  17.233  0.00  0.00    +0.000 S 
ATOM     33  C   UNL     1       3.257   3.549  17.731  0.00  0.00    +0.000 A 
ATOM     34  C   UNL     1       2.939   2.098  17.691  0.00  0.00    +0.000 C 
ATOM     35  C   UNL     1       2.433   4.568  18.157  0.00  0.00    +0.000 A 
ENDBRANCH  26  30
ENDBRANCH  20  23
ENDBRANCH   1  20
TORSDOF 6
ENDMDL
MODEL 3
REMARK VINA RESULT:      -8.7      1.134      1.255
REMARK  Name = 
REMARK  10 active torsions:
REMARK  status: ('A' for Active; 'I' for Inactive)
REMARK    1  A    between atoms: C_1  and  O_2
REMARK    2  A    between atoms: O_2  and  C_3
REMARK    3  A    between atoms: C_6  and  N_7
REMARK    4  A    between atoms: C_9  and  C_10
REMARK    5  A    between atoms: C_12  and  C_13
REMARK    6  A    between atoms: C_16  and  N_17
REMARK    7  A    between atoms: N_17  and  S_18
REMARK    8  A    between atoms: S_18  and  C_21
REMARK    9  A    between atoms: C_24  and  C_25
REMARK   10  A    between atoms: C_28  and  C_29
REMARK                            x       y       z     vdW  Elec       q    Type
REMARK                         _______ _______ _______ _____ _____    ______ ____
ROOT
ATOM      1  N   UNL     1      -0.457  11.820  19.498  0.00  0.00    +0.000 N 
ATOM      2  H   UNL     1       0.129  12.301  18.830  0.00  0.00    +0.000 HD
ENDROOT
BRANCH   1   8
ATOM      3  C   UNL     1      -2.656  11.426  18.417  0.00  0.00    +0.000 A 
ATOM      4  C   UNL     1      -4.033  11.655  18.446  0.00  0.00    +0.000 A 
ATOM      5  C   UNL     1      -4.628  12.393  19.479  0.00  0.00    +0.000 A 
ATOM      6  C   UNL     1      -3.875  12.931  20.525  0.00  0.00    +0.000 A 
ATOM      7  C   UNL     1      -2.492  12.683  20.485  0.00  0.00    +0.000 A 
ATOM      8  C   UNL     1      -1.874  11.962  19.446  0.00  0.00    +0.000 A 
BRANCH   6   9
ATOM      9  N   UNL     1      -4.453  13.663  21.541  0.00  0.00    +0.000 N 
ATOM     10  C   UNL     1      -5.850  13.448  21.963  0.00  0.00    +0.000 C 
ATOM     11  C   UNL     1      -5.895  13.003  23.453  0.00  0.00    +0.000 C 
ATOM     12  C   UNL     1      -7.341  12.861  23.920  0.00  0.00    +0.000 C 
ATOM     13  N   UNL     1      -5.190  13.940  24.359  0.00  0.00    +0.000 NA
ATOM     14  C   UNL     1      -3.794  14.125  23.902  0.00  0.00    +0.000 C 
ATOM     15  C   UNL     1      -3.119  15.152  24.811  0.00  0.00    +0.000 C 
ATOM     16  C   UNL     1      -3.705  14.579  22.419  0.00  0.00    +0.000 C 
ATOM     17  H   UNL     1      -5.190  13.557  25.304  0.00  0.00    +0.000 HD
ENDBRANCH   6   9
BRANCH   3  19
ATOM     18  C   UNL     1      -3.162  10.043  16.514  0.00  0.00    +0.000 C 
ATOM     19  O   UNL     1      -2.243  10.812  17.270  0.00  0.00    +0.000 OA
ENDBRANCH   3  19
ENDBRANCH   1   8
BRANCH   1  20
ATOM     20  S   UNL     1       0.315  11.085  20.774  0.00  0.00    +0.000 S 
ATOM     21  O   UNL     1       1.410  11.922  21.226  0.00  0.00    +0.000 OA
ATOM     22  O   UNL     1      -0.721  10.658  21.681  0.00  0.00    +0.000 OA
BRANCH  20  23
ATOM     23  C   UNL     1       1.011   9.594  20.093  0.00  0.00    +0.000 A 
ATOM     24  C   UNL     1       1.206   8.492  20.926  0.00  0.00    +0.000 A 
ATOM     25  C   UNL     1       1.764   7.321  20.421  0.00  0.00    +0.000 A 
ATOM     26  C   UNL     1       2.226   7.274  19.100  0.00  0.00    +0.000 A 
ATOM     27  C   UNL     1       2.054   8.407  18.290  0.00  0.00    +0.000 A 
ATOM     28  F   UNL     1       2.515   8.428  17.031  0.00  0.00    +0.000 F 
ATOM     29  C   UNL     1       1.433   9.559  18.767  0.00  0.00    +0.000 A 
BRANCH  26  30
ATOM     30  C   UNL     1       2.865   6.067  18.593  0.00  0.00    +0.000 A 
ATOM     31  C   UNL     1       4.197   6.026  18.227  0.00  0.00    +0.000 A 
ATOM     32  S   UNL     1       4.690   4.478  17.692  0.00  0.00    +0.000 S 
ATOM     33  C   UNL     1       3.127   3.838  17.931  0.00  0.00    +0.000 A 
ATOM     34  C   UNL     1       2.829   2.409  17.652  0.00  0.00    +0.000 C 
ATOM     35  C   UNL     1       2.251   4.792  18.402  0.00  0.00    +0.000 A 
ENDBRANCH  26  30
ENDBRANCH  20  23
ENDBRANCH   1  20
TORSDOF 6
ENDMDL
MODEL 4
REMARK VINA RESULT:      -8.7      3.688     10.309
REMARK  Name = 
REMARK  10 active torsions:
REMARK  status: ('A' for Active; 'I' for Inactive)
REMARK    1  A    between atoms: C_1  and  O_2
REMARK    2  A    between atoms: O_2  and  C_3
REMARK    3  A    between atoms: C_6  and  N_7
REMARK    4  A    between atoms: C_9  and  C_10
REMARK    5  A    between atoms: C_12  and  C_13
REMARK    6  A    between atoms: C_16  and  N_17
REMARK    7  A    between atoms: N_17  and  S_18
REMARK    8  A    between atoms: S_18  and  C_21
REMARK    9  A    between atoms: C_24  and  C_25
REMARK   10  A    between atoms: C_28  and  C_29
REMARK                            x       y       z     vdW  Elec       q    Type
REMARK                         _______ _______ _______ _____ _____    ______ ____
ROOT
ATOM      1  N   UNL     1       0.226   8.900  21.110  0.00  0.00    +0.000 N 
ATOM      2  H   UNL     1      -0.527   8.281  21.374  0.00  0.00    +0.000 HD
ENDROOT
BRANCH   1   8
ATOM      3  C   UNL     1       1.171   9.329  18.856  0.00  0.00    +0.000 A 
ATOM      4  C   UNL     1       2.025   8.891  17.841  0.00  0.00    +0.000 A 
ATOM      5  C   UNL     1       2.787   7.725  17.983  0.00  0.00    +0.000 A 
ATOM      6  C   UNL     1       2.734   6.947  19.142  0.00  0.00    +0.000 A 
ATOM      7  C   UNL     1       1.878   7.408  20.158  0.00  0.00    +0.000 A 
ATOM      8  C   UNL     1       1.089   8.566  20.026  0.00  0.00    +0.000 A 
BRANCH   6   9
ATOM      9  N   UNL     1       3.478   5.795  19.286  0.00  0.00    +0.000 N 
ATOM     10  C   UNL     1       2.851   4.460  19.332  0.00  0.00    +0.000 C 
ATOM     11  C   UNL     1       3.362   3.590  18.149  0.00  0.00    +0.000 C 
ATOM     12  C   UNL     1       2.782   2.181  18.239  0.00  0.00    +0.000 C 
ATOM     13  N   UNL     1       4.840   3.496  18.094  0.00  0.00    +0.000 NA
ATOM     14  C   UNL     1       5.428   4.855  18.048  0.00  0.00    +0.000 C 
ATOM     15  C   UNL     1       6.950   4.725  18.069  0.00  0.00    +0.000 C 
ATOM     16  C   UNL     1       4.949   5.755  19.219  0.00  0.00    +0.000 C 
ATOM     17  H   UNL     1       5.114   2.979  17.260  0.00  0.00    +0.000 HD
ENDBRANCH   6   9
BRANCH   3  19
ATOM     18  C   UNL     1      -0.830  10.189  17.834  0.00  0.00    +0.000 C 
ATOM     19  O   UNL     1       0.409  10.400  18.486  0.00  0.00    +0.000 OA
ENDBRANCH   3  19
ENDBRANCH   1   8
BRANCH   1  20
ATOM     20  S   UNL     1       0.548  10.162  22.144  0.00  0.00    +0.000 S 
ATOM     21  O   UNL     1       0.731   9.653  23.490  0.00  0.00    +0.000 OA
ATOM     22  O   UNL     1       1.565  10.959  21.503  0.00  0.00    +0.000 OA
BRANCH  20  23
ATOM     23  C   UNL     1      -0.930  11.156  22.130  0.00  0.00    +0.000 A 
ATOM     24  C   UNL     1      -1.215  11.936  21.009  0.00  0.00    +0.000 A 
ATOM     25  C   UNL     1      -2.355  12.734  20.981  0.00  0.00    +0.000 A 
ATOM     26  C   UNL     1      -3.170  12.837  22.115  0.00  0.00    +0.000 A 
ATOM     27  C   UNL     1      -2.844  12.073  23.246  0.00  0.00    +0.000 A 
ATOM     28  F   UNL     1      -3.567  12.165  24.370  0.00  0.00    +0.000 F 
ATOM     29  C   UNL     1      -1.744  11.218  23.257  0.00  0.00    +0.000 A 
BRANCH  26  30
ATOM     30  C   UNL     1      -4.328  13.720  22.103  0.00  0.00    +0.000 A 
ATOM     31  C   UNL     1      -5.598  13.280  21.776  0.00  0.00    +0.000 A 
ATOM     32  S   UNL     1      -6.772  14.520  21.869  0.00  0.00    +0.000 S 
ATOM     33  C   UNL     1      -5.601  15.669  22.337  0.00  0.00    +0.000 A 
ATOM     34  C   UNL     1      -5.976  17.079  22.622  0.00  0.00    +0.000 C 
ATOM     35  C   UNL     1      -4.342  15.114  22.412  0.00  0.00    +0.000 A 
ENDBRANCH  26  30
ENDBRANCH  20  23
ENDBRANCH   1  20
TORSDOF 6
ENDMDL
MODEL 5
REMARK VINA RESULT:      -8.6      1.516      2.166
REMARK  Name = 
REMARK  10 active torsions:
REMARK  status: ('A' for Active; 'I' for Inactive)
REMARK    1  A    between atoms: C_1  and  O_2
REMARK    2  A    between atoms: O_2  and  C_3
REMARK    3  A    between atoms: C_6  and  N_7
REMARK    4  A    between atoms: C_9  and  C_10
REMARK    5  A    between atoms: C_12  and  C_13
REMARK    6  A    between atoms: C_16  and  N_17
REMARK    7  A    between atoms: N_17  and  S_18
REMARK    8  A    between atoms: S_18  and  C_21
REMARK    9  A    between atoms: C_24  and  C_25
REMARK   10  A    between atoms: C_28  and  C_29
REMARK                            x       y       z     vdW  Elec       q    Type
REMARK                         _______ _______ _______ _____ _____    ______ ____
ROOT
ATOM      1  N   UNL     1      -0.859  10.823  18.263  0.00  0.00    +0.000 N 
ATOM      2  H   UNL     1      -0.432  10.831  17.348  0.00  0.00    +0.000 HD
ENDROOT
BRANCH   1   8
ATOM      3  C   UNL     1      -3.233  10.674  17.558  0.00  0.00    +0.000 A 
ATOM      4  C   UNL     1      -4.550  11.081  17.783  0.00  0.00    +0.000 A 
ATOM      5  C   UNL     1      -4.877  11.934  18.845  0.00  0.00    +0.000 A 
ATOM      6  C   UNL     1      -3.908  12.414  19.728  0.00  0.00    +0.000 A 
ATOM      7  C   UNL     1      -2.590  11.986  19.494  0.00  0.00    +0.000 A 
ATOM      8  C   UNL     1      -2.238  11.146  18.420  0.00  0.00    +0.000 A 
BRANCH   6   9
ATOM      9  N   UNL     1      -4.222  13.259  20.772  0.00  0.00    +0.000 N 
ATOM     10  C   UNL     1      -4.834  12.765  22.020  0.00  0.00    +0.000 C 
ATOM     11  C   UNL     1      -3.897  13.060  23.227  0.00  0.00    +0.000 C 
ATOM     12  C   UNL     1      -4.562  12.628  24.531  0.00  0.00    +0.000 C 
ATOM     13  N   UNL     1      -3.521  14.489  23.333  0.00  0.00    +0.000 NA
ATOM     14  C   UNL     1      -2.910  14.943  22.062  0.00  0.00    +0.000 C 
ATOM     15  C   UNL     1      -2.604  16.435  22.178  0.00  0.00    +0.000 C 
ATOM     16  C   UNL     1      -3.819  14.674  20.831  0.00  0.00    +0.000 C 
ATOM     17  H   UNL     1      -2.851  14.605  24.092  0.00  0.00    +0.000 HD
ENDBRANCH   6   9
BRANCH   3  19
ATOM     18  C   UNL     1      -2.960  10.643  15.167  0.00  0.00    +0.000 C 
ATOM     19  O   UNL     1      -3.086   9.961  16.402  0.00  0.00    +0.000 OA
ENDBRANCH   3  19
ENDBRANCH   1   8
BRANCH   1  20
ATOM     20  S   UNL     1       0.169  10.666  19.561  0.00  0.00    +0.000 S 
ATOM     21  O   UNL     1       0.961  11.873  19.702  0.00  0.00    +0.000 OA
ATOM     22  O   UNL     1      -0.632  10.169  20.653  0.00  0.00    +0.000 OA
BRANCH  20  23
ATOM     23  C   UNL     1       1.269   9.337  19.119  0.00  0.00    +0.000 A 
ATOM     24  C   UNL     1       1.853   9.332  17.852  0.00  0.00    +0.000 A 
ATOM     25  C   UNL     1       2.703   8.295  17.476  0.00  0.00    +0.000 A 
ATOM     26  C   UNL     1       2.897   7.201  18.328  0.00  0.00    +0.000 A 
ATOM     27  C   UNL     1       2.269   7.208  19.583  0.00  0.00    +0.000 A 
ATOM     28  F   UNL     1       2.389   6.167  20.418  0.00  0.00    +0.000 F 
ATOM     29  C   UNL     1       1.473   8.275  19.994  0.00  0.00    +0.000 A 
BRANCH  26  30
ATOM     30  C   UNL     1       3.739   6.088  17.906  0.00  0.00    +0.000 A 
ATOM     31  C   UNL     1       3.236   4.823  17.666  0.00  0.00    +0.000 A 
ATOM     32  S   UNL     1       4.439   3.718  17.158  0.00  0.00    +0.000 S 
ATOM     33  C   UNL     1       5.655   4.911  17.262  0.00  0.00    +0.000 A 
ATOM     34  C   UNL     1       7.067   4.604  16.913  0.00  0.00    +0.000 C 
ATOM     35  C   UNL     1       5.148   6.121  17.682  0.00  0.00    +0.000 A 
ENDBRANCH  26  30
ENDBRANCH  20  23
ENDBRANCH   1  20
TORSDOF 6
ENDMDL
MODEL 6
REMARK VINA RESULT:      -8.5      3.506     10.130
REMARK  Name = 
REMARK  10 active torsions:
REMARK  status: ('A' for Active; 'I' for Inactive)
REMARK    1  A    between atoms: C_1  and  O_2
REMARK    2  A    between atoms: O_2  and  C_3
REMARK    3  A    between atoms: C_6  and  N_7
REMARK    4  A    between atoms: C_9  and  C_10
REMARK    5  A    between atoms: C_12  and  C_13
REMARK    6  A    between atoms: C_16  and  N_17
REMARK    7  A    between atoms: N_17  and  S_18
REMARK    8  A    between atoms: S_18  and  C_21
REMARK    9  A    between atoms: C_24  and  C_25
REMARK   10  A    between atoms: C_28  and  C_29
REMARK                            x       y       z     vdW  Elec       q    Type
REMARK                         _______ _______ _______ _____ _____    ______ ____
ROOT
ATOM      1  N   UNL     1      -0.055   9.268  21.013  0.00  0.00    +0.000 N 
ATOM      2  H   UNL     1      -0.849   8.665  21.175  0.00  0.00    +0.000 HD
ENDROOT
BRANCH   1   8
ATOM      3  C   UNL     1       1.024   9.835  18.851  0.00  0.00    +0.000 A 
ATOM      4  C   UNL     1       1.920   9.448  17.852  0.00  0.00    +0.000 A 
ATOM      5  C   UNL     1       2.644   8.252  17.946  0.00  0.00    +0.000 A 
ATOM      6  C   UNL     1       2.507   7.393  19.039  0.00  0.00    +0.000 A 
ATOM      7  C   UNL     1       1.608   7.802  20.039  0.00  0.00    +0.000 A 
ATOM      8  C   UNL     1       0.857   8.990  19.953  0.00  0.00    +0.000 A 
BRANCH   6   9
ATOM      9  N   UNL     1       3.212   6.212  19.135  0.00  0.00    +0.000 N 
ATOM     10  C   UNL     1       2.832   5.149  20.085  0.00  0.00    +0.000 C 
ATOM     11  C   UNL     1       2.475   3.846  19.314  0.00  0.00    +0.000 C 
ATOM     12  C   UNL     1       2.163   2.719  20.295  0.00  0.00    +0.000 C 
ATOM     13  N   UNL     1       3.552   3.400  18.399  0.00  0.00    +0.000 NA
ATOM     14  C   UNL     1       3.900   4.493  17.463  0.00  0.00    +0.000 C 
ATOM     15  C   UNL     1       5.062   4.028  16.587  0.00  0.00    +0.000 C 
ATOM     16  C   UNL     1       4.273   5.812  18.194  0.00  0.00    +0.000 C 
ATOM     17  H   UNL     1       3.230   2.590  17.871  0.00  0.00    +0.000 HD
ENDBRANCH   6   9
BRANCH   3  19
ATOM     18  C   UNL     1       0.953  12.215  18.505  0.00  0.00    +0.000 C 
ATOM     19  O   UNL     1       0.311  10.953  18.523  0.00  0.00    +0.000 OA
ENDBRANCH   3  19
ENDBRANCH   1   8
BRANCH   1  20
ATOM     20  S   UNL     1       0.257  10.417  22.173  0.00  0.00    +0.000 S 
ATOM     21  O   UNL     1       0.412   9.774  23.464  0.00  0.00    +0.000 OA
ATOM     22  O   UNL     1       1.290  11.266  21.634  0.00  0.00    +0.000 OA
BRANCH  20  23
ATOM     23  C   UNL     1      -1.214  11.420  22.234  0.00  0.00    +0.000 A 
ATOM     24  C   UNL     1      -1.946  11.482  23.421  0.00  0.00    +0.000 A 
ATOM     25  C   UNL     1      -3.109  12.244  23.488  0.00  0.00    +0.000 A 
ATOM     26  C   UNL     1      -3.606  12.872  22.339  0.00  0.00    +0.000 A 
ATOM     27  C   UNL     1      -2.875  12.765  21.146  0.00  0.00    +0.000 A 
ATOM     28  F   UNL     1      -3.328  13.312  20.010  0.00  0.00    +0.000 F 
ATOM     29  C   UNL     1      -1.673  12.061  21.088  0.00  0.00    +0.000 A 
BRANCH  26  30
ATOM     30  C   UNL     1      -4.856  13.619  22.399  0.00  0.00    +0.000 A 
ATOM     31  C   UNL     1      -6.054  13.106  21.937  0.00  0.00    +0.000 A 
ATOM     32  S   UNL     1      -7.364  14.184  22.155  0.00  0.00    +0.000 S 
ATOM     33  C   UNL     1      -6.350  15.360  22.860  0.00  0.00    +0.000 A 
ATOM     34  C   UNL     1      -6.892  16.658  23.340  0.00  0.00    +0.000 C 
ATOM     35  C   UNL     1      -5.040  14.935  22.920  0.00  0.00    +0.000 A 
ENDBRANCH  26  30
ENDBRANCH  20  23
ENDBRANCH   1  20
TORSDOF 6
ENDMDL
MODEL 7
REMARK VINA RESULT:      -8.5      1.272      1.867
REMARK  Name = 
REMARK  10 active torsions:
REMARK  status: ('A' for Active; 'I' for Inactive)
REMARK    1  A    between atoms: C_1  and  O_2
REMARK    2  A    between atoms: O_2  and  C_3
REMARK    3  A    between atoms: C_6  and  N_7
REMARK    4  A    between atoms: C_9  and  C_10
REMARK    5  A    between atoms: C_12  and  C_13
REMARK    6  A    between atoms: C_16  and  N_17
REMARK    7  A    between atoms: N_17  and  S_18
REMARK    8  A    between atoms: S_18  and  C_21
REMARK    9  A    between atoms: C_24  and  C_25
REMARK   10  A    between atoms: C_28  and  C_29
REMARK                            x       y       z     vdW  Elec       q    Type
REMARK                         _______ _______ _______ _____ _____    ______ ____
ROOT
ATOM      1  N   UNL     1      -0.579  11.487  18.254  0.00  0.00    +0.000 N 
ATOM      2  H   UNL     1      -0.074  11.761  17.423  0.00  0.00    +0.000 HD
ENDROOT
BRANCH   1   8
ATOM      3  C   UNL     1      -2.822  11.000  17.308  0.00  0.00    +0.000 A 
ATOM      4  C   UNL     1      -4.203  11.167  17.425  0.00  0.00    +0.000 A 
ATOM      5  C   UNL     1      -4.764  11.872  18.498  0.00  0.00    +0.000 A 
ATOM      6  C   UNL     1      -3.973  12.439  19.500  0.00  0.00    +0.000 A 
ATOM      7  C   UNL     1      -2.586  12.253  19.372  0.00  0.00    +0.000 A 
ATOM      8  C   UNL     1      -2.002  11.565  18.291  0.00  0.00    +0.000 A 
BRANCH   6   9
ATOM      9  N   UNL     1      -4.519  13.139  20.555  0.00  0.00    +0.000 N 
ATOM     10  C   UNL     1      -4.589  14.613  20.562  0.00  0.00    +0.000 C 
ATOM     11  C   UNL     1      -6.072  15.075  20.638  0.00  0.00    +0.000 C 
ATOM     12  C   UNL     1      -6.148  16.597  20.731  0.00  0.00    +0.000 C 
ATOM     13  N   UNL     1      -6.804  14.489  21.786  0.00  0.00    +0.000 NA
ATOM     14  C   UNL     1      -6.710  13.012  21.739  0.00  0.00    +0.000 C 
ATOM     15  C   UNL     1      -7.409  12.443  22.973  0.00  0.00    +0.000 C 
ATOM     16  C   UNL     1      -5.243  12.507  21.671  0.00  0.00    +0.000 C 
ATOM     17  H   UNL     1      -7.783  14.768  21.738  0.00  0.00    +0.000 HD
ENDBRANCH   6   9
BRANCH   3  19
ATOM     18  C   UNL     1      -3.280  10.544  14.990  0.00  0.00    +0.000 C 
ATOM     19  O   UNL     1      -2.453  10.410  16.133  0.00  0.00    +0.000 OA
ENDBRANCH   3  19
ENDBRANCH   1   8
BRANCH   1  20
ATOM     20  S   UNL     1       0.329  11.194  19.615  0.00  0.00    +0.000 S 
ATOM     21  O   UNL     1       1.316  12.244  19.776  0.00  0.00    +0.000 OA
ATOM     22  O   UNL     1      -0.608  10.883  20.667  0.00  0.00    +0.000 OA
BRANCH  20  23
ATOM     23  C   UNL     1       1.196   9.676  19.271  0.00  0.00    +0.000 A 
ATOM     24  C   UNL     1       1.700   9.457  17.988  0.00  0.00    +0.000 A 
ATOM     25  C   UNL     1       2.365   8.271  17.689  0.00  0.00    +0.000 A 
ATOM     26  C   UNL     1       2.446   7.250  18.644  0.00  0.00    +0.000 A 
ATOM     27  C   UNL     1       1.898   7.476  19.916  0.00  0.00    +0.000 A 
ATOM     28  F   UNL     1       1.913   6.517  20.852  0.00  0.00    +0.000 F 
ATOM     29  C   UNL     1       1.292   8.687  20.245  0.00  0.00    +0.000 A 
BRANCH  26  30
ATOM     30  C   UNL     1       3.090   5.987  18.308  0.00  0.00    +0.000 A 
ATOM     31  C   UNL     1       4.439   5.891  18.019  0.00  0.00    +0.000 A 
ATOM     32  S   UNL     1       4.932   4.288  17.687  0.00  0.00    +0.000 S 
ATOM     33  C   UNL     1       3.349   3.696  17.912  0.00  0.00    +0.000 A 
ATOM     34  C   UNL     1       3.041   2.248  17.777  0.00  0.00    +0.000 C 
ATOM     35  C   UNL     1       2.466   4.705  18.227  0.00  0.00    +0.000 A 
ENDBRANCH  26  30
ENDBRANCH  20  23
ENDBRANCH   1  20
TORSDOF 6
ENDMDL
MODEL 8
REMARK VINA RESULT:      -8.4      0.903      1.201
REMARK  Name = 
REMARK  10 active torsions:
REMARK  status: ('A' for Active; 'I' for Inactive)
REMARK    1  A    between atoms: C_1  and  O_2
REMARK    2  A    between atoms: O_2  and  C_3
REMARK    3  A    between atoms: C_6  and  N_7
REMARK    4  A    between atoms: C_9  and  C_10
REMARK    5  A    between atoms: C_12  and  C_13
REMARK    6  A    between atoms: C_16  and  N_17
REMARK    7  A    between atoms: N_17  and  S_18
REMARK    8  A    between atoms: S_18  and  C_21
REMARK    9  A    between atoms: C_24  and  C_25
REMARK   10  A    between atoms: C_28  and  C_29
REMARK                            x       y       z     vdW  Elec       q    Type
REMARK                         _______ _______ _______ _____ _____    ______ ____
ROOT
ATOM      1  N   UNL     1      -0.501  11.333  18.792  0.00  0.00    +0.000 N 
ATOM      2  H   UNL     1       0.111  11.742  18.101  0.00  0.00    +0.000 HD
ENDROOT
BRANCH   1   8
ATOM      3  C   UNL     1      -2.667  10.996  17.628  0.00  0.00    +0.000 A 
ATOM      4  C   UNL     1      -4.041  11.248  17.614  0.00  0.00    +0.000 A 
ATOM      5  C   UNL     1      -4.659  11.976  18.639  0.00  0.00    +0.000 A 
ATOM      6  C   UNL     1      -3.936  12.483  19.721  0.00  0.00    +0.000 A 
ATOM      7  C   UNL     1      -2.556  12.212  19.725  0.00  0.00    +0.000 A 
ATOM      8  C   UNL     1      -1.914  11.499  18.694  0.00  0.00    +0.000 A 
BRANCH   6   9
ATOM      9  N   UNL     1      -4.537  13.206  20.729  0.00  0.00    +0.000 N 
ATOM     10  C   UNL     1      -6.003  13.255  20.889  0.00  0.00    +0.000 C 
ATOM     11  C   UNL     1      -6.409  12.668  22.271  0.00  0.00    +0.000 C 
ATOM     12  C   UNL     1      -7.916  12.794  22.478  0.00  0.00    +0.000 C 
ATOM     13  N   UNL     1      -5.714  13.322  23.406  0.00  0.00    +0.000 NA
ATOM     14  C   UNL     1      -4.249  13.248  23.206  0.00  0.00    +0.000 C 
ATOM     15  C   UNL     1      -3.566  13.995  24.352  0.00  0.00    +0.000 C 
ATOM     16  C   UNL     1      -3.799  13.833  21.839  0.00  0.00    +0.000 C 
ATOM     17  H   UNL     1      -5.964  12.846  24.272  0.00  0.00    +0.000 HD
ENDBRANCH   6   9
BRANCH   3  19
ATOM     18  C   UNL     1      -3.005  10.467  15.305  0.00  0.00    +0.000 C 
ATOM     19  O   UNL     1      -2.223  10.396  16.485  0.00  0.00    +0.000 OA
ENDBRANCH   3  19
ENDBRANCH   1   8
BRANCH   1  20
ATOM     20  S   UNL     1       0.225  10.695  20.146  0.00  0.00    +0.000 S 
ATOM     21  O   UNL     1       1.165  11.656  20.690  0.00  0.00    +0.000 OA
ATOM     22  O   UNL     1      -0.838  10.150  20.955  0.00  0.00    +0.000 OA
BRANCH  20  23
ATOM     23  C   UNL     1       1.153   9.296  19.552  0.00  0.00    +0.000 A 
ATOM     24  C   UNL     1       1.431   8.244  20.427  0.00  0.00    +0.000 A 
ATOM     25  C   UNL     1       2.170   7.148  19.991  0.00  0.00    +0.000 A 
ATOM     26  C   UNL     1       2.723   7.137  18.705  0.00  0.00    +0.000 A 
ATOM     27  C   UNL     1       2.463   8.223  17.855  0.00  0.00    +0.000 A 
ATOM     28  F   UNL     1       3.002   8.282  16.629  0.00  0.00    +0.000 F 
ATOM     29  C   UNL     1       1.666   9.292  18.259  0.00  0.00    +0.000 A 
BRANCH  26  30
ATOM     30  C   UNL     1       3.546   6.015  18.274  0.00  0.00    +0.000 A 
ATOM     31  C   UNL     1       3.046   4.735  18.131  0.00  0.00    +0.000 A 
ATOM     32  S   UNL     1       4.223   3.620  17.587  0.00  0.00    +0.000 S 
ATOM     33  C   UNL     1       5.426   4.829  17.544  0.00  0.00    +0.000 A 
ATOM     34  C   UNL     1       6.813   4.521  17.106  0.00  0.00    +0.000 C 
ATOM     35  C   UNL     1       4.935   6.053  17.944  0.00  0.00    +0.000 A 
ENDBRANCH  26  30
ENDBRANCH  20  23
ENDBRANCH   1  20
TORSDOF 6
ENDMDL
MODEL 9
REMARK VINA RESULT:      -8.3      2.718      3.348
REMARK  Name = 
REMARK  10 active torsions:
REMARK  status: ('A' for Active; 'I' for Inactive)
REMARK    1  A    between atoms: C_1  and  O_2
REMARK    2  A    between atoms: O_2  and  C_3
REMARK    3  A    between atoms: C_6  and  N_7
REMARK    4  A    between atoms: C_9  and  C_10
REMARK    5  A    between atoms: C_12  and  C_13
REMARK    6  A    between atoms: C_16  and  N_17
REMARK    7  A    between atoms: N_17  and  S_18
REMARK    8  A    between atoms: S_18  and  C_21
REMARK    9  A    between atoms: C_24  and  C_25
REMARK   10  A    between atoms: C_28  and  C_29
REMARK                            x       y       z     vdW  Elec       q    Type
REMARK                         _______ _______ _______ _____ _____    ______ ____
ROOT
ATOM      1  N   UNL     1      -0.445  10.175  20.335  0.00  0.00    +0.000 N 
ATOM      2  H   UNL     1      -0.755   9.787  19.456  0.00  0.00    +0.000 HD
ENDROOT
BRANCH   1   8
ATOM      3  C   UNL     1       0.550  12.428  20.034  0.00  0.00    +0.000 A 
ATOM      4  C   UNL     1       0.472  13.792  20.326  0.00  0.00    +0.000 A 
ATOM      5  C   UNL     1      -0.574  14.313  21.098  0.00  0.00    +0.000 A 
ATOM      6  C   UNL     1      -1.586  13.499  21.611  0.00  0.00    +0.000 A 
ATOM      7  C   UNL     1      -1.498  12.131  21.299  0.00  0.00    +0.000 A 
ATOM      8  C   UNL     1      -0.444  11.585  20.541  0.00  0.00    +0.000 A 
BRANCH   6   9
ATOM      9  N   UNL     1      -2.615  14.004  22.377  0.00  0.00    +0.000 N 
ATOM     10  C   UNL     1      -3.753  13.169  22.808  0.00  0.00    +0.000 C 
ATOM     11  C   UNL     1      -3.808  13.103  24.361  0.00  0.00    +0.000 C 
ATOM     12  C   UNL     1      -5.031  12.311  24.814  0.00  0.00    +0.000 C 
ATOM     13  N   UNL     1      -3.841  14.441  24.998  0.00  0.00    +0.000 NA
ATOM     14  C   UNL     1      -2.684  15.244  24.540  0.00  0.00    +0.000 C 
ATOM     15  C   UNL     1      -2.790  16.639  25.154  0.00  0.00    +0.000 C 
ATOM     16  C   UNL     1      -2.597  15.342  22.992  0.00  0.00    +0.000 C 
ATOM     17  H   UNL     1      -3.800  14.333  26.010  0.00  0.00    +0.000 HD
ENDBRANCH   6   9
BRANCH   3  19
ATOM     18  C   UNL     1       2.186  12.894  18.331  0.00  0.00    +0.000 C 
ATOM     19  O   UNL     1       1.706  12.086  19.391  0.00  0.00    +0.000 OA
ENDBRANCH   3  19
ENDBRANCH   1   8
BRANCH   1  20
ATOM     20  S   UNL     1       0.282   9.122  21.398  0.00  0.00    +0.000 S 
ATOM     21  O   UNL     1       1.162   9.859  22.285  0.00  0.00    +0.000 OA
ATOM     22  O   UNL     1      -0.769   8.283  21.917  0.00  0.00    +0.000 OA
BRANCH  20  23
ATOM     23  C   UNL     1       1.291   8.066  20.379  0.00  0.00    +0.000 A 
ATOM     24  C   UNL     1       1.690   6.823  20.874  0.00  0.00    +0.000 A 
ATOM     25  C   UNL     1       2.493   5.987  20.104  0.00  0.00    +0.000 A 
ATOM     26  C   UNL     1       2.989   6.427  18.871  0.00  0.00    +0.000 A 
ATOM     27  C   UNL     1       2.607   7.697  18.409  0.00  0.00    +0.000 A 
ATOM     28  F   UNL     1       3.086   8.182  17.256  0.00  0.00    +0.000 F 
ATOM     29  C   UNL     1       1.747   8.511  19.142  0.00  0.00    +0.000 A 
BRANCH  26  30
ATOM     30  C   UNL     1       3.879   5.573  18.095  0.00  0.00    +0.000 A 
ATOM     31  C   UNL     1       3.427   4.481  17.379  0.00  0.00    +0.000 A 
ATOM     32  S   UNL     1       4.680   3.674  16.540  0.00  0.00    +0.000 S 
ATOM     33  C   UNL     1       5.851   4.765  17.130  0.00  0.00    +0.000 A 
ATOM     34  C   UNL     1       7.282   4.642  16.747  0.00  0.00    +0.000 C 
ATOM     35  C   UNL     1       5.292   5.718  17.954  0.00  0.00    +0.000 A 
ENDBRANCH  26  30
ENDBRANCH  20  23
ENDBRANCH   1  20
TORSDOF 6
ENDMDL
