MODEL 1
REMARK VINA RESULT:      -7.1      0.000      0.000
REMARK  Name = 
REMARK  5 active torsions:
REMARK  status: ('A' for Active; 'I' for Inactive)
REMARK    1  A    between atoms: C_4  and  C_5
REMARK    2  A    between atoms: C_5  and  N_6
REMARK    3  A    between atoms: C_9  and  C_10
REMARK    4  A    between atoms: C_10  and  C_11
REMARK    5  A    between atoms: C_11  and  C_12
REMARK                            x       y       z     vdW  Elec       q    Type
REMARK                         _______ _______ _______ _____ _____    ______ ____
ROOT
ATOM      1  N   UNL     1       4.877   5.751  18.445  0.00  0.00    +0.000 NA
ATOM      2  C   UNL     1       5.095   6.972  17.652  0.00  0.00    +0.000 C 
ATOM      3  C   UNL     1       6.332   6.891  16.750  0.00  0.00    +0.000 C 
ATOM      4  C   UNL     1       7.610   6.540  17.525  0.00  0.00    +0.000 C 
ATOM      5  C   UNL     1       7.335   5.231  18.273  0.00  0.00    +0.000 C 
ATOM      6  C   UNL     1       6.088   5.313  19.160  0.00  0.00    +0.000 C 
ENDROOT
BRANCH   1   7
ATOM      7  C   UNL     1       3.773   5.937  19.414  0.00  0.00    +0.000 C 
BRANCH   7  11
ATOM      8  C   UNL     1       0.830   2.763  19.402  0.00  0.00    +0.000 A 
ATOM      9  C   UNL     1       1.037   3.525  20.552  0.00  0.00    +0.000 A 
ATOM     10  C   UNL     1       1.988   4.547  20.554  0.00  0.00    +0.000 A 
ATOM     11  C   UNL     1       2.748   4.822  19.410  0.00  0.00    +0.000 A 
ATOM     12  C   UNL     1       2.516   4.060  18.249  0.00  0.00    +0.000 A 
ATOM     13  C   UNL     1       1.564   3.034  18.252  0.00  0.00    +0.000 A 
ENDBRANCH   7  11
ENDBRANCH   1   7
BRANCH   4  14
ATOM     14  C   UNL     1       8.073   7.701  18.436  0.00  0.00    +0.000 C 
BRANCH  14  15
ATOM     15  C   UNL     1       8.018   9.074  17.752  0.00  0.00    +0.000 C 
BRANCH  15  16
ATOM     16  C   UNL     1       8.882  10.077  18.436  0.00  0.00    +0.000 A 
ATOM     17  C   UNL     1       9.643  11.090  17.894  0.00  0.00    +0.000 A 
ATOM     18  N   UNL     1      10.241  11.700  18.960  0.00  0.00    +0.000 N 
ATOM     19  C   UNL     1       9.838  11.048  20.088  0.00  0.00    +0.000 A 
ATOM     20  N   UNL     1       9.016  10.065  19.806  0.00  0.00    +0.000 NA
ATOM     21  H   UNL     1      10.872  12.490  18.927  0.00  0.00    +0.000 HD
ENDBRANCH  15  16
ENDBRANCH  14  15
ENDBRANCH   4  14
TORSDOF 5
ENDMDL
MODEL 2
REMARK VINA RESULT:      -7.1      0.549      1.179
REMARK  Name = 
REMARK  5 active torsions:
REMARK  status: ('A' for Active; 'I' for Inactive)
REMARK    1  A    between atoms: C_4  and  C_5
REMARK    2  A    between atoms: C_5  and  N_6
REMARK    3  A    between atoms: C_9  and  C_10
REMARK    4  A    between atoms: C_10  and  C_11
REMARK    5  A    between atoms: C_11  and  C_12
REMARK                            x       y       z     vdW  Elec       q    Type
REMARK                         _______ _______ _______ _____ _____    ______ ____
ROOT
ATOM      1  N   UNL     1       4.613   5.779  18.103  0.00  0.00    +0.000 NA
ATOM      2  C   UNL     1       5.075   6.837  17.190  0.00  0.00    +0.000 C 
ATOM      3  C   UNL     1       6.441   6.536  16.561  0.00  0.00    +0.000 C 
ATOM      4  C   UNL     1       7.524   6.242  17.608  0.00  0.00    +0.000 C 
ATOM      5  C   UNL     1       7.007   5.093  18.481  0.00  0.00    +0.000 C 
ATOM      6  C   UNL     1       5.634   5.394  19.092  0.00  0.00    +0.000 C 
ENDROOT
BRANCH   1   7
ATOM      7  C   UNL     1       3.375   6.188  18.806  0.00  0.00    +0.000 C 
BRANCH   7  11
ATOM      8  C   UNL     1       0.790   2.885  19.874  0.00  0.00    +0.000 A 
ATOM      9  C   UNL     1       1.042   3.175  18.533  0.00  0.00    +0.000 A 
ATOM     10  C   UNL     1       1.875   4.242  18.192  0.00  0.00    +0.000 A 
ATOM     11  C   UNL     1       2.466   5.037  19.182  0.00  0.00    +0.000 A 
ATOM     12  C   UNL     1       2.220   4.722  20.532  0.00  0.00    +0.000 A 
ATOM     13  C   UNL     1       1.382   3.653  20.871  0.00  0.00    +0.000 A 
ENDBRANCH   7  11
ENDBRANCH   1   7
BRANCH   4  14
ATOM     14  C   UNL     1       7.919   7.508  18.403  0.00  0.00    +0.000 C 
BRANCH  14  15
ATOM     15  C   UNL     1       8.149   8.740  17.518  0.00  0.00    +0.000 C 
BRANCH  15  16
ATOM     16  C   UNL     1       8.659   9.905  18.295  0.00  0.00    +0.000 A 
ATOM     17  C   UNL     1       8.633  11.246  17.979  0.00  0.00    +0.000 A 
ATOM     18  N   UNL     1       9.241  11.874  19.029  0.00  0.00    +0.000 N 
ATOM     19  C   UNL     1       9.612  10.915  19.926  0.00  0.00    +0.000 A 
ATOM     20  N   UNL     1       9.274   9.716  19.512  0.00  0.00    +0.000 NA
ATOM     21  H   UNL     1       9.393  12.869  19.131  0.00  0.00    +0.000 HD
ENDBRANCH  15  16
ENDBRANCH  14  15
ENDBRANCH   4  14
TORSDOF 5
ENDMDL
MODEL 3
REMARK VINA RESULT:      -7.0      0.988      1.577
REMARK  Name = 
REMARK  5 active torsions:
REMARK  status: ('A' for Active; 'I' for Inactive)
REMARK    1  A    between atoms: C_4  and  C_5
REMARK    2  A    between atoms: C_5  and  N_6
REMARK    3  A    between atoms: C_9  and  C_10
REMARK    4  A    between atoms: C_10  and  C_11
REMARK    5  A    between atoms: C_11  and  C_12
REMARK                            x       y       z     vdW  Elec       q    Type
REMARK                         _______ _______ _______ _____ _____    ______ ____
ROOT
ATOM      1  N   UNL     1       4.598   5.607  17.720  0.00  0.00    +0.000 NA
ATOM      2  C   UNL     1       5.073   6.226  16.471  0.00  0.00    +0.000 C 
ATOM      3  C   UNL     1       6.540   5.908  16.161  0.00  0.00    +0.000 C 
ATOM      4  C   UNL     1       7.483   6.276  17.315  0.00  0.00    +0.000 C 
ATOM      5  C   UNL     1       6.970   5.550  18.564  0.00  0.00    +0.000 C 
ATOM      6  C   UNL     1       5.499   5.859  18.858  0.00  0.00    +0.000 C 
ENDROOT
BRANCH   1   7
ATOM      7  C   UNL     1       3.234   6.073  18.059  0.00  0.00    +0.000 C 
BRANCH   7  11
ATOM      8  C   UNL     1       0.760   3.052  19.927  0.00  0.00    +0.000 A 
ATOM      9  C   UNL     1       1.106   2.943  18.580  0.00  0.00    +0.000 A 
ATOM     10  C   UNL     1       1.902   3.919  17.980  0.00  0.00    +0.000 A 
ATOM     11  C   UNL     1       2.363   5.020  18.713  0.00  0.00    +0.000 A 
ATOM     12  C   UNL     1       2.025   5.109  20.077  0.00  0.00    +0.000 A 
ATOM     13  C   UNL     1       1.223   4.130  20.675  0.00  0.00    +0.000 A 
ENDBRANCH   7  11
ENDBRANCH   1   7
BRANCH   4  14
ATOM     14  C   UNL     1       7.618   7.808  17.487  0.00  0.00    +0.000 C 
BRANCH  14  15
ATOM     15  C   UNL     1       8.484   8.214  18.686  0.00  0.00    +0.000 C 
BRANCH  15  16
ATOM     16  C   UNL     1       8.803   9.670  18.682  0.00  0.00    +0.000 A 
ATOM     17  C   UNL     1       9.542  10.406  19.582  0.00  0.00    +0.000 A 
ATOM     18  N   UNL     1       9.509  11.688  19.111  0.00  0.00    +0.000 N 
ATOM     19  C   UNL     1       8.762  11.690  17.969  0.00  0.00    +0.000 A 
ATOM     20  N   UNL     1       8.322  10.487  17.683  0.00  0.00    +0.000 NA
ATOM     21  H   UNL     1       9.953  12.496  19.528  0.00  0.00    +0.000 HD
ENDBRANCH  15  16
ENDBRANCH  14  15
ENDBRANCH   4  14
TORSDOF 5
ENDMDL
MODEL 4
REMARK VINA RESULT:      -7.0      3.228      5.011
REMARK  Name = 
REMARK  5 active torsions:
REMARK  status: ('A' for Active; 'I' for Inactive)
REMARK    1  A    between atoms: C_4  and  C_5
REMARK    2  A    between atoms: C_5  and  N_6
REMARK    3  A    between atoms: C_9  and  C_10
REMARK    4  A    between atoms: C_10  and  C_11
REMARK    5  A    between atoms: C_11  and  C_12
REMARK                            x       y       z     vdW  Elec       q    Type
REMARK                         _______ _______ _______ _____ _____    ______ ____
ROOT
ATOM      1  N   UNL     1       4.237   6.263  18.302  0.00  0.00    +0.000 NA
ATOM      2  C   UNL     1       4.801   5.006  18.819  0.00  0.00    +0.000 C 
ATOM      3  C   UNL     1       6.316   5.072  19.044  0.00  0.00    +0.000 C 
ATOM      4  C   UNL     1       7.083   5.508  17.788  0.00  0.00    +0.000 C 
ATOM      5  C   UNL     1       6.490   6.850  17.342  0.00  0.00    +0.000 C 
ATOM      6  C   UNL     1       4.974   6.780  17.136  0.00  0.00    +0.000 C 
ENDROOT
BRANCH   1   7
ATOM      7  C   UNL     1       2.808   6.099  17.949  0.00  0.00    +0.000 C 
BRANCH   7  11
ATOM      8  C   UNL     1       0.836   2.864  20.041  0.00  0.00    +0.000 A 
ATOM      9  C   UNL     1       1.009   2.804  18.658  0.00  0.00    +0.000 A 
ATOM     10  C   UNL     1       1.644   3.850  17.986  0.00  0.00    +0.000 A 
ATOM     11  C   UNL     1       2.113   4.971  18.682  0.00  0.00    +0.000 A 
ATOM     12  C   UNL     1       1.950   5.011  20.080  0.00  0.00    +0.000 A 
ATOM     13  C   UNL     1       1.310   3.962  20.750  0.00  0.00    +0.000 A 
ENDBRANCH   7  11
ENDBRANCH   1   7
BRANCH   4  14
ATOM     14  C   UNL     1       7.068   4.417  16.691  0.00  0.00    +0.000 C 
BRANCH  14  15
ATOM     15  C   UNL     1       6.020   4.663  15.598  0.00  0.00    +0.000 C 
BRANCH  15  16
ATOM     16  C   UNL     1       6.610   4.613  14.231  0.00  0.00    +0.000 A 
ATOM     17  C   UNL     1       6.312   3.773  13.180  0.00  0.00    +0.000 A 
ATOM     18  N   UNL     1       7.153   4.149  12.171  0.00  0.00    +0.000 N 
ATOM     19  C   UNL     1       7.921   5.177  12.633  0.00  0.00    +0.000 A 
ATOM     20  N   UNL     1       7.617   5.481  13.873  0.00  0.00    +0.000 NA
ATOM     21  H   UNL     1       7.204   3.742  11.246  0.00  0.00    +0.000 HD
ENDBRANCH  15  16
ENDBRANCH  14  15
ENDBRANCH   4  14
TORSDOF 5
ENDMDL
MODEL 5
REMARK VINA RESULT:      -7.0      3.644      5.083
REMARK  Name = 
REMARK  5 active torsions:
REMARK  status: ('A' for Active; 'I' for Inactive)
REMARK    1  A    between atoms: C_4  and  C_5
REMARK    2  A    between atoms: C_5  and  N_6
REMARK    3  A    between atoms: C_9  and  C_10
REMARK    4  A    between atoms: C_10  and  C_11
REMARK    5  A    between atoms: C_11  and  C_12
REMARK                            x       y       z     vdW  Elec       q    Type
REMARK                         _______ _______ _______ _____ _____    ______ ____
ROOT
ATOM      1  N   UNL     1       3.720   6.584  19.059  0.00  0.00    +0.000 NA
ATOM      2  C   UNL     1       4.556   5.377  19.162  0.00  0.00    +0.000 C 
ATOM      3  C   UNL     1       5.876   5.492  18.391  0.00  0.00    +0.000 C 
ATOM      4  C   UNL     1       5.671   5.857  16.914  0.00  0.00    +0.000 C 
ATOM      5  C   UNL     1       4.851   7.152  16.881  0.00  0.00    +0.000 C 
ATOM      6  C   UNL     1       3.541   7.036  17.668  0.00  0.00    +0.000 C 
ENDROOT
BRANCH   1   7
ATOM      7  C   UNL     1       2.393   6.366  19.680  0.00  0.00    +0.000 C 
BRANCH   7  11
ATOM      8  C   UNL     1       1.011   2.266  19.559  0.00  0.00    +0.000 A 
ATOM      9  C   UNL     1       1.200   2.908  20.782  0.00  0.00    +0.000 A 
ATOM     10  C   UNL     1       1.647   4.230  20.819  0.00  0.00    +0.000 A 
ATOM     11  C   UNL     1       1.916   4.929  19.635  0.00  0.00    +0.000 A 
ATOM     12  C   UNL     1       1.702   4.278  18.405  0.00  0.00    +0.000 A 
ATOM     13  C   UNL     1       1.257   2.951  18.373  0.00  0.00    +0.000 A 
ENDBRANCH   7  11
ENDBRANCH   1   7
BRANCH   4  14
ATOM     14  C   UNL     1       5.043   4.694  16.111  0.00  0.00    +0.000 C 
BRANCH  14  15
ATOM     15  C   UNL     1       6.078   3.708  15.554  0.00  0.00    +0.000 C 
BRANCH  15  16
ATOM     16  C   UNL     1       6.591   4.125  14.219  0.00  0.00    +0.000 A 
ATOM     17  C   UNL     1       6.278   3.636  12.969  0.00  0.00    +0.000 A 
ATOM     18  N   UNL     1       7.039   4.363  12.097  0.00  0.00    +0.000 N 
ATOM     19  C   UNL     1       7.776   5.246  12.830  0.00  0.00    +0.000 A 
ATOM     20  N   UNL     1       7.528   5.129  14.113  0.00  0.00    +0.000 NA
ATOM     21  H   UNL     1       7.058   4.269  11.090  0.00  0.00    +0.000 HD
ENDBRANCH  15  16
ENDBRANCH  14  15
ENDBRANCH   4  14
TORSDOF 5
ENDMDL
MODEL 6
REMARK VINA RESULT:      -7.0      3.691      5.140
REMARK  Name = 
REMARK  5 active torsions:
REMARK  status: ('A' for Active; 'I' for Inactive)
REMARK    1  A    between atoms: C_4  and  C_5
REMARK    2  A    between atoms: C_5  and  N_6
REMARK    3  A    between atoms: C_9  and  C_10
REMARK    4  A    between atoms: C_10  and  C_11
REMARK    5  A    between atoms: C_11  and  C_12
REMARK                            x       y       z     vdW  Elec       q    Type
REMARK                         _______ _______ _______ _____ _____    ______ ____
ROOT
ATOM      1  N   UNL     1       3.533   6.560  19.216  0.00  0.00    +0.000 NA
ATOM      2  C   UNL     1       4.390   5.366  19.296  0.00  0.00    +0.000 C 
ATOM      3  C   UNL     1       5.737   5.541  18.585  0.00  0.00    +0.000 C 
ATOM      4  C   UNL     1       5.582   5.973  17.120  0.00  0.00    +0.000 C 
ATOM      5  C   UNL     1       4.737   7.252  17.114  0.00  0.00    +0.000 C 
ATOM      6  C   UNL     1       3.400   7.074  17.842  0.00  0.00    +0.000 C 
ENDROOT
BRANCH   1   7
ATOM      7  C   UNL     1       2.188   6.288  19.772  0.00  0.00    +0.000 C 
BRANCH   7  11
ATOM      8  C   UNL     1       1.108   2.096  19.783  0.00  0.00    +0.000 A 
ATOM      9  C   UNL     1       1.193   2.797  18.580  0.00  0.00    +0.000 A 
ATOM     10  C   UNL     1       1.540   4.149  18.579  0.00  0.00    +0.000 A 
ATOM     11  C   UNL     1       1.804   4.823  19.779  0.00  0.00    +0.000 A 
ATOM     12  C   UNL     1       1.735   4.100  20.985  0.00  0.00    +0.000 A 
ATOM     13  C   UNL     1       1.384   2.745  20.982  0.00  0.00    +0.000 A 
ENDBRANCH   7  11
ENDBRANCH   1   7
BRANCH   4  14
ATOM     14  C   UNL     1       5.010   4.837  16.239  0.00  0.00    +0.000 C 
BRANCH  14  15
ATOM     15  C   UNL     1       6.078   3.854  15.741  0.00  0.00    +0.000 C 
BRANCH  15  16
ATOM     16  C   UNL     1       6.589   4.216  14.389  0.00  0.00    +0.000 A 
ATOM     17  C   UNL     1       6.238   3.709  13.157  0.00  0.00    +0.000 A 
ATOM     18  N   UNL     1       7.016   4.381  12.256  0.00  0.00    +0.000 N 
ATOM     19  C   UNL     1       7.800   5.251  12.956  0.00  0.00    +0.000 A 
ATOM     20  N   UNL     1       7.566   5.176  14.246  0.00  0.00    +0.000 NA
ATOM     21  H   UNL     1       7.018   4.261  11.252  0.00  0.00    +0.000 HD
ENDBRANCH  15  16
ENDBRANCH  14  15
ENDBRANCH   4  14
TORSDOF 5
ENDMDL
MODEL 7
REMARK VINA RESULT:      -6.9      3.194      5.291
REMARK  Name = 
REMARK  5 active torsions:
REMARK  status: ('A' for Active; 'I' for Inactive)
REMARK    1  A    between atoms: C_4  and  C_5
REMARK    2  A    between atoms: C_5  and  N_6
REMARK    3  A    between atoms: C_9  and  C_10
REMARK    4  A    between atoms: C_10  and  C_11
REMARK    5  A    between atoms: C_11  and  C_12
REMARK                            x       y       z     vdW  Elec       q    Type
REMARK                         _______ _______ _______ _____ _____    ______ ____
ROOT
ATOM      1  N   UNL     1       4.395   6.116  18.263  0.00  0.00    +0.000 NA
ATOM      2  C   UNL     1       4.960   4.782  18.524  0.00  0.00    +0.000 C 
ATOM      3  C   UNL     1       6.478   4.802  18.740  0.00  0.00    +0.000 C 
ATOM      4  C   UNL     1       7.233   5.469  17.582  0.00  0.00    +0.000 C 
ATOM      5  C   UNL     1       6.640   6.872  17.407  0.00  0.00    +0.000 C 
ATOM      6  C   UNL     1       5.121   6.845  17.208  0.00  0.00    +0.000 C 
ENDROOT
BRANCH   1   7
ATOM      7  C   UNL     1       2.962   6.024  17.901  0.00  0.00    +0.000 C 
BRANCH   7  11
ATOM      8  C   UNL     1       0.771   2.966  20.042  0.00  0.00    +0.000 A 
ATOM      9  C   UNL     1       1.246   4.092  20.715  0.00  0.00    +0.000 A 
ATOM     10  C   UNL     1       1.953   5.075  20.022  0.00  0.00    +0.000 A 
ATOM     11  C   UNL     1       2.200   4.950  18.649  0.00  0.00    +0.000 A 
ATOM     12  C   UNL     1       1.698   3.819  17.976  0.00  0.00    +0.000 A 
ATOM     13  C   UNL     1       0.992   2.833  18.675  0.00  0.00    +0.000 A 
ENDBRANCH   7  11
ENDBRANCH   1   7
BRANCH   4  14
ATOM     14  C   UNL     1       7.202   4.608  16.298  0.00  0.00    +0.000 C 
BRANCH  14  15
ATOM     15  C   UNL     1       7.025   5.430  15.014  0.00  0.00    +0.000 C 
BRANCH  15  16
ATOM     16  C   UNL     1       6.755   4.569  13.828  0.00  0.00    +0.000 A 
ATOM     17  C   UNL     1       5.819   3.570  13.668  0.00  0.00    +0.000 A 
ATOM     18  N   UNL     1       6.009   3.100  12.398  0.00  0.00    +0.000 N 
ATOM     19  C   UNL     1       7.035   3.810  11.845  0.00  0.00    +0.000 A 
ATOM     20  N   UNL     1       7.506   4.704  12.682  0.00  0.00    +0.000 NA
ATOM     21  H   UNL     1       5.489   2.361  11.945  0.00  0.00    +0.000 HD
ENDBRANCH  15  16
ENDBRANCH  14  15
ENDBRANCH   4  14
TORSDOF 5
ENDMDL
MODEL 8
REMARK VINA RESULT:      -6.8      0.649      1.100
REMARK  Name = 
REMARK  5 active torsions:
REMARK  status: ('A' for Active; 'I' for Inactive)
REMARK    1  A    between atoms: C_4  and  C_5
REMARK    2  A    between atoms: C_5  and  N_6
REMARK    3  A    between atoms: C_9  and  C_10
REMARK    4  A    between atoms: C_10  and  C_11
REMARK    5  A    between atoms: C_11  and  C_12
REMARK                            x       y       z     vdW  Elec       q    Type
REMARK                         _______ _______ _______ _____ _____    ______ ____
ROOT
ATOM      1  N   UNL     1       5.175   5.423  18.532  0.00  0.00    +0.000 NA
ATOM      2  C   UNL     1       5.143   6.699  17.799  0.00  0.00    +0.000 C 
ATOM      3  C   UNL     1       6.305   6.854  16.810  0.00  0.00    +0.000 C 
ATOM      4  C   UNL     1       7.677   6.669  17.474  0.00  0.00    +0.000 C 
ATOM      5  C   UNL     1       7.662   5.300  18.162  0.00  0.00    +0.000 C 
ATOM      6  C   UNL     1       6.489   5.145  19.135  0.00  0.00    +0.000 C 
ENDROOT
BRANCH   1   7
ATOM      7  C   UNL     1       4.133   5.390  19.585  0.00  0.00    +0.000 C 
BRANCH   7  11
ATOM      8  C   UNL     1       1.323   2.120  19.201  0.00  0.00    +0.000 A 
ATOM      9  C   UNL     1       2.640   1.969  18.768  0.00  0.00    +0.000 A 
ATOM     10  C   UNL     1       3.544   3.026  18.891  0.00  0.00    +0.000 A 
ATOM     11  C   UNL     1       3.146   4.249  19.446  0.00  0.00    +0.000 A 
ATOM     12  C   UNL     1       1.820   4.383  19.899  0.00  0.00    +0.000 A 
ATOM     13  C   UNL     1       0.916   3.322  19.770  0.00  0.00    +0.000 A 
ENDBRANCH   7  11
ENDBRANCH   1   7
BRANCH   4  14
ATOM     14  C   UNL     1       8.028   7.844  18.416  0.00  0.00    +0.000 C 
BRANCH  14  15
ATOM     15  C   UNL     1       8.091   9.202  17.704  0.00  0.00    +0.000 C 
BRANCH  15  16
ATOM     16  C   UNL     1       8.954  10.177  18.428  0.00  0.00    +0.000 A 
ATOM     17  C   UNL     1       9.756  11.177  17.924  0.00  0.00    +0.000 A 
ATOM     18  N   UNL     1      10.333  11.761  19.017  0.00  0.00    +0.000 N 
ATOM     19  C   UNL     1       9.877  11.106  20.123  0.00  0.00    +0.000 A 
ATOM     20  N   UNL     1       9.043  10.145  19.802  0.00  0.00    +0.000 NA
ATOM     21  H   UNL     1      10.982  12.537  19.015  0.00  0.00    +0.000 HD
ENDBRANCH  15  16
ENDBRANCH  14  15
ENDBRANCH   4  14
TORSDOF 5
ENDMDL
MODEL 9
REMARK VINA RESULT:      -6.8      3.665      6.197
REMARK  Name = 
REMARK  5 active torsions:
REMARK  status: ('A' for Active; 'I' for Inactive)
REMARK    1  A    between atoms: C_4  and  C_5
REMARK    2  A    between atoms: C_5  and  N_6
REMARK    3  A    between atoms: C_9  and  C_10
REMARK    4  A    between atoms: C_10  and  C_11
REMARK    5  A    between atoms: C_11  and  C_12
REMARK                            x       y       z     vdW  Elec       q    Type
REMARK                         _______ _______ _______ _____ _____    ______ ____
ROOT
ATOM      1  N   UNL     1       4.431   5.550  17.888  0.00  0.00    +0.000 NA
ATOM      2  C   UNL     1       4.692   4.254  17.240  0.00  0.00    +0.000 C 
ATOM      3  C   UNL     1       6.164   4.056  16.860  0.00  0.00    +0.000 C 
ATOM      4  C   UNL     1       6.709   5.194  15.985  0.00  0.00    +0.000 C 
ATOM      5  C   UNL     1       6.463   6.502  16.745  0.00  0.00    +0.000 C 
ATOM      6  C   UNL     1       4.993   6.686  17.136  0.00  0.00    +0.000 C 
ENDROOT
BRANCH   1   7
ATOM      7  C   UNL     1       2.979   5.762  18.086  0.00  0.00    +0.000 C 
BRANCH   7  11
ATOM      8  C   UNL     1       1.137   3.011  20.875  0.00  0.00    +0.000 A 
ATOM      9  C   UNL     1       1.992   4.012  21.336  0.00  0.00    +0.000 A 
ATOM     10  C   UNL     1       2.585   4.897  20.435  0.00  0.00    +0.000 A 
ATOM     11  C   UNL     1       2.338   4.794  19.060  0.00  0.00    +0.000 A 
ATOM     12  C   UNL     1       1.458   3.793  18.608  0.00  0.00    +0.000 A 
ATOM     13  C   UNL     1       0.866   2.905  19.515  0.00  0.00    +0.000 A 
ENDBRANCH   7  11
ENDBRANCH   1   7
BRANCH   4  14
ATOM     14  C   UNL     1       6.106   5.170  14.561  0.00  0.00    +0.000 C 
BRANCH  14  15
ATOM     15  C   UNL     1       6.972   4.417  13.543  0.00  0.00    +0.000 C 
BRANCH  15  16
ATOM     16  C   UNL     1       6.157   3.568  12.629  0.00  0.00    +0.000 A 
ATOM     17  C   UNL     1       6.521   2.441  11.926  0.00  0.00    +0.000 A 
ATOM     18  N   UNL     1       5.399   2.068  11.240  0.00  0.00    +0.000 N 
ATOM     19  C   UNL     1       4.415   2.963  11.539  0.00  0.00    +0.000 A 
ATOM     20  N   UNL     1       4.840   3.881  12.375  0.00  0.00    +0.000 NA
ATOM     21  H   UNL     1       5.308   1.273  10.620  0.00  0.00    +0.000 HD
ENDBRANCH  15  16
ENDBRANCH  14  15
ENDBRANCH   4  14
TORSDOF 5
ENDMDL
