MODEL 1
REMARK VINA RESULT:      -8.1      0.000      0.000
REMARK  Name = 
REMARK  4 active torsions:
REMARK  status: ('A' for Active; 'I' for Inactive)
REMARK    1  A    between atoms: C_10  and  O_11
REMARK    2  A    between atoms: C_12  and  C_13
REMARK    3  A    between atoms: C_13  and  C_14
REMARK    4  A    between atoms: C_24  and  O_25
REMARK                            x       y       z     vdW  Elec       q    Type
REMARK                         _______ _______ _______ _____ _____    ______ ____
ROOT
ATOM      1  C   UNL     1       0.272  11.056  19.480  0.00  0.00    +0.000 C 
ENDROOT
BRANCH   1  12
ATOM      2  O   UNL     1      -0.158   9.110  21.481  0.00  0.00    +0.000 OA
ATOM      3  C   UNL     1       0.667   8.821  20.622  0.00  0.00    +0.000 A 
ATOM      4  O   UNL     1       1.427   7.669  20.732  0.00  0.00    +0.000 OA
ATOM      5  C   UNL     1       2.256   7.229  19.687  0.00  0.00    +0.000 A 
ATOM      6  C   UNL     1       2.896   6.005  19.884  0.00  0.00    +0.000 A 
ATOM      7  C   UNL     1       3.690   5.482  18.871  0.00  0.00    +0.000 A 
ATOM      8  C   UNL     1       3.825   6.181  17.674  0.00  0.00    +0.000 A 
ATOM      9  C   UNL     1       3.188   7.419  17.497  0.00  0.00    +0.000 A 
ATOM     10  C   UNL     1       2.399   7.973  18.515  0.00  0.00    +0.000 A 
ATOM     11  C   UNL     1       1.735   9.283  18.462  0.00  0.00    +0.000 A 
ATOM     12  C   UNL     1       0.921   9.690  19.449  0.00  0.00    +0.000 A 
BRANCH  11  13
ATOM     13  O   UNL     1       1.986  10.123  17.394  0.00  0.00    +0.000 OA
ATOM     14  H   UNL     1       1.514   9.835  16.602  0.00  0.00    +0.000 HD
ENDBRANCH  11  13
ENDBRANCH   1  12
BRANCH   1  15
ATOM     15  C   UNL     1      -1.110  11.096  18.863  0.00  0.00    +0.000 A 
ATOM     16  C   UNL     1      -1.370  10.429  17.661  0.00  0.00    +0.000 A 
ATOM     17  C   UNL     1      -2.632  10.495  17.066  0.00  0.00    +0.000 A 
ATOM     18 CL   UNL     1      -2.838   9.664  15.560  0.00  0.00    +0.000 Cl
ATOM     19  C   UNL     1      -3.693  11.210  17.673  0.00  0.00    +0.000 A 
ATOM     20  C   UNL     1      -4.995  11.328  17.142  0.00  0.00    +0.000 A 
ATOM     21  C   UNL     1      -5.978  12.035  17.826  0.00  0.00    +0.000 A 
ATOM     22  C   UNL     1      -5.636  12.613  19.031  0.00  0.00    +0.000 A 
ATOM     23  N   UNL     1      -4.401  12.542  19.573  0.00  0.00    +0.000 NA
ATOM     24  C   UNL     1      -3.451  11.853  18.902  0.00  0.00    +0.000 A 
ATOM     25  C   UNL     1      -2.172  11.782  19.461  0.00  0.00    +0.000 A 
BRANCH  25  26
ATOM     26  O   UNL     1      -1.972  12.420  20.667  0.00  0.00    +0.000 OA
ATOM     27  H   UNL     1      -1.162  12.000  21.028  0.00  0.00    +0.000 HD
ENDBRANCH  25  26
ENDBRANCH   1  15
TORSDOF 4
ENDMDL
MODEL 2
REMARK VINA RESULT:      -7.8      0.926      1.086
REMARK  Name = 
REMARK  4 active torsions:
REMARK  status: ('A' for Active; 'I' for Inactive)
REMARK    1  A    between atoms: C_10  and  O_11
REMARK    2  A    between atoms: C_12  and  C_13
REMARK    3  A    between atoms: C_13  and  C_14
REMARK    4  A    between atoms: C_24  and  O_25
REMARK                            x       y       z     vdW  Elec       q    Type
REMARK                         _______ _______ _______ _____ _____    ______ ____
ROOT
ATOM      1  C   UNL     1       1.094  10.442  19.014  0.00  0.00    +0.000 C 
ENDROOT
BRANCH   1  12
ATOM      2  O   UNL     1       0.404   9.104  21.403  0.00  0.00    +0.000 OA
ATOM      3  C   UNL     1       1.086   8.465  20.610  0.00  0.00    +0.000 A 
ATOM      4  O   UNL     1       1.590   7.222  20.953  0.00  0.00    +0.000 OA
ATOM      5  C   UNL     1       2.231   6.400  20.012  0.00  0.00    +0.000 A 
ATOM      6  C   UNL     1       2.610   5.133  20.459  0.00  0.00    +0.000 A 
ATOM      7  C   UNL     1       3.201   4.246  19.567  0.00  0.00    +0.000 A 
ATOM      8  C   UNL     1       3.397   4.632  18.244  0.00  0.00    +0.000 A 
ATOM      9  C   UNL     1       3.026   5.915  17.814  0.00  0.00    +0.000 A 
ATOM     10  C   UNL     1       2.446   6.831  18.702  0.00  0.00    +0.000 A 
ATOM     11  C   UNL     1       2.074   8.215  18.378  0.00  0.00    +0.000 A 
ATOM     12  C   UNL     1       1.435   8.990  19.270  0.00  0.00    +0.000 A 
BRANCH  11  13
ATOM     13  O   UNL     1       2.421   8.735  17.146  0.00  0.00    +0.000 OA
ATOM     14  H   UNL     1       3.078   8.182  16.704  0.00  0.00    +0.000 HD
ENDBRANCH  11  13
ENDBRANCH   1  12
BRANCH   1  15
ATOM     15  C   UNL     1      -0.369  10.689  18.718  0.00  0.00    +0.000 A 
ATOM     16  C   UNL     1      -0.969  10.123  17.587  0.00  0.00    +0.000 A 
ATOM     17  C   UNL     1      -2.309  10.379  17.285  0.00  0.00    +0.000 A 
ATOM     18 CL   UNL     1      -2.943   9.660  15.843  0.00  0.00    +0.000 Cl
ATOM     19  C   UNL     1      -3.108  11.190  18.127  0.00  0.00    +0.000 A 
ATOM     20  C   UNL     1      -4.465  11.500  17.898  0.00  0.00    +0.000 A 
ATOM     21  C   UNL     1      -5.174  12.289  18.797  0.00  0.00    +0.000 A 
ATOM     22  C   UNL     1      -4.507  12.756  19.910  0.00  0.00    +0.000 A 
ATOM     23  N   UNL     1      -3.205  12.501  20.167  0.00  0.00    +0.000 NA
ATOM     24  C   UNL     1      -2.523  11.733  19.287  0.00  0.00    +0.000 A 
ATOM     25  C   UNL     1      -1.175  11.472  19.549  0.00  0.00    +0.000 A 
BRANCH  25  26
ATOM     26  O   UNL     1      -0.637  12.016  20.697  0.00  0.00    +0.000 OA
ATOM     27  H   UNL     1      -0.058  12.739  20.370  0.00  0.00    +0.000 HD
ENDBRANCH  25  26
ENDBRANCH   1  15
TORSDOF 4
ENDMDL
MODEL 3
REMARK VINA RESULT:      -7.4      2.038      2.895
REMARK  Name = 
REMARK  4 active torsions:
REMARK  status: ('A' for Active; 'I' for Inactive)
REMARK    1  A    between atoms: C_10  and  O_11
REMARK    2  A    between atoms: C_12  and  C_13
REMARK    3  A    between atoms: C_13  and  C_14
REMARK    4  A    between atoms: C_24  and  O_25
REMARK                            x       y       z     vdW  Elec       q    Type
REMARK                         _______ _______ _______ _____ _____    ______ ____
ROOT
ATOM      1  C   UNL     1      -1.303  12.651  20.542  0.00  0.00    +0.000 C 
ENDROOT
BRANCH   1  12
ATOM      2  O   UNL     1      -1.032  10.725  22.589  0.00  0.00    +0.000 OA
ATOM      3  C   UNL     1      -0.417  10.496  21.553  0.00  0.00    +0.000 A 
ATOM      4  O   UNL     1       0.459   9.427  21.474  0.00  0.00    +0.000 OA
ATOM      5  C   UNL     1       1.048   9.044  20.258  0.00  0.00    +0.000 A 
ATOM      6  C   UNL     1       1.837   7.894  20.293  0.00  0.00    +0.000 A 
ATOM      7  C   UNL     1       2.409   7.425  19.115  0.00  0.00    +0.000 A 
ATOM      8  C   UNL     1       2.176   8.105  17.922  0.00  0.00    +0.000 A 
ATOM      9  C   UNL     1       1.393   9.268  17.906  0.00  0.00    +0.000 A 
ATOM     10  C   UNL     1       0.824   9.769  19.086  0.00  0.00    +0.000 A 
ATOM     11  C   UNL     1       0.039  11.006  19.197  0.00  0.00    +0.000 A 
ATOM     12  C   UNL     1      -0.547  11.355  20.354  0.00  0.00    +0.000 A 
BRANCH  11  13
ATOM     13  O   UNL     1      -0.065  11.838  18.100  0.00  0.00    +0.000 OA
ATOM     14  H   UNL     1       0.805  12.056  17.740  0.00  0.00    +0.000 HD
ENDBRANCH  11  13
ENDBRANCH   1  12
BRANCH   1  15
ATOM     15  C   UNL     1      -2.807  12.507  20.444  0.00  0.00    +0.000 A 
ATOM     16  C   UNL     1      -3.412  12.212  19.218  0.00  0.00    +0.000 A 
ATOM     17  C   UNL     1      -4.803  12.117  19.112  0.00  0.00    +0.000 A 
ATOM     18 CL   UNL     1      -5.452  11.784  17.542  0.00  0.00    +0.000 Cl
ATOM     19  C   UNL     1      -5.637  12.286  20.243  0.00  0.00    +0.000 A 
ATOM     20  C   UNL     1      -7.046  12.207  20.226  0.00  0.00    +0.000 A 
ATOM     21  C   UNL     1      -7.779  12.366  21.396  0.00  0.00    +0.000 A 
ATOM     22  C   UNL     1      -7.086  12.602  22.565  0.00  0.00    +0.000 A 
ATOM     23  N   UNL     1      -5.740  12.701  22.632  0.00  0.00    +0.000 NA
ATOM     24  C   UNL     1      -5.035  12.546  21.489  0.00  0.00    +0.000 A 
ATOM     25  C   UNL     1      -3.643  12.653  21.556  0.00  0.00    +0.000 A 
BRANCH  25  26
ATOM     26  O   UNL     1      -3.086  12.905  22.793  0.00  0.00    +0.000 OA
ATOM     27  H   UNL     1      -3.806  12.695  23.426  0.00  0.00    +0.000 HD
ENDBRANCH  25  26
ENDBRANCH   1  15
TORSDOF 4
ENDMDL
MODEL 4
REMARK VINA RESULT:      -7.3      1.879      2.275
REMARK  Name = 
REMARK  4 active torsions:
REMARK  status: ('A' for Active; 'I' for Inactive)
REMARK    1  A    between atoms: C_10  and  O_11
REMARK    2  A    between atoms: C_12  and  C_13
REMARK    3  A    between atoms: C_13  and  C_14
REMARK    4  A    between atoms: C_24  and  O_25
REMARK                            x       y       z     vdW  Elec       q    Type
REMARK                         _______ _______ _______ _____ _____    ______ ____
ROOT
ATOM      1  C   UNL     1       0.590  11.572  19.582  0.00  0.00    +0.000 C 
ENDROOT
BRANCH   1  12
ATOM      2  O   UNL     1       0.101   9.946  21.839  0.00  0.00    +0.000 OA
ATOM      3  C   UNL     1       0.748   9.428  20.935  0.00  0.00    +0.000 A 
ATOM      4  O   UNL     1       1.311   8.174  21.100  0.00  0.00    +0.000 OA
ATOM      5  C   UNL     1       1.913   7.489  20.031  0.00  0.00    +0.000 A 
ATOM      6  C   UNL     1       2.358   6.195  20.303  0.00  0.00    +0.000 A 
ATOM      7  C   UNL     1       2.915   5.438  19.279  0.00  0.00    +0.000 A 
ATOM      8  C   UNL     1       3.011   5.980  18.000  0.00  0.00    +0.000 A 
ATOM      9  C   UNL     1       2.573   7.288  17.746  0.00  0.00    +0.000 A 
ATOM     10  C   UNL     1       2.026   8.075  18.769  0.00  0.00    +0.000 A 
ATOM     11  C   UNL     1       1.591   9.471  18.631  0.00  0.00    +0.000 A 
ATOM     12  C   UNL     1       0.991  10.115  19.646  0.00  0.00    +0.000 A 
BRANCH  11  13
ATOM     13  O   UNL     1       1.840  10.141  17.449  0.00  0.00    +0.000 OA
ATOM     14  H   UNL     1       1.766   9.550  16.688  0.00  0.00    +0.000 HD
ENDBRANCH  11  13
ENDBRANCH   1  12
BRANCH   1  15
ATOM     15  C   UNL     1      -0.905  11.798  19.503  0.00  0.00    +0.000 A 
ATOM     16  C   UNL     1      -1.591  12.382  20.574  0.00  0.00    +0.000 A 
ATOM     17  C   UNL     1      -2.977  12.556  20.524  0.00  0.00    +0.000 A 
ATOM     18 CL   UNL     1      -3.734  13.254  21.917  0.00  0.00    +0.000 Cl
ATOM     19  C   UNL     1      -3.723  12.178  19.382  0.00  0.00    +0.000 A 
ATOM     20  C   UNL     1      -5.121  12.318  19.248  0.00  0.00    +0.000 A 
ATOM     21  C   UNL     1      -5.762  11.938  18.074  0.00  0.00    +0.000 A 
ATOM     22  C   UNL     1      -4.989  11.421  17.055  0.00  0.00    +0.000 A 
ATOM     23  N   UNL     1      -3.652  11.252  17.140  0.00  0.00    +0.000 NA
ATOM     24  C   UNL     1      -3.036  11.625  18.284  0.00  0.00    +0.000 A 
ATOM     25  C   UNL     1      -1.652  11.447  18.374  0.00  0.00    +0.000 A 
BRANCH  25  26
ATOM     26  O   UNL     1      -1.011  10.906  17.279  0.00  0.00    +0.000 OA
ATOM     27  H   UNL     1      -1.079  11.604  16.593  0.00  0.00    +0.000 HD
ENDBRANCH  25  26
ENDBRANCH   1  15
TORSDOF 4
ENDMDL
MODEL 5
REMARK VINA RESULT:      -7.3      0.640      1.979
REMARK  Name = 
REMARK  4 active torsions:
REMARK  status: ('A' for Active; 'I' for Inactive)
REMARK    1  A    between atoms: C_10  and  O_11
REMARK    2  A    between atoms: C_12  and  C_13
REMARK    3  A    between atoms: C_13  and  C_14
REMARK    4  A    between atoms: C_24  and  O_25
REMARK                            x       y       z     vdW  Elec       q    Type
REMARK                         _______ _______ _______ _____ _____    ______ ____
ROOT
ATOM      1  C   UNL     1       0.456  11.066  19.609  0.00  0.00    +0.000 C 
ENDROOT
BRANCH   1  12
ATOM      2  O   UNL     1       2.263  10.740  17.463  0.00  0.00    +0.000 OA
ATOM      3  C   UNL     1       2.049   9.740  18.139  0.00  0.00    +0.000 A 
ATOM      4  O   UNL     1       2.563   8.510  17.764  0.00  0.00    +0.000 OA
ATOM      5  C   UNL     1       2.474   7.387  18.601  0.00  0.00    +0.000 A 
ATOM      6  C   UNL     1       3.114   6.232  18.150  0.00  0.00    +0.000 A 
ATOM      7  C   UNL     1       3.112   5.096  18.951  0.00  0.00    +0.000 A 
ATOM      8  C   UNL     1       2.482   5.133  20.193  0.00  0.00    +0.000 A 
ATOM      9  C   UNL     1       1.829   6.297  20.625  0.00  0.00    +0.000 A 
ATOM     10  C   UNL     1       1.802   7.446  19.823  0.00  0.00    +0.000 A 
ATOM     11  C   UNL     1       1.102   8.697  20.148  0.00  0.00    +0.000 A 
ATOM     12  C   UNL     1       1.212   9.779  19.361  0.00  0.00    +0.000 A 
BRANCH  11  13
ATOM     13  O   UNL     1       0.289   8.743  21.264  0.00  0.00    +0.000 OA
ATOM     14  H   UNL     1      -0.468   8.149  21.172  0.00  0.00    +0.000 HD
ENDBRANCH  11  13
ENDBRANCH   1  12
BRANCH   1  15
ATOM     15  C   UNL     1      -0.933  11.091  19.007  0.00  0.00    +0.000 A 
ATOM     16  C   UNL     1      -1.205  10.397  17.823  0.00  0.00    +0.000 A 
ATOM     17  C   UNL     1      -2.474  10.449  17.240  0.00  0.00    +0.000 A 
ATOM     18 CL   UNL     1      -2.695   9.585  15.755  0.00  0.00    +0.000 Cl
ATOM     19  C   UNL     1      -3.528  11.177  17.842  0.00  0.00    +0.000 A 
ATOM     20  C   UNL     1      -4.836  11.282  17.323  0.00  0.00    +0.000 A 
ATOM     21  C   UNL     1      -5.812  12.003  18.001  0.00  0.00    +0.000 A 
ATOM     22  C   UNL     1      -5.458  12.608  19.189  0.00  0.00    +0.000 A 
ATOM     23  N   UNL     1      -4.217  12.550  19.720  0.00  0.00    +0.000 NA
ATOM     24  C   UNL     1      -3.274  11.847  19.054  0.00  0.00    +0.000 A 
ATOM     25  C   UNL     1      -1.989  11.790  19.600  0.00  0.00    +0.000 A 
BRANCH  25  26
ATOM     26  O   UNL     1      -1.776  12.455  20.790  0.00  0.00    +0.000 OA
ATOM     27  H   UNL     1      -0.801  12.440  20.902  0.00  0.00    +0.000 HD
ENDBRANCH  25  26
ENDBRANCH   1  15
TORSDOF 4
ENDMDL
MODEL 6
REMARK VINA RESULT:      -7.3      2.676      3.440
REMARK  Name = 
REMARK  4 active torsions:
REMARK  status: ('A' for Active; 'I' for Inactive)
REMARK    1  A    between atoms: C_10  and  O_11
REMARK    2  A    between atoms: C_12  and  C_13
REMARK    3  A    between atoms: C_13  and  C_14
REMARK    4  A    between atoms: C_24  and  O_25
REMARK                            x       y       z     vdW  Elec       q    Type
REMARK                         _______ _______ _______ _____ _____    ______ ____
ROOT
ATOM      1  C   UNL     1      -0.310  12.570  21.254  0.00  0.00    +0.000 C 
ENDROOT
BRANCH   1  12
ATOM      2  O   UNL     1      -0.033  10.421  23.066  0.00  0.00    +0.000 OA
ATOM      3  C   UNL     1       0.394  10.225  21.933  0.00  0.00    +0.000 A 
ATOM      4  O   UNL     1       1.090   9.067  21.632  0.00  0.00    +0.000 OA
ATOM      5  C   UNL     1       1.443   8.740  20.313  0.00  0.00    +0.000 A 
ATOM      6  C   UNL     1       2.058   7.501  20.130  0.00  0.00    +0.000 A 
ATOM      7  C   UNL     1       2.387   7.089  18.844  0.00  0.00    +0.000 A 
ATOM      8  C   UNL     1       2.090   7.913  17.762  0.00  0.00    +0.000 A 
ATOM      9  C   UNL     1       1.485   9.163  17.963  0.00  0.00    +0.000 A 
ATOM     10  C   UNL     1       1.163   9.606  19.254  0.00  0.00    +0.000 A 
ATOM     11  C   UNL     1       0.585  10.915  19.587  0.00  0.00    +0.000 A 
ATOM     12  C   UNL     1       0.221  11.214  20.845  0.00  0.00    +0.000 A 
BRANCH  11  13
ATOM     13  O   UNL     1       0.448  11.864  18.592  0.00  0.00    +0.000 OA
ATOM     14  H   UNL     1       0.479  11.460  17.715  0.00  0.00    +0.000 HD
ENDBRANCH  11  13
ENDBRANCH   1  12
BRANCH   1  15
ATOM     15  C   UNL     1      -1.812  12.614  21.436  0.00  0.00    +0.000 A 
ATOM     16  C   UNL     1      -2.372  12.592  22.718  0.00  0.00    +0.000 A 
ATOM     17  C   UNL     1      -3.758  12.592  22.892  0.00  0.00    +0.000 A 
ATOM     18 CL   UNL     1      -4.348  12.526  24.520  0.00  0.00    +0.000 Cl
ATOM     19  C   UNL     1      -4.637  12.646  21.783  0.00  0.00    +0.000 A 
ATOM     20  C   UNL     1      -6.045  12.650  21.868  0.00  0.00    +0.000 A 
ATOM     21  C   UNL     1      -6.825  12.727  20.720  0.00  0.00    +0.000 A 
ATOM     22  C   UNL     1      -6.177  12.798  19.504  0.00  0.00    +0.000 A 
ATOM     23  N   UNL     1      -4.833  12.782  19.369  0.00  0.00    +0.000 NA
ATOM     24  C   UNL     1      -4.082  12.706  20.491  0.00  0.00    +0.000 A 
ATOM     25  C   UNL     1      -2.692  12.686  20.351  0.00  0.00    +0.000 A 
BRANCH  25  26
ATOM     26  O   UNL     1      -2.183  12.750  19.071  0.00  0.00    +0.000 OA
ATOM     27  H   UNL     1      -2.608  13.546  18.685  0.00  0.00    +0.000 HD
ENDBRANCH  25  26
ENDBRANCH   1  15
TORSDOF 4
ENDMDL
MODEL 7
REMARK VINA RESULT:      -7.2      1.899      3.288
REMARK  Name = 
REMARK  4 active torsions:
REMARK  status: ('A' for Active; 'I' for Inactive)
REMARK    1  A    between atoms: C_10  and  O_11
REMARK    2  A    between atoms: C_12  and  C_13
REMARK    3  A    between atoms: C_13  and  C_14
REMARK    4  A    between atoms: C_24  and  O_25
REMARK                            x       y       z     vdW  Elec       q    Type
REMARK                         _______ _______ _______ _____ _____    ______ ____
ROOT
ATOM      1  C   UNL     1       2.147   9.299  19.446  0.00  0.00    +0.000 C 
ENDROOT
BRANCH   1  12
ATOM      2  O   UNL     1       2.936   8.040  17.044  0.00  0.00    +0.000 OA
ATOM      3  C   UNL     1       2.511   7.298  17.924  0.00  0.00    +0.000 A 
ATOM      4  O   UNL     1       2.309   5.951  17.675  0.00  0.00    +0.000 OA
ATOM      5  C   UNL     1       1.985   5.052  18.703  0.00  0.00    +0.000 A 
ATOM      6  C   UNL     1       1.900   3.707  18.339  0.00  0.00    +0.000 A 
ATOM      7  C   UNL     1       1.635   2.754  19.315  0.00  0.00    +0.000 A 
ATOM      8  C   UNL     1       1.468   3.155  20.639  0.00  0.00    +0.000 A 
ATOM      9  C   UNL     1       1.540   4.512  20.986  0.00  0.00    +0.000 A 
ATOM     10  C   UNL     1       1.787   5.491  20.013  0.00  0.00    +0.000 A 
ATOM     11  C   UNL     1       1.825   6.940  20.252  0.00  0.00    +0.000 A 
ATOM     12  C   UNL     1       2.163   7.797  19.274  0.00  0.00    +0.000 A 
BRANCH  11  13
ATOM     13  O   UNL     1       1.469   7.428  21.494  0.00  0.00    +0.000 OA
ATOM     14  H   UNL     1       2.150   7.238  22.154  0.00  0.00    +0.000 HD
ENDBRANCH  11  13
ENDBRANCH   1  12
BRANCH   1  15
ATOM     15  C   UNL     1       0.775   9.922  19.306  0.00  0.00    +0.000 A 
ATOM     16  C   UNL     1       0.009   9.698  18.157  0.00  0.00    +0.000 A 
ATOM     17  C   UNL     1      -1.242  10.302  18.003  0.00  0.00    +0.000 A 
ATOM     18 CL   UNL     1      -2.092   9.989  16.527  0.00  0.00    +0.000 Cl
ATOM     19  C   UNL     1      -1.785  11.130  19.014  0.00  0.00    +0.000 A 
ATOM     20  C   UNL     1      -3.037  11.777  18.942  0.00  0.00    +0.000 A 
ATOM     21  C   UNL     1      -3.496  12.555  19.999  0.00  0.00    +0.000 A 
ATOM     22  C   UNL     1      -2.688  12.672  21.112  0.00  0.00    +0.000 A 
ATOM     23  N   UNL     1      -1.477  12.085  21.224  0.00  0.00    +0.000 NA
ATOM     24  C   UNL     1      -1.038  11.331  20.191  0.00  0.00    +0.000 A 
ATOM     25  C   UNL     1       0.217  10.727  20.304  0.00  0.00    +0.000 A 
BRANCH  25  26
ATOM     26  O   UNL     1       0.920  10.942  21.471  0.00  0.00    +0.000 OA
ATOM     27  H   UNL     1       0.468  10.372  22.130  0.00  0.00    +0.000 HD
ENDBRANCH  25  26
ENDBRANCH   1  15
TORSDOF 4
ENDMDL
MODEL 8
REMARK VINA RESULT:      -7.1      7.042      9.006
REMARK  Name = 
REMARK  4 active torsions:
REMARK  status: ('A' for Active; 'I' for Inactive)
REMARK    1  A    between atoms: C_10  and  O_11
REMARK    2  A    between atoms: C_12  and  C_13
REMARK    3  A    between atoms: C_13  and  C_14
REMARK    4  A    between atoms: C_24  and  O_25
REMARK                            x       y       z     vdW  Elec       q    Type
REMARK                         _______ _______ _______ _____ _____    ______ ____
ROOT
ATOM      1  C   UNL     1       6.556   4.788  18.333  0.00  0.00    +0.000 C 
ENDROOT
BRANCH   1  12
ATOM      2  O   UNL     1       8.203   6.719  17.094  0.00  0.00    +0.000 OA
ATOM      3  C   UNL     1       7.626   5.943  16.339  0.00  0.00    +0.000 A 
ATOM      4  O   UNL     1       7.684   6.119  14.967  0.00  0.00    +0.000 OA
ATOM      5  C   UNL     1       7.174   5.159  14.078  0.00  0.00    +0.000 A 
ATOM      6  C   UNL     1       7.379   5.407  12.721  0.00  0.00    +0.000 A 
ATOM      7  C   UNL     1       6.948   4.474  11.786  0.00  0.00    +0.000 A 
ATOM      8  C   UNL     1       6.330   3.304  12.219  0.00  0.00    +0.000 A 
ATOM      9  C   UNL     1       6.117   3.075  13.586  0.00  0.00    +0.000 A 
ATOM     10  C   UNL     1       6.526   4.013  14.544  0.00  0.00    +0.000 A 
ATOM     11  C   UNL     1       6.303   3.906  15.993  0.00  0.00    +0.000 A 
ATOM     12  C   UNL     1       6.816   4.810  16.843  0.00  0.00    +0.000 A 
BRANCH  11  13
ATOM     13  O   UNL     1       5.522   2.877  16.480  0.00  0.00    +0.000 OA
ATOM     14  H   UNL     1       5.699   2.713  17.416  0.00  0.00    +0.000 HD
ENDBRANCH  11  13
ENDBRANCH   1  12
BRANCH   1  15
ATOM     15  C   UNL     1       5.089   4.780  18.704  0.00  0.00    +0.000 A 
ATOM     16  C   UNL     1       4.277   5.881  18.410  0.00  0.00    +0.000 A 
ATOM     17  C   UNL     1       2.931   5.896  18.785  0.00  0.00    +0.000 A 
ATOM     18 CL   UNL     1       2.025   7.323  18.407  0.00  0.00    +0.000 Cl
ATOM     19  C   UNL     1       2.341   4.791  19.444  0.00  0.00    +0.000 A 
ATOM     20  C   UNL     1       0.993   4.723  19.856  0.00  0.00    +0.000 A 
ATOM     21  C   UNL     1       0.499   3.582  20.477  0.00  0.00    +0.000 A 
ATOM     22  C   UNL     1       1.366   2.528  20.675  0.00  0.00    +0.000 A 
ATOM     23  N   UNL     1       2.667   2.549  20.312  0.00  0.00    +0.000 NA
ATOM     24  C   UNL     1       3.140   3.663  19.709  0.00  0.00    +0.000 A 
ATOM     25  C   UNL     1       4.487   3.688  19.337  0.00  0.00    +0.000 A 
BRANCH  25  26
ATOM     26  O   UNL     1       5.240   2.564  19.609  0.00  0.00    +0.000 OA
ATOM     27  H   UNL     1       5.310   2.108  18.743  0.00  0.00    +0.000 HD
ENDBRANCH  25  26
ENDBRANCH   1  15
TORSDOF 4
ENDMDL
MODEL 9
REMARK VINA RESULT:      -7.1      3.231      8.017
REMARK  Name = 
REMARK  4 active torsions:
REMARK  status: ('A' for Active; 'I' for Inactive)
REMARK    1  A    between atoms: C_10  and  O_11
REMARK    2  A    between atoms: C_12  and  C_13
REMARK    3  A    between atoms: C_13  and  C_14
REMARK    4  A    between atoms: C_24  and  O_25
REMARK                            x       y       z     vdW  Elec       q    Type
REMARK                         _______ _______ _______ _____ _____    ______ ____
ROOT
ATOM      1  C   UNL     1      -1.787  12.993  20.224  0.00  0.00    +0.000 C 
ENDROOT
BRANCH   1  12
ATOM      2  O   UNL     1      -3.725  11.862  18.510  0.00  0.00    +0.000 OA
ATOM      3  C   UNL     1      -4.132  12.236  19.605  0.00  0.00    +0.000 A 
ATOM      4  O   UNL     1      -5.485  12.223  19.897  0.00  0.00    +0.000 OA
ATOM      5  C   UNL     1      -5.963  12.487  21.191  0.00  0.00    +0.000 A 
ATOM      6  C   UNL     1      -7.339  12.350  21.378  0.00  0.00    +0.000 A 
ATOM      7  C   UNL     1      -7.875  12.544  22.645  0.00  0.00    +0.000 A 
ATOM      8  C   UNL     1      -7.032  12.861  23.707  0.00  0.00    +0.000 A 
ATOM      9  C   UNL     1      -5.652  13.011  23.499  0.00  0.00    +0.000 A 
ATOM     10  C   UNL     1      -5.094  12.840  22.225  0.00  0.00    +0.000 A 
ATOM     11  C   UNL     1      -3.678  13.028  21.881  0.00  0.00    +0.000 A 
ATOM     12  C   UNL     1      -3.218  12.748  20.651  0.00  0.00    +0.000 A 
BRANCH  11  13
ATOM     13  O   UNL     1      -2.816  13.538  22.833  0.00  0.00    +0.000 OA
ATOM     14  H   UNL     1      -2.068  12.945  22.984  0.00  0.00    +0.000 HD
ENDBRANCH  11  13
ENDBRANCH   1  12
BRANCH   1  15
ATOM     15  C   UNL     1      -0.912  11.759  20.264  0.00  0.00    +0.000 A 
ATOM     16  C   UNL     1      -0.649  11.115  21.478  0.00  0.00    +0.000 A 
ATOM     17  C   UNL     1       0.191   9.999  21.527  0.00  0.00    +0.000 A 
ATOM     18 CL   UNL     1       0.481   9.300  23.085  0.00  0.00    +0.000 Cl
ATOM     19  C   UNL     1       0.774   9.468  20.352  0.00  0.00    +0.000 A 
ATOM     20  C   UNL     1       1.631   8.347  20.311  0.00  0.00    +0.000 A 
ATOM     21  C   UNL     1       2.138   7.886  19.101  0.00  0.00    +0.000 A 
ATOM     22  C   UNL     1       1.777   8.558  17.952  0.00  0.00    +0.000 A 
ATOM     23  N   UNL     1       0.972   9.644  17.940  0.00  0.00    +0.000 NA
ATOM     24  C   UNL     1       0.485  10.086  19.120  0.00  0.00    +0.000 A 
ATOM     25  C   UNL     1      -0.344  11.212  19.109  0.00  0.00    +0.000 A 
BRANCH  25  26
ATOM     26  O   UNL     1      -0.610  11.790  17.885  0.00  0.00    +0.000 OA
ATOM     27  H   UNL     1      -0.716  12.744  18.089  0.00  0.00    +0.000 HD
ENDBRANCH  25  26
ENDBRANCH   1  15
TORSDOF 4
ENDMDL
