MODEL 1
REMARK VINA RESULT:      -8.4      0.000      0.000
REMARK  Name = 
REMARK  4 active torsions:
REMARK  status: ('A' for Active; 'I' for Inactive)
REMARK    1  A    between atoms: C_2  and  C_19
REMARK    2  A    between atoms: N_3  and  C_4
REMARK    3  A    between atoms: C_8  and  S_9
REMARK    4  A    between atoms: S_9  and  N_12
REMARK                            x       y       z     vdW  Elec       q    Type
REMARK                         _______ _______ _______ _____ _____    ______ ____
ROOT
ATOM      1  C   UNL     1       3.342   6.015  17.774  0.00  0.00    +0.000 A 
ATOM      2  C   UNL     1       2.852   4.719  17.940  0.00  0.00    +0.000 A 
ATOM      3  C   UNL     1       3.590   3.614  17.522  0.00  0.00    +0.000 A 
ATOM      4  C   UNL     1       4.852   3.788  16.966  0.00  0.00    +0.000 A 
ATOM      5  C   UNL     1       5.382   5.071  16.851  0.00  0.00    +0.000 A 
ATOM      6  C   UNL     1       4.612   6.195  17.209  0.00  0.00    +0.000 A 
ENDROOT
BRANCH   1   9
ATOM      7  O   UNL     1       2.410   6.649  20.459  0.00  0.00    +0.000 OA
ATOM      8  C   UNL     1       2.185   7.362  19.496  0.00  0.00    +0.000 C 
ATOM      9  N   UNL     1       2.605   7.150  18.183  0.00  0.00    +0.000 N 
ATOM     10  H   UNL     1       2.521   7.901  17.514  0.00  0.00    +0.000 HD
BRANCH   8  11
ATOM     11  C   UNL     1       1.453   8.607  19.765  0.00  0.00    +0.000 A 
ATOM     12  C   UNL     1       1.222   9.557  18.789  0.00  0.00    +0.000 A 
ATOM     13  N   UNL     1       0.492  10.679  18.999  0.00  0.00    +0.000 NA
ATOM     14  C   UNL     1      -0.042  10.830  20.237  0.00  0.00    +0.000 A 
ATOM     15  C   UNL     1       0.132   9.932  21.275  0.00  0.00    +0.000 A 
ATOM     16 BR   UNL     1      -0.653  10.214  22.961  0.00  0.00    +0.000 Br
ATOM     17  C   UNL     1       0.896   8.791  21.037  0.00  0.00    +0.000 A 
ENDBRANCH   8  11
ENDBRANCH   1   9
BRANCH   5  18
ATOM     18  S   UNL     1       7.029   5.254  16.172  0.00  0.00    +0.000 S 
ATOM     19  O   UNL     1       7.411   6.644  16.347  0.00  0.00    +0.000 OA
ATOM     20  O   UNL     1       7.831   4.185  16.717  0.00  0.00    +0.000 OA
BRANCH  18  21
ATOM     21  N   UNL     1       6.843   4.973  14.486  0.00  0.00    +0.000 NA
ATOM     22  C   UNL     1       7.963   5.425  13.624  0.00  0.00    +0.000 C 
ATOM     23  C   UNL     1       7.644   5.292  12.139  0.00  0.00    +0.000 C 
ATOM     24  C   UNL     1       7.120   3.907  11.796  0.00  0.00    +0.000 C 
ATOM     25  C   UNL     1       5.875   3.618  12.619  0.00  0.00    +0.000 C 
ATOM     26  C   UNL     1       6.163   3.705  14.114  0.00  0.00    +0.000 C 
ENDBRANCH  18  21
ENDBRANCH   5  18
TORSDOF 4
ENDMDL
MODEL 2
REMARK VINA RESULT:      -8.1      1.495      1.690
REMARK  Name = 
REMARK  4 active torsions:
REMARK  status: ('A' for Active; 'I' for Inactive)
REMARK    1  A    between atoms: C_2  and  C_19
REMARK    2  A    between atoms: N_3  and  C_4
REMARK    3  A    between atoms: C_8  and  S_9
REMARK    4  A    between atoms: S_9  and  N_12
REMARK                            x       y       z     vdW  Elec       q    Type
REMARK                         _______ _______ _______ _____ _____    ______ ____
ROOT
ATOM      1  C   UNL     1       3.209   6.020  18.131  0.00  0.00    +0.000 A 
ATOM      2  C   UNL     1       2.620   4.766  17.960  0.00  0.00    +0.000 A 
ATOM      3  C   UNL     1       3.271   3.758  17.252  0.00  0.00    +0.000 A 
ATOM      4  C   UNL     1       4.542   3.978  16.735  0.00  0.00    +0.000 A 
ATOM      5  C   UNL     1       5.170   5.203  16.950  0.00  0.00    +0.000 A 
ATOM      6  C   UNL     1       4.489   6.248  17.607  0.00  0.00    +0.000 A 
ENDROOT
BRANCH   1   9
ATOM      7  O   UNL     1       2.336   8.596  17.093  0.00  0.00    +0.000 OA
ATOM      8  C   UNL     1       2.194   8.271  18.259  0.00  0.00    +0.000 C 
ATOM      9  N   UNL     1       2.562   7.058  18.839  0.00  0.00    +0.000 N 
ATOM     10  H   UNL     1       2.224   6.834  19.764  0.00  0.00    +0.000 HD
BRANCH   8  11
ATOM     11  C   UNL     1       1.502   9.238  19.123  0.00  0.00    +0.000 A 
ATOM     12  C   UNL     1       1.149   8.946  20.427  0.00  0.00    +0.000 A 
ATOM     13  N   UNL     1       0.572   9.844  21.261  0.00  0.00    +0.000 NA
ATOM     14  C   UNL     1       0.368  11.089  20.762  0.00  0.00    +0.000 A 
ATOM     15  C   UNL     1       0.691  11.474  19.473  0.00  0.00    +0.000 A 
ATOM     16 BR   UNL     1       0.381  13.226  18.863  0.00  0.00    +0.000 Br
ATOM     17  C   UNL     1       1.274  10.528  18.630  0.00  0.00    +0.000 A 
ENDBRANCH   8  11
ENDBRANCH   1   9
BRANCH   5  18
ATOM     18  S   UNL     1       6.825   5.436  16.309  0.00  0.00    +0.000 S 
ATOM     19  O   UNL     1       7.133   6.851  16.423  0.00  0.00    +0.000 OA
ATOM     20  O   UNL     1       7.662   4.438  16.930  0.00  0.00    +0.000 OA
BRANCH  18  21
ATOM     21  N   UNL     1       6.705   5.063  14.634  0.00  0.00    +0.000 NA
ATOM     22  C   UNL     1       7.848   5.488  13.790  0.00  0.00    +0.000 C 
ATOM     23  C   UNL     1       7.586   5.271  12.304  0.00  0.00    +0.000 C 
ATOM     24  C   UNL     1       7.096   3.860  12.018  0.00  0.00    +0.000 C 
ATOM     25  C   UNL     1       5.827   3.593  12.811  0.00  0.00    +0.000 C 
ATOM     26  C   UNL     1       6.059   3.764  14.307  0.00  0.00    +0.000 C 
ENDBRANCH  18  21
ENDBRANCH   5  18
TORSDOF 4
ENDMDL
MODEL 3
REMARK VINA RESULT:      -7.9      4.197      9.763
REMARK  Name = 
REMARK  4 active torsions:
REMARK  status: ('A' for Active; 'I' for Inactive)
REMARK    1  A    between atoms: C_2  and  C_19
REMARK    2  A    between atoms: N_3  and  C_4
REMARK    3  A    between atoms: C_8  and  S_9
REMARK    4  A    between atoms: S_9  and  N_12
REMARK                            x       y       z     vdW  Elec       q    Type
REMARK                         _______ _______ _______ _____ _____    ______ ____
ROOT
ATOM      1  C   UNL     1       2.192   8.363  18.603  0.00  0.00    +0.000 A 
ATOM      2  C   UNL     1       1.439   9.034  17.638  0.00  0.00    +0.000 A 
ATOM      3  C   UNL     1       0.299   9.753  17.989  0.00  0.00    +0.000 A 
ATOM      4  C   UNL     1      -0.085   9.844  19.322  0.00  0.00    +0.000 A 
ATOM      5  C   UNL     1       0.690   9.232  20.304  0.00  0.00    +0.000 A 
ATOM      6  C   UNL     1       1.806   8.448  19.947  0.00  0.00    +0.000 A 
ENDROOT
BRANCH   1   9
ATOM      7  O   UNL     1       2.375   5.503  18.091  0.00  0.00    +0.000 OA
ATOM      8  C   UNL     1       3.343   6.244  18.054  0.00  0.00    +0.000 C 
ATOM      9  N   UNL     1       3.347   7.622  18.266  0.00  0.00    +0.000 N 
ATOM     10  H   UNL     1       4.172   8.152  18.023  0.00  0.00    +0.000 HD
BRANCH   8  11
ATOM     11  C   UNL     1       4.622   5.624  17.681  0.00  0.00    +0.000 A 
ATOM     12  C   UNL     1       5.583   5.290  18.616  0.00  0.00    +0.000 A 
ATOM     13  N   UNL     1       6.739   4.658  18.302  0.00  0.00    +0.000 NA
ATOM     14  C   UNL     1       6.915   4.331  16.997  0.00  0.00    +0.000 A 
ATOM     15  C   UNL     1       6.008   4.621  15.993  0.00  0.00    +0.000 A 
ATOM     16 BR   UNL     1       6.327   4.124  14.207  0.00  0.00    +0.000 Br
ATOM     17  C   UNL     1       4.831   5.282  16.340  0.00  0.00    +0.000 A 
ENDBRANCH   8  11
ENDBRANCH   1   9
BRANCH   5  18
ATOM     18  S   UNL     1       0.191   9.407  22.015  0.00  0.00    +0.000 S 
ATOM     19  O   UNL     1      -0.808   8.387  22.276  0.00  0.00    +0.000 OA
ATOM     20  O   UNL     1       1.400   9.487  22.801  0.00  0.00    +0.000 OA
BRANCH  18  21
ATOM     21  N   UNL     1      -0.593  10.936  22.089  0.00  0.00    +0.000 NA
ATOM     22  C   UNL     1      -1.543  11.125  23.213  0.00  0.00    +0.000 C 
ATOM     23  C   UNL     1      -2.315  12.436  23.108  0.00  0.00    +0.000 C 
ATOM     24  C   UNL     1      -1.389  13.619  22.874  0.00  0.00    +0.000 C 
ATOM     25  C   UNL     1      -0.584  13.390  21.605  0.00  0.00    +0.000 C 
ATOM     26  C   UNL     1       0.232  12.105  21.687  0.00  0.00    +0.000 C 
ENDBRANCH  18  21
ENDBRANCH   5  18
TORSDOF 4
ENDMDL
MODEL 4
REMARK VINA RESULT:      -7.9      2.943      3.840
REMARK  Name = 
REMARK  4 active torsions:
REMARK  status: ('A' for Active; 'I' for Inactive)
REMARK    1  A    between atoms: C_2  and  C_19
REMARK    2  A    between atoms: N_3  and  C_4
REMARK    3  A    between atoms: C_8  and  S_9
REMARK    4  A    between atoms: S_9  and  N_12
REMARK                            x       y       z     vdW  Elec       q    Type
REMARK                         _______ _______ _______ _____ _____    ______ ____
ROOT
ATOM      1  C   UNL     1       1.938   5.018  20.798  0.00  0.00    +0.000 A 
ATOM      2  C   UNL     1       2.081   4.055  21.798  0.00  0.00    +0.000 A 
ATOM      3  C   UNL     1       2.537   2.773  21.499  0.00  0.00    +0.000 A 
ATOM      4  C   UNL     1       2.895   2.446  20.196  0.00  0.00    +0.000 A 
ATOM      5  C   UNL     1       2.817   3.414  19.198  0.00  0.00    +0.000 A 
ATOM      6  C   UNL     1       2.292   4.691  19.482  0.00  0.00    +0.000 A 
ENDROOT
BRANCH   1   9
ATOM      7  O   UNL     1       2.473   7.456  19.298  0.00  0.00    +0.000 OA
ATOM      8  C   UNL     1       1.792   7.438  20.310  0.00  0.00    +0.000 C 
ATOM      9  N   UNL     1       1.468   6.322  21.079  0.00  0.00    +0.000 N 
ATOM     10  H   UNL     1       0.747   6.402  21.781  0.00  0.00    +0.000 HD
BRANCH   8  11
ATOM     11  C   UNL     1       1.200   8.720  20.716  0.00  0.00    +0.000 A 
ATOM     12  C   UNL     1       1.036   9.072  22.042  0.00  0.00    +0.000 A 
ATOM     13  N   UNL     1       0.555  10.275  22.440  0.00  0.00    +0.000 NA
ATOM     14  C   UNL     1       0.252  11.160  21.457  0.00  0.00    +0.000 A 
ATOM     15  C   UNL     1       0.386  10.898  20.104  0.00  0.00    +0.000 A 
ATOM     16 BR   UNL     1      -0.049  12.186  18.805  0.00  0.00    +0.000 Br
ATOM     17  C   UNL     1       0.873   9.649  19.722  0.00  0.00    +0.000 A 
ENDBRANCH   8  11
ENDBRANCH   1   9
BRANCH   5  18
ATOM     18  S   UNL     1       3.329   2.972  17.540  0.00  0.00    +0.000 S 
ATOM     19  O   UNL     1       3.739   1.579  17.577  0.00  0.00    +0.000 OA
ATOM     20  O   UNL     1       2.291   3.421  16.644  0.00  0.00    +0.000 OA
BRANCH  18  21
ATOM     21  N   UNL     1       4.733   3.921  17.246  0.00  0.00    +0.000 NA
ATOM     22  C   UNL     1       5.586   4.201  18.426  0.00  0.00    +0.000 C 
ATOM     23  C   UNL     1       6.710   5.183  18.111  0.00  0.00    +0.000 C 
ATOM     24  C   UNL     1       7.486   4.773  16.869  0.00  0.00    +0.000 C 
ATOM     25  C   UNL     1       6.536   4.678  15.686  0.00  0.00    +0.000 C 
ATOM     26  C   UNL     1       5.417   3.676  15.949  0.00  0.00    +0.000 C 
ENDBRANCH  18  21
ENDBRANCH   5  18
TORSDOF 4
ENDMDL
MODEL 5
REMARK VINA RESULT:      -7.9      2.563      3.183
REMARK  Name = 
REMARK  4 active torsions:
REMARK  status: ('A' for Active; 'I' for Inactive)
REMARK    1  A    between atoms: C_2  and  C_19
REMARK    2  A    between atoms: N_3  and  C_4
REMARK    3  A    between atoms: C_8  and  S_9
REMARK    4  A    between atoms: S_9  and  N_12
REMARK                            x       y       z     vdW  Elec       q    Type
REMARK                         _______ _______ _______ _____ _____    ______ ____
ROOT
ATOM      1  C   UNL     1       2.500   5.947  18.362  0.00  0.00    +0.000 A 
ATOM      2  C   UNL     1       1.882   4.701  18.476  0.00  0.00    +0.000 A 
ATOM      3  C   UNL     1       2.366   3.594  17.783  0.00  0.00    +0.000 A 
ATOM      4  C   UNL     1       3.505   3.708  16.994  0.00  0.00    +0.000 A 
ATOM      5  C   UNL     1       4.170   4.929  16.919  0.00  0.00    +0.000 A 
ATOM      6  C   UNL     1       3.645   6.068  17.564  0.00  0.00    +0.000 A 
ENDROOT
BRANCH   1   9
ATOM      7  O   UNL     1       2.271   8.666  17.347  0.00  0.00    +0.000 OA
ATOM      8  C   UNL     1       1.961   8.358  18.485  0.00  0.00    +0.000 C 
ATOM      9  N   UNL     1       2.019   7.084  19.050  0.00  0.00    +0.000 N 
ATOM     10  H   UNL     1       1.561   6.919  19.934  0.00  0.00    +0.000 HD
BRANCH   8  11
ATOM     11  C   UNL     1       1.408   9.431  19.322  0.00  0.00    +0.000 A 
ATOM     12  C   UNL     1       1.250  10.724  18.859  0.00  0.00    +0.000 A 
ATOM     13  N   UNL     1       0.681  11.712  19.590  0.00  0.00    +0.000 NA
ATOM     14  C   UNL     1       0.233  11.370  20.825  0.00  0.00    +0.000 A 
ATOM     15  C   UNL     1       0.344  10.103  21.370  0.00  0.00    +0.000 A 
ATOM     16 BR   UNL     1      -0.311   9.712  23.089  0.00  0.00    +0.000 Br
ATOM     17  C   UNL     1       0.945   9.107  20.602  0.00  0.00    +0.000 A 
ENDBRANCH   8  11
ENDBRANCH   1   9
BRANCH   5  18
ATOM     18  S   UNL     1       5.659   5.029  15.929  0.00  0.00    +0.000 S 
ATOM     19  O   UNL     1       6.041   3.669  15.594  0.00  0.00    +0.000 OA
ATOM     20  O   UNL     1       5.416   6.012  14.900  0.00  0.00    +0.000 OA
BRANCH  18  21
ATOM     21  N   UNL     1       6.853   5.659  16.994  0.00  0.00    +0.000 NA
ATOM     22  C   UNL     1       6.910   7.137  17.106  0.00  0.00    +0.000 C 
ATOM     23  C   UNL     1       8.098   7.613  17.934  0.00  0.00    +0.000 C 
ATOM     24  C   UNL     1       8.183   6.888  19.267  0.00  0.00    +0.000 C 
ATOM     25  C   UNL     1       8.288   5.391  19.025  0.00  0.00    +0.000 C 
ATOM     26  C   UNL     1       7.097   4.870  18.230  0.00  0.00    +0.000 C 
ENDBRANCH  18  21
ENDBRANCH   5  18
TORSDOF 4
ENDMDL
MODEL 6
REMARK VINA RESULT:      -7.9      5.606      7.191
REMARK  Name = 
REMARK  4 active torsions:
REMARK  status: ('A' for Active; 'I' for Inactive)
REMARK    1  A    between atoms: C_2  and  C_19
REMARK    2  A    between atoms: N_3  and  C_4
REMARK    3  A    between atoms: C_8  and  S_9
REMARK    4  A    between atoms: S_9  and  N_12
REMARK                            x       y       z     vdW  Elec       q    Type
REMARK                         _______ _______ _______ _____ _____    ______ ____
ROOT
ATOM      1  C   UNL     1       8.112   8.233  17.977  0.00  0.00    +0.000 A 
ATOM      2  C   UNL     1       8.545   7.455  19.051  0.00  0.00    +0.000 A 
ATOM      3  C   UNL     1       8.032   6.177  19.265  0.00  0.00    +0.000 A 
ATOM      4  C   UNL     1       7.103   5.641  18.380  0.00  0.00    +0.000 A 
ATOM      5  C   UNL     1       6.707   6.381  17.268  0.00  0.00    +0.000 A 
ATOM      6  C   UNL     1       7.172   7.699  17.085  0.00  0.00    +0.000 A 
ENDROOT
BRANCH   1   9
ATOM      7  O   UNL     1       9.271  10.054  19.930  0.00  0.00    +0.000 OA
ATOM      8  C   UNL     1       9.138  10.345  18.753  0.00  0.00    +0.000 C 
ATOM      9  N   UNL     1       8.613   9.534  17.748  0.00  0.00    +0.000 N 
ATOM     10  H   UNL     1       8.727   9.813  16.784  0.00  0.00    +0.000 HD
BRANCH   8  11
ATOM     11  C   UNL     1       9.646  11.663  18.347  0.00  0.00    +0.000 A 
ATOM     12  C   UNL     1      10.900  11.835  17.795  0.00  0.00    +0.000 A 
ATOM     13  N   UNL     1      11.362  13.029  17.352  0.00  0.00    +0.000 NA
ATOM     14  C   UNL     1      10.511  14.081  17.451  0.00  0.00    +0.000 A 
ATOM     15  C   UNL     1       9.236  14.004  17.985  0.00  0.00    +0.000 A 
ATOM     16 BR   UNL     1       8.116  15.512  18.077  0.00  0.00    +0.000 Br
ATOM     17  C   UNL     1       8.789  12.766  18.444  0.00  0.00    +0.000 A 
ENDBRANCH   8  11
ENDBRANCH   1   9
BRANCH   5  18
ATOM     18  S   UNL     1       5.544   5.642  16.124  0.00  0.00    +0.000 S 
ATOM     19  O   UNL     1       5.012   6.714  15.303  0.00  0.00    +0.000 OA
ATOM     20  O   UNL     1       6.202   4.502  15.530  0.00  0.00    +0.000 OA
BRANCH  18  21
ATOM     21  N   UNL     1       4.264   5.060  17.114  0.00  0.00    +0.000 NA
ATOM     22  C   UNL     1       3.332   6.086  17.641  0.00  0.00    +0.000 C 
ATOM     23  C   UNL     1       2.334   5.508  18.640  0.00  0.00    +0.000 C 
ATOM     24  C   UNL     1       1.645   4.268  18.095  0.00  0.00    +0.000 C 
ATOM     25  C   UNL     1       2.689   3.221  17.743  0.00  0.00    +0.000 C 
ATOM     26  C   UNL     1       3.685   3.750  16.717  0.00  0.00    +0.000 C 
ENDBRANCH  18  21
ENDBRANCH   5  18
TORSDOF 4
ENDMDL
MODEL 7
REMARK VINA RESULT:      -7.9      5.542      7.256
REMARK  Name = 
REMARK  4 active torsions:
REMARK  status: ('A' for Active; 'I' for Inactive)
REMARK    1  A    between atoms: C_2  and  C_19
REMARK    2  A    between atoms: N_3  and  C_4
REMARK    3  A    between atoms: C_8  and  S_9
REMARK    4  A    between atoms: S_9  and  N_12
REMARK                            x       y       z     vdW  Elec       q    Type
REMARK                         _______ _______ _______ _____ _____    ______ ____
ROOT
ATOM      1  C   UNL     1       8.036   8.174  17.928  0.00  0.00    +0.000 A 
ATOM      2  C   UNL     1       8.480   7.377  18.984  0.00  0.00    +0.000 A 
ATOM      3  C   UNL     1       7.964   6.098  19.184  0.00  0.00    +0.000 A 
ATOM      4  C   UNL     1       7.022   5.580  18.303  0.00  0.00    +0.000 A 
ATOM      5  C   UNL     1       6.614   6.339  17.209  0.00  0.00    +0.000 A 
ATOM      6  C   UNL     1       7.082   7.658  17.040  0.00  0.00    +0.000 A 
ENDROOT
BRANCH   1   9
ATOM      7  O   UNL     1       9.297   9.930  19.877  0.00  0.00    +0.000 OA
ATOM      8  C   UNL     1       9.115  10.255  18.715  0.00  0.00    +0.000 C 
ATOM      9  N   UNL     1       8.539   9.477  17.712  0.00  0.00    +0.000 N 
ATOM     10  H   UNL     1       8.614   9.781  16.752  0.00  0.00    +0.000 HD
BRANCH   8  11
ATOM     11  C   UNL     1       9.618  11.579  18.324  0.00  0.00    +0.000 A 
ATOM     12  C   UNL     1      10.875  11.763  17.779  0.00  0.00    +0.000 A 
ATOM     13  N   UNL     1      11.332  12.963  17.349  0.00  0.00    +0.000 NA
ATOM     14  C   UNL     1      10.474  14.009  17.453  0.00  0.00    +0.000 A 
ATOM     15  C   UNL     1       9.198  13.921  17.981  0.00  0.00    +0.000 A 
ATOM     16 BR   UNL     1       8.069  15.422  18.080  0.00  0.00    +0.000 Br
ATOM     17  C   UNL     1       8.755  12.676  18.426  0.00  0.00    +0.000 A 
ENDBRANCH   8  11
ENDBRANCH   1   9
BRANCH   5  18
ATOM     18  S   UNL     1       5.432   5.622  16.069  0.00  0.00    +0.000 S 
ATOM     19  O   UNL     1       5.158   6.623  15.054  0.00  0.00    +0.000 OA
ATOM     20  O   UNL     1       5.929   4.315  15.714  0.00  0.00    +0.000 OA
BRANCH  18  21
ATOM     21  N   UNL     1       3.999   5.413  16.996  0.00  0.00    +0.000 NA
ATOM     22  C   UNL     1       3.718   4.031  17.455  0.00  0.00    +0.000 C 
ATOM     23  C   UNL     1       2.352   3.905  18.121  0.00  0.00    +0.000 C 
ATOM     24  C   UNL     1       2.146   4.965  19.190  0.00  0.00    +0.000 C 
ATOM     25  C   UNL     1       2.294   6.346  18.571  0.00  0.00    +0.000 C 
ATOM     26  C   UNL     1       3.664   6.523  17.926  0.00  0.00    +0.000 C 
ENDBRANCH  18  21
ENDBRANCH   5  18
TORSDOF 4
ENDMDL
MODEL 8
REMARK VINA RESULT:      -7.9      1.638      1.852
REMARK  Name = 
REMARK  4 active torsions:
REMARK  status: ('A' for Active; 'I' for Inactive)
REMARK    1  A    between atoms: C_2  and  C_19
REMARK    2  A    between atoms: N_3  and  C_4
REMARK    3  A    between atoms: C_8  and  S_9
REMARK    4  A    between atoms: S_9  and  N_12
REMARK                            x       y       z     vdW  Elec       q    Type
REMARK                         _______ _______ _______ _____ _____    ______ ____
ROOT
ATOM      1  C   UNL     1       3.358   6.743  17.743  0.00  0.00    +0.000 A 
ATOM      2  C   UNL     1       2.840   5.548  18.247  0.00  0.00    +0.000 A 
ATOM      3  C   UNL     1       3.550   4.355  18.134  0.00  0.00    +0.000 A 
ATOM      4  C   UNL     1       4.810   4.345  17.548  0.00  0.00    +0.000 A 
ATOM      5  C   UNL     1       5.367   5.539  17.097  0.00  0.00    +0.000 A 
ATOM      6  C   UNL     1       4.626   6.737  17.147  0.00  0.00    +0.000 A 
ENDROOT
BRANCH   1   9
ATOM      7  O   UNL     1       1.981   7.813  20.075  0.00  0.00    +0.000 OA
ATOM      8  C   UNL     1       2.004   8.388  19.000  0.00  0.00    +0.000 C 
ATOM      9  N   UNL     1       2.650   7.962  17.840  0.00  0.00    +0.000 N 
ATOM     10  H   UNL     1       2.757   8.610  17.072  0.00  0.00    +0.000 HD
BRANCH   8  11
ATOM     11  C   UNL     1       1.337   9.696  18.947  0.00  0.00    +0.000 A 
ATOM     12  C   UNL     1       0.013   9.866  19.302  0.00  0.00    +0.000 A 
ATOM     13  N   UNL     1      -0.603  11.073  19.326  0.00  0.00    +0.000 NA
ATOM     14  C   UNL     1       0.159  12.147  19.000  0.00  0.00    +0.000 A 
ATOM     15  C   UNL     1       1.492  12.074  18.635  0.00  0.00    +0.000 A 
ATOM     16 BR   UNL     1       2.480  13.617  18.206  0.00  0.00    +0.000 Br
ATOM     17  C   UNL     1       2.099  10.820  18.608  0.00  0.00    +0.000 A 
ENDBRANCH   8  11
ENDBRANCH   1   9
BRANCH   5  18
ATOM     18  S   UNL     1       7.012   5.497  16.389  0.00  0.00    +0.000 S 
ATOM     19  O   UNL     1       7.533   6.851  16.438  0.00  0.00    +0.000 OA
ATOM     20  O   UNL     1       7.714   4.404  17.019  0.00  0.00    +0.000 OA
BRANCH  18  21
ATOM     21  N   UNL     1       6.769   5.091  14.736  0.00  0.00    +0.000 NA
ATOM     22  C   UNL     1       7.910   5.356  13.827  0.00  0.00    +0.000 C 
ATOM     23  C   UNL     1       7.553   5.127  12.362  0.00  0.00    +0.000 C 
ATOM     24  C   UNL     1       6.893   3.775  12.148  0.00  0.00    +0.000 C 
ATOM     25  C   UNL     1       5.642   3.679  13.006  0.00  0.00    +0.000 C 
ATOM     26  C   UNL     1       5.964   3.867  14.484  0.00  0.00    +0.000 C 
ENDBRANCH  18  21
ENDBRANCH   5  18
TORSDOF 4
ENDMDL
MODEL 9
REMARK VINA RESULT:      -7.7      2.530      3.225
REMARK  Name = 
REMARK  4 active torsions:
REMARK  status: ('A' for Active; 'I' for Inactive)
REMARK    1  A    between atoms: C_2  and  C_19
REMARK    2  A    between atoms: N_3  and  C_4
REMARK    3  A    between atoms: C_8  and  S_9
REMARK    4  A    between atoms: S_9  and  N_12
REMARK                            x       y       z     vdW  Elec       q    Type
REMARK                         _______ _______ _______ _____ _____    ______ ____
ROOT
ATOM      1  C   UNL     1       1.558   5.628  20.538  0.00  0.00    +0.000 A 
ATOM      2  C   UNL     1       0.831   4.442  20.419  0.00  0.00    +0.000 A 
ATOM      3  C   UNL     1       1.397   3.309  19.841  0.00  0.00    +0.000 A 
ATOM      4  C   UNL     1       2.717   3.332  19.406  0.00  0.00    +0.000 A 
ATOM      5  C   UNL     1       3.476   4.488  19.574  0.00  0.00    +0.000 A 
ATOM      6  C   UNL     1       2.888   5.658  20.097  0.00  0.00    +0.000 A 
ENDROOT
BRANCH   1   9
ATOM      7  O   UNL     1       1.710   8.353  19.526  0.00  0.00    +0.000 OA
ATOM      8  C   UNL     1       1.138   8.065  20.564  0.00  0.00    +0.000 C 
ATOM      9  N   UNL     1       1.000   6.792  21.114  0.00  0.00    +0.000 N 
ATOM     10  H   UNL     1       0.348   6.654  21.873  0.00  0.00    +0.000 HD
BRANCH   8  11
ATOM     11  C   UNL     1       0.473   9.169  21.268  0.00  0.00    +0.000 A 
ATOM     12  C   UNL     1       0.483   9.283  22.645  0.00  0.00    +0.000 A 
ATOM     13  N   UNL     1      -0.066  10.327  23.311  0.00  0.00    +0.000 NA
ATOM     14  C   UNL     1      -0.623  11.303  22.551  0.00  0.00    +0.000 A 
ATOM     15  C   UNL     1      -0.678  11.278  21.168  0.00  0.00    +0.000 A 
ATOM     16 BR   UNL     1      -1.463  12.679  20.189  0.00  0.00    +0.000 Br
ATOM     17  C   UNL     1      -0.116  10.187  20.507  0.00  0.00    +0.000 A 
ENDBRANCH   8  11
ENDBRANCH   1   9
BRANCH   5  18
ATOM     18  S   UNL     1       5.187   4.469  19.044  0.00  0.00    +0.000 S 
ATOM     19  O   UNL     1       5.855   5.567  19.719  0.00  0.00    +0.000 OA
ATOM     20  O   UNL     1       5.655   3.111  19.184  0.00  0.00    +0.000 OA
BRANCH  18  21
ATOM     21  N   UNL     1       5.132   4.843  17.367  0.00  0.00    +0.000 NA
ATOM     22  C   UNL     1       5.400   6.257  17.008  0.00  0.00    +0.000 C 
ATOM     23  C   UNL     1       5.166   6.535  15.527  0.00  0.00    +0.000 C 
ATOM     24  C   UNL     1       5.881   5.527  14.643  0.00  0.00    +0.000 C 
ATOM     25  C   UNL     1       5.405   4.124  14.987  0.00  0.00    +0.000 C 
ATOM     26  C   UNL     1       5.657   3.794  16.454  0.00  0.00    +0.000 C 
ENDBRANCH  18  21
ENDBRANCH   5  18
TORSDOF 4
ENDMDL
