MODEL 1
REMARK VINA RESULT:      -7.7      0.000      0.000
REMARK  Name = 
REMARK  10 active torsions:
REMARK  status: ('A' for Active; 'I' for Inactive)
REMARK    1  A    between atoms: C_1  and  C_2
REMARK    2  A    between atoms: C_2  and  C_3
REMARK    3  A    between atoms: C_6  and  C_7
REMARK    4  A    between atoms: C_10  and  C_11
REMARK    5  A    between atoms: C_13  and  C_14
REMARK    6  A    between atoms: C_14  and  O_15
REMARK    7  A    between atoms: C_16  and  O_17
REMARK    8  A    between atoms: C_18  and  O_19
REMARK    9  A    between atoms: C_20  and  O_21
REMARK   10  A    between atoms: N_27  and  C_28
REMARK                            x       y       z     vdW  Elec       q    Type
REMARK                         _______ _______ _______ _____ _____    ______ ____
ROOT
ATOM      1  C   UNL     1       0.224   9.862  19.149  0.00  0.00    +0.000 C 
ATOM      2  C   UNL     1       1.099   8.490  19.189  0.00  0.00    +0.000 A 
ATOM      3  C   UNL     1       2.203   7.922  18.451  0.00  0.00    +0.000 A 
ATOM      4  C   UNL     1       2.927   6.717  18.922  0.00  0.00    +0.000 A 
ATOM      5  C   UNL     1       2.372   6.040  20.022  0.00  0.00    +0.000 A 
ATOM      6  C   UNL     1       1.436   6.661  20.825  0.00  0.00    +0.000 A 
ATOM      7  C   UNL     1       1.058   7.961  20.504  0.00  0.00    +0.000 A 
ATOM      8  C   UNL     1       1.122   9.016  21.619  0.00  0.00    +0.000 C 
ATOM      9  C   UNL     1       1.719  10.336  21.035  0.00  0.00    +0.000 C 
ATOM     10  N   UNL     1       0.847  10.902  20.006  0.00  0.00    +0.000 NA
ATOM     11  C   UNL     1       1.336  12.095  19.343  0.00  0.00    +0.000 C 
ENDROOT
BRANCH   1  15
ATOM     12  C   UNL     1      -3.732  11.368  17.542  0.00  0.00    +0.000 A 
ATOM     13  C   UNL     1      -3.189  11.803  18.743  0.00  0.00    +0.000 A 
ATOM     14  C   UNL     1      -1.923  11.324  19.166  0.00  0.00    +0.000 A 
ATOM     15  C   UNL     1      -1.085  10.402  18.443  0.00  0.00    +0.000 A 
ATOM     16  C   UNL     1      -1.645   9.991  17.225  0.00  0.00    +0.000 A 
ATOM     17  C   UNL     1      -2.928  10.468  16.791  0.00  0.00    +0.000 A 
BRANCH  12  19
ATOM     18  C   UNL     1      -6.359  11.461  17.865  0.00  0.00    +0.000 C 
ATOM     19  C   UNL     1      -5.107  11.778  17.037  0.00  0.00    +0.000 C 
ENDBRANCH  12  19
ENDBRANCH   1  15
BRANCH   4  20
ATOM     20  C   UNL     1       4.219   5.991  18.352  0.00  0.00    +0.000 C 
ATOM     21  O   UNL     1       5.314   6.946  18.031  0.00  0.00    +0.000 OA
ATOM     22  C   UNL     1       6.624   6.323  17.858  0.00  0.00    +0.000 C 
ATOM     23  C   UNL     1       6.603   5.370  16.661  0.00  0.00    +0.000 C 
ATOM     24  C   UNL     1       5.454   4.379  16.831  0.00  0.00    +0.000 C 
ATOM     25  C   UNL     1       4.085   5.059  17.120  0.00  0.00    +0.000 C 
BRANCH  23  26
ATOM     26  O   UNL     1       7.852   4.659  16.579  0.00  0.00    +0.000 OA
ATOM     27  H   UNL     1       8.088   4.580  15.634  0.00  0.00    +0.000 HD
ENDBRANCH  23  26
BRANCH  24  28
ATOM     28  O   UNL     1       5.428   3.530  15.674  0.00  0.00    +0.000 OA
ATOM     29  H   UNL     1       6.237   3.694  15.156  0.00  0.00    +0.000 HD
ENDBRANCH  24  28
BRANCH  25  30
ATOM     30  O   UNL     1       3.111   4.038  17.347  0.00  0.00    +0.000 OA
ATOM     31  H   UNL     1       3.086   3.852  18.302  0.00  0.00    +0.000 HD
ENDBRANCH  25  30
BRANCH  22  32
ATOM     32  C   UNL     1       7.802   7.318  17.648  0.00  0.00    +0.000 C 
BRANCH  32  33
ATOM     33  O   UNL     1       8.549   7.502  18.850  0.00  0.00    +0.000 OA
ATOM     34  H   UNL     1       7.923   7.396  19.594  0.00  0.00    +0.000 HD
ENDBRANCH  32  33
ENDBRANCH  22  32
ENDBRANCH   4  20
TORSDOF 8
ENDMDL
MODEL 2
REMARK VINA RESULT:      -7.6      1.589      2.260
REMARK  Name = 
REMARK  10 active torsions:
REMARK  status: ('A' for Active; 'I' for Inactive)
REMARK    1  A    between atoms: C_1  and  C_2
REMARK    2  A    between atoms: C_2  and  C_3
REMARK    3  A    between atoms: C_6  and  C_7
REMARK    4  A    between atoms: C_10  and  C_11
REMARK    5  A    between atoms: C_13  and  C_14
REMARK    6  A    between atoms: C_14  and  O_15
REMARK    7  A    between atoms: C_16  and  O_17
REMARK    8  A    between atoms: C_18  and  O_19
REMARK    9  A    between atoms: C_20  and  O_21
REMARK   10  A    between atoms: N_27  and  C_28
REMARK                            x       y       z     vdW  Elec       q    Type
REMARK                         _______ _______ _______ _____ _____    ______ ____
ROOT
ATOM      1  C   UNL     1      -0.685  11.110  19.176  0.00  0.00    +0.000 C 
ATOM      2  C   UNL     1       0.145   9.784  19.629  0.00  0.00    +0.000 A 
ATOM      3  C   UNL     1       1.075   8.864  19.019  0.00  0.00    +0.000 A 
ATOM      4  C   UNL     1       1.843   7.877  19.816  0.00  0.00    +0.000 A 
ATOM      5  C   UNL     1       1.486   7.748  21.170  0.00  0.00    +0.000 A 
ATOM      6  C   UNL     1       0.734   8.726  21.791  0.00  0.00    +0.000 A 
ATOM      7  C   UNL     1       0.337   9.826  21.034  0.00  0.00    +0.000 A 
ATOM      8  C   UNL     1       0.637  11.222  21.597  0.00  0.00    +0.000 C 
ATOM      9  C   UNL     1       1.149  12.138  20.439  0.00  0.00    +0.000 C 
ATOM     10  N   UNL     1       0.115  12.335  19.424  0.00  0.00    +0.000 NA
ATOM     11  C   UNL     1       0.503  13.114  18.264  0.00  0.00    +0.000 C 
ENDROOT
BRANCH   1  15
ATOM     12  C   UNL     1      -4.893  11.936  17.724  0.00  0.00    +0.000 A 
ATOM     13  C   UNL     1      -4.459  12.254  19.004  0.00  0.00    +0.000 A 
ATOM     14  C   UNL     1      -3.113  12.010  19.378  0.00  0.00    +0.000 A 
ATOM     15  C   UNL     1      -2.088  11.455  18.532  0.00  0.00    +0.000 A 
ATOM     16  C   UNL     1      -2.545  11.159  17.240  0.00  0.00    +0.000 A 
ATOM     17  C   UNL     1      -3.907  11.400  16.853  0.00  0.00    +0.000 A 
BRANCH  12  19
ATOM     18  C   UNL     1      -7.367  12.778  18.161  0.00  0.00    +0.000 C 
ATOM     19  C   UNL     1      -6.329  12.105  17.251  0.00  0.00    +0.000 C 
ENDBRANCH  12  19
ENDBRANCH   1  15
BRANCH   4  20
ATOM     20  C   UNL     1       2.985   6.859  19.392  0.00  0.00    +0.000 C 
ATOM     21  O   UNL     1       3.321   6.951  17.945  0.00  0.00    +0.000 OA
ATOM     22  C   UNL     1       4.587   6.320  17.580  0.00  0.00    +0.000 C 
ATOM     23  C   UNL     1       4.524   4.816  17.848  0.00  0.00    +0.000 C 
ATOM     24  C   UNL     1       4.101   4.583  19.297  0.00  0.00    +0.000 C 
ATOM     25  C   UNL     1       2.808   5.350  19.697  0.00  0.00    +0.000 C 
BRANCH  23  26
ATOM     26  O   UNL     1       5.816   4.222  17.616  0.00  0.00    +0.000 OA
ATOM     27  H   UNL     1       6.484   4.933  17.676  0.00  0.00    +0.000 HD
ENDBRANCH  23  26
BRANCH  24  28
ATOM     28  O   UNL     1       4.005   3.166  19.507  0.00  0.00    +0.000 OA
ATOM     29  H   UNL     1       3.208   2.989  20.038  0.00  0.00    +0.000 HD
ENDBRANCH  24  28
BRANCH  25  30
ATOM     30  O   UNL     1       2.562   5.128  21.087  0.00  0.00    +0.000 OA
ATOM     31  H   UNL     1       3.269   5.567  21.593  0.00  0.00    +0.000 HD
ENDBRANCH  25  30
BRANCH  22  32
ATOM     32  C   UNL     1       5.015   6.518  16.097  0.00  0.00    +0.000 C 
BRANCH  32  33
ATOM     33  O   UNL     1       6.435   6.479  15.955  0.00  0.00    +0.000 OA
ATOM     34  H   UNL     1       6.772   5.860  16.633  0.00  0.00    +0.000 HD
ENDBRANCH  32  33
ENDBRANCH  22  32
ENDBRANCH   4  20
TORSDOF 8
ENDMDL
MODEL 3
REMARK VINA RESULT:      -7.3      1.159      2.059
REMARK  Name = 
REMARK  10 active torsions:
REMARK  status: ('A' for Active; 'I' for Inactive)
REMARK    1  A    between atoms: C_1  and  C_2
REMARK    2  A    between atoms: C_2  and  C_3
REMARK    3  A    between atoms: C_6  and  C_7
REMARK    4  A    between atoms: C_10  and  C_11
REMARK    5  A    between atoms: C_13  and  C_14
REMARK    6  A    between atoms: C_14  and  O_15
REMARK    7  A    between atoms: C_16  and  O_17
REMARK    8  A    between atoms: C_18  and  O_19
REMARK    9  A    between atoms: C_20  and  O_21
REMARK   10  A    between atoms: N_27  and  C_28
REMARK                            x       y       z     vdW  Elec       q    Type
REMARK                         _______ _______ _______ _____ _____    ______ ____
ROOT
ATOM      1  C   UNL     1       0.417   9.724  18.922  0.00  0.00    +0.000 C 
ATOM      2  C   UNL     1       1.397   8.432  18.780  0.00  0.00    +0.000 A 
ATOM      3  C   UNL     1       2.553   8.067  17.995  0.00  0.00    +0.000 A 
ATOM      4  C   UNL     1       3.364   6.864  18.300  0.00  0.00    +0.000 A 
ATOM      5  C   UNL     1       2.849   5.989  19.273  0.00  0.00    +0.000 A 
ATOM      6  C   UNL     1       1.855   6.409  20.135  0.00  0.00    +0.000 A 
ATOM      7  C   UNL     1       1.379   7.711  20.001  0.00  0.00    +0.000 A 
ATOM      8  C   UNL     1       1.344   8.588  21.261  0.00  0.00    +0.000 C 
ATOM      9  C   UNL     1       1.842  10.022  20.895  0.00  0.00    +0.000 C 
ATOM     10  N   UNL     1       0.944  10.668  19.940  0.00  0.00    +0.000 NA
ATOM     11  C   UNL     1       1.346  11.981  19.474  0.00  0.00    +0.000 C 
ENDROOT
BRANCH   1  15
ATOM     12  C   UNL     1      -3.606  11.217  17.476  0.00  0.00    +0.000 A 
ATOM     13  C   UNL     1      -3.025  11.638  18.665  0.00  0.00    +0.000 A 
ATOM     14  C   UNL     1      -1.741  11.166  19.035  0.00  0.00    +0.000 A 
ATOM     15  C   UNL     1      -0.921  10.262  18.270  0.00  0.00    +0.000 A 
ATOM     16  C   UNL     1      -1.519   9.865  17.066  0.00  0.00    +0.000 A 
ATOM     17  C   UNL     1      -2.821  10.336  16.684  0.00  0.00    +0.000 A 
BRANCH  12  19
ATOM     18  C   UNL     1      -6.192  11.479  17.983  0.00  0.00    +0.000 C 
ATOM     19  C   UNL     1      -5.001  11.622  17.026  0.00  0.00    +0.000 C 
ENDBRANCH  12  19
ENDBRANCH   1  15
BRANCH   4  20
ATOM     20  C   UNL     1       4.716   6.332  17.663  0.00  0.00    +0.000 C 
ATOM     21  O   UNL     1       4.501   5.650  16.358  0.00  0.00    +0.000 OA
ATOM     22  C   UNL     1       5.715   5.470  15.565  0.00  0.00    +0.000 C 
ATOM     23  C   UNL     1       6.697   4.557  16.300  0.00  0.00    +0.000 C 
ATOM     24  C   UNL     1       6.939   5.110  17.703  0.00  0.00    +0.000 C 
ATOM     25  C   UNL     1       5.629   5.393  18.493  0.00  0.00    +0.000 C 
BRANCH  23  26
ATOM     26  O   UNL     1       7.943   4.495  15.579  0.00  0.00    +0.000 OA
ATOM     27  H   UNL     1       8.645   4.832  16.170  0.00  0.00    +0.000 HD
ENDBRANCH  23  26
BRANCH  24  28
ATOM     28  O   UNL     1       7.825   4.209  18.385  0.00  0.00    +0.000 OA
ATOM     29  H   UNL     1       8.604   4.060  17.820  0.00  0.00    +0.000 HD
ENDBRANCH  24  28
BRANCH  25  30
ATOM     30  O   UNL     1       5.976   5.985  19.747  0.00  0.00    +0.000 OA
ATOM     31  H   UNL     1       5.433   5.567  20.439  0.00  0.00    +0.000 HD
ENDBRANCH  25  30
BRANCH  22  32
ATOM     32  C   UNL     1       5.490   4.875  14.144  0.00  0.00    +0.000 C 
BRANCH  32  33
ATOM     33  O   UNL     1       5.935   3.521  14.071  0.00  0.00    +0.000 OA
ATOM     34  H   UNL     1       6.564   3.467  13.325  0.00  0.00    +0.000 HD
ENDBRANCH  32  33
ENDBRANCH  22  32
ENDBRANCH   4  20
TORSDOF 8
ENDMDL
MODEL 4
REMARK VINA RESULT:      -7.2      0.580      1.040
REMARK  Name = 
REMARK  10 active torsions:
REMARK  status: ('A' for Active; 'I' for Inactive)
REMARK    1  A    between atoms: C_1  and  C_2
REMARK    2  A    between atoms: C_2  and  C_3
REMARK    3  A    between atoms: C_6  and  C_7
REMARK    4  A    between atoms: C_10  and  C_11
REMARK    5  A    between atoms: C_13  and  C_14
REMARK    6  A    between atoms: C_14  and  O_15
REMARK    7  A    between atoms: C_16  and  O_17
REMARK    8  A    between atoms: C_18  and  O_19
REMARK    9  A    between atoms: C_20  and  O_21
REMARK   10  A    between atoms: N_27  and  C_28
REMARK                            x       y       z     vdW  Elec       q    Type
REMARK                         _______ _______ _______ _____ _____    ______ ____
ROOT
ATOM      1  C   UNL     1       0.185   9.628  19.415  0.00  0.00    +0.000 C 
ATOM      2  C   UNL     1       1.078   8.268  19.427  0.00  0.00    +0.000 A 
ATOM      3  C   UNL     1       2.156   7.708  18.646  0.00  0.00    +0.000 A 
ATOM      4  C   UNL     1       2.916   6.516  19.094  0.00  0.00    +0.000 A 
ATOM      5  C   UNL     1       2.420   5.842  20.223  0.00  0.00    +0.000 A 
ATOM      6  C   UNL     1       1.511   6.458  21.062  0.00  0.00    +0.000 A 
ATOM      7  C   UNL     1       1.102   7.751  20.748  0.00  0.00    +0.000 A 
ATOM      8  C   UNL     1       1.202   8.816  21.849  0.00  0.00    +0.000 C 
ATOM      9  C   UNL     1       1.755  10.138  21.229  0.00  0.00    +0.000 C 
ATOM     10  N   UNL     1       0.831  10.684  20.235  0.00  0.00    +0.000 NA
ATOM     11  C   UNL     1       1.275  11.877  19.541  0.00  0.00    +0.000 C 
ENDROOT
BRANCH   1  15
ATOM     12  C   UNL     1      -3.430  11.150  17.152  0.00  0.00    +0.000 A 
ATOM     13  C   UNL     1      -2.568  10.189  16.642  0.00  0.00    +0.000 A 
ATOM     14  C   UNL     1      -1.481   9.722  17.424  0.00  0.00    +0.000 A 
ATOM     15  C   UNL     1      -1.161  10.145  18.763  0.00  0.00    +0.000 A 
ATOM     16  C   UNL     1      -2.055  11.102  19.264  0.00  0.00    +0.000 A 
ATOM     17  C   UNL     1      -3.158  11.582  18.478  0.00  0.00    +0.000 A 
BRANCH  12  19
ATOM     18  C   UNL     1      -5.749  12.430  17.104  0.00  0.00    +0.000 C 
ATOM     19  C   UNL     1      -4.585  11.753  16.367  0.00  0.00    +0.000 C 
ENDBRANCH  12  19
ENDBRANCH   1  15
BRANCH   4  20
ATOM     20  C   UNL     1       4.191   5.802  18.474  0.00  0.00    +0.000 C 
ATOM     21  O   UNL     1       5.339   6.732  18.304  0.00  0.00    +0.000 OA
ATOM     22  C   UNL     1       6.624   6.071  18.090  0.00  0.00    +0.000 C 
ATOM     23  C   UNL     1       6.598   5.275  16.784  0.00  0.00    +0.000 C 
ATOM     24  C   UNL     1       5.399   4.329  16.798  0.00  0.00    +0.000 C 
ATOM     25  C   UNL     1       4.055   5.037  17.132  0.00  0.00    +0.000 C 
BRANCH  23  26
ATOM     26  O   UNL     1       7.815   4.517  16.648  0.00  0.00    +0.000 OA
ATOM     27  H   UNL     1       7.684   3.870  15.927  0.00  0.00    +0.000 HD
ENDBRANCH  23  26
BRANCH  24  28
ATOM     28  O   UNL     1       5.373   3.631  15.544  0.00  0.00    +0.000 OA
ATOM     29  H   UNL     1       6.032   4.038  14.953  0.00  0.00    +0.000 HD
ENDBRANCH  24  28
BRANCH  25  30
ATOM     30  O   UNL     1       3.027   4.046  17.203  0.00  0.00    +0.000 OA
ATOM     31  H   UNL     1       3.454   3.174  17.276  0.00  0.00    +0.000 HD
ENDBRANCH  25  30
BRANCH  22  32
ATOM     32  C   UNL     1       7.853   7.024  18.038  0.00  0.00    +0.000 C 
BRANCH  32  33
ATOM     33  O   UNL     1       8.054   7.544  16.724  0.00  0.00    +0.000 OA
ATOM     34  H   UNL     1       7.222   7.400  16.230  0.00  0.00    +0.000 HD
ENDBRANCH  32  33
ENDBRANCH  22  32
ENDBRANCH   4  20
TORSDOF 8
ENDMDL
MODEL 5
REMARK VINA RESULT:      -7.2      1.526      2.470
REMARK  Name = 
REMARK  10 active torsions:
REMARK  status: ('A' for Active; 'I' for Inactive)
REMARK    1  A    between atoms: C_1  and  C_2
REMARK    2  A    between atoms: C_2  and  C_3
REMARK    3  A    between atoms: C_6  and  C_7
REMARK    4  A    between atoms: C_10  and  C_11
REMARK    5  A    between atoms: C_13  and  C_14
REMARK    6  A    between atoms: C_14  and  O_15
REMARK    7  A    between atoms: C_16  and  O_17
REMARK    8  A    between atoms: C_18  and  O_19
REMARK    9  A    between atoms: C_20  and  O_21
REMARK   10  A    between atoms: N_27  and  C_28
REMARK                            x       y       z     vdW  Elec       q    Type
REMARK                         _______ _______ _______ _____ _____    ______ ____
ROOT
ATOM      1  C   UNL     1      -0.604  10.950  19.009  0.00  0.00    +0.000 C 
ATOM      2  C   UNL     1       0.232   9.570  19.219  0.00  0.00    +0.000 A 
ATOM      3  C   UNL     1       1.073   8.715  18.415  0.00  0.00    +0.000 A 
ATOM      4  C   UNL     1       1.891   7.631  19.010  0.00  0.00    +0.000 A 
ATOM      5  C   UNL     1       1.669   7.350  20.369  0.00  0.00    +0.000 A 
ATOM      6  C   UNL     1       1.009   8.259  21.172  0.00  0.00    +0.000 A 
ATOM      7  C   UNL     1       0.566   9.445  20.592  0.00  0.00    +0.000 A 
ATOM      8  C   UNL     1       0.957  10.762  21.277  0.00  0.00    +0.000 C 
ATOM      9  C   UNL     1       1.373  11.799  20.186  0.00  0.00    +0.000 C 
ATOM     10  N   UNL     1       0.248  12.128  19.312  0.00  0.00    +0.000 NA
ATOM     11  C   UNL     1       0.537  13.031  18.215  0.00  0.00    +0.000 C 
ENDROOT
BRANCH   1  15
ATOM     12  C   UNL     1      -4.908  12.048  18.127  0.00  0.00    +0.000 A 
ATOM     13  C   UNL     1      -4.290  12.326  19.338  0.00  0.00    +0.000 A 
ATOM     14  C   UNL     1      -2.924  11.996  19.532  0.00  0.00    +0.000 A 
ATOM     15  C   UNL     1      -2.056  11.388  18.556  0.00  0.00    +0.000 A 
ATOM     16  C   UNL     1      -2.697  11.134  17.335  0.00  0.00    +0.000 A 
ATOM     17  C   UNL     1      -4.081  11.461  17.132  0.00  0.00    +0.000 A 
BRANCH  12  19
ATOM     18  C   UNL     1      -6.805  13.541  17.036  0.00  0.00    +0.000 C 
ATOM     19  C   UNL     1      -6.380  12.310  17.848  0.00  0.00    +0.000 C 
ENDBRANCH  12  19
ENDBRANCH   1  15
BRANCH   4  20
ATOM     20  C   UNL     1       2.958   6.654  18.356  0.00  0.00    +0.000 C 
ATOM     21  O   UNL     1       3.502   5.670  19.332  0.00  0.00    +0.000 OA
ATOM     22  C   UNL     1       4.193   4.536  18.722  0.00  0.00    +0.000 C 
ATOM     23  C   UNL     1       5.427   5.018  17.958  0.00  0.00    +0.000 C 
ATOM     24  C   UNL     1       5.011   6.105  16.970  0.00  0.00    +0.000 C 
ATOM     25  C   UNL     1       4.185   7.252  17.620  0.00  0.00    +0.000 C 
BRANCH  23  26
ATOM     26  O   UNL     1       6.024   3.917  17.247  0.00  0.00    +0.000 OA
ATOM     27  H   UNL     1       6.951   4.158  17.050  0.00  0.00    +0.000 HD
ENDBRANCH  23  26
BRANCH  24  28
ATOM     28  O   UNL     1       6.193   6.571  16.302  0.00  0.00    +0.000 OA
ATOM     29  H   UNL     1       5.924   7.023  15.482  0.00  0.00    +0.000 HD
ENDBRANCH  24  28
BRANCH  25  30
ATOM     30  O   UNL     1       3.779   8.158  16.591  0.00  0.00    +0.000 OA
ATOM     31  H   UNL     1       3.871   7.703  15.736  0.00  0.00    +0.000 HD
ENDBRANCH  25  30
BRANCH  22  32
ATOM     32  C   UNL     1       4.655   3.435  19.719  0.00  0.00    +0.000 C 
BRANCH  32  33
ATOM     33  O   UNL     1       4.600   2.138  19.125  0.00  0.00    +0.000 OA
ATOM     34  H   UNL     1       3.765   2.092  18.618  0.00  0.00    +0.000 HD
ENDBRANCH  32  33
ENDBRANCH  22  32
ENDBRANCH   4  20
TORSDOF 8
ENDMDL
MODEL 6
REMARK VINA RESULT:      -7.2      1.737      2.824
REMARK  Name = 
REMARK  10 active torsions:
REMARK  status: ('A' for Active; 'I' for Inactive)
REMARK    1  A    between atoms: C_1  and  C_2
REMARK    2  A    between atoms: C_2  and  C_3
REMARK    3  A    between atoms: C_6  and  C_7
REMARK    4  A    between atoms: C_10  and  C_11
REMARK    5  A    between atoms: C_13  and  C_14
REMARK    6  A    between atoms: C_14  and  O_15
REMARK    7  A    between atoms: C_16  and  O_17
REMARK    8  A    between atoms: C_18  and  O_19
REMARK    9  A    between atoms: C_20  and  O_21
REMARK   10  A    between atoms: N_27  and  C_28
REMARK                            x       y       z     vdW  Elec       q    Type
REMARK                         _______ _______ _______ _____ _____    ______ ____
ROOT
ATOM      1  C   UNL     1      -1.195  11.326  19.433  0.00  0.00    +0.000 C 
ATOM      2  C   UNL     1      -0.251  10.091  19.914  0.00  0.00    +0.000 A 
ATOM      3  C   UNL     1       0.578   9.090  19.284  0.00  0.00    +0.000 A 
ATOM      4  C   UNL     1       1.515   8.242  20.059  0.00  0.00    +0.000 A 
ATOM      5  C   UNL     1       1.425   8.325  21.460  0.00  0.00    +0.000 A 
ATOM      6  C   UNL     1       0.771   9.384  22.057  0.00  0.00    +0.000 A 
ATOM      7  C   UNL     1       0.201  10.351  21.233  0.00  0.00    +0.000 A 
ATOM      8  C   UNL     1       0.555  11.819  21.509  0.00  0.00    +0.000 C 
ATOM      9  C   UNL     1       0.808  12.545  20.149  0.00  0.00    +0.000 C 
ATOM     10  N   UNL     1      -0.404  12.578  19.333  0.00  0.00    +0.000 NA
ATOM     11  C   UNL     1      -0.269  13.168  18.016  0.00  0.00    +0.000 C 
ENDROOT
BRANCH   1  15
ATOM     12  C   UNL     1      -5.363  12.087  17.836  0.00  0.00    +0.000 A 
ATOM     13  C   UNL     1      -4.426  11.314  17.164  0.00  0.00    +0.000 A 
ATOM     14  C   UNL     1      -3.153  11.077  17.744  0.00  0.00    +0.000 A 
ATOM     15  C   UNL     1      -2.706  11.561  19.025  0.00  0.00    +0.000 A 
ATOM     16  C   UNL     1      -3.675  12.323  19.692  0.00  0.00    +0.000 A 
ATOM     17  C   UNL     1      -4.966  12.570  19.111  0.00  0.00    +0.000 A 
BRANCH  12  19
ATOM     18  C   UNL     1      -7.071  13.904  16.943  0.00  0.00    +0.000 C 
ATOM     19  C   UNL     1      -6.729  12.444  17.268  0.00  0.00    +0.000 C 
ENDBRANCH  12  19
ENDBRANCH   1  15
BRANCH   4  20
ATOM     20  C   UNL     1       2.590   7.176  19.584  0.00  0.00    +0.000 C 
ATOM     21  O   UNL     1       2.975   7.352  18.157  0.00  0.00    +0.000 OA
ATOM     22  C   UNL     1       4.200   6.656  17.773  0.00  0.00    +0.000 C 
ATOM     23  C   UNL     1       4.018   5.144  17.921  0.00  0.00    +0.000 C 
ATOM     24  C   UNL     1       3.536   4.835  19.337  0.00  0.00    +0.000 C 
ATOM     25  C   UNL     1       2.292   5.665  19.765  0.00  0.00    +0.000 C 
BRANCH  23  26
ATOM     26  O   UNL     1       5.268   4.473  17.674  0.00  0.00    +0.000 OA
ATOM     27  H   UNL     1       5.331   3.724  18.298  0.00  0.00    +0.000 HD
ENDBRANCH  23  26
BRANCH  24  28
ATOM     28  O   UNL     1       3.329   3.417  19.432  0.00  0.00    +0.000 OA
ATOM     29  H   UNL     1       3.894   2.980  18.770  0.00  0.00    +0.000 HD
ENDBRANCH  24  28
BRANCH  25  30
ATOM     30  O   UNL     1       1.990   5.357  21.127  0.00  0.00    +0.000 OA
ATOM     31  H   UNL     1       1.667   6.170  21.556  0.00  0.00    +0.000 HD
ENDBRANCH  25  30
BRANCH  22  32
ATOM     32  C   UNL     1       4.686   6.932  16.321  0.00  0.00    +0.000 C 
BRANCH  32  33
ATOM     33  O   UNL     1       6.111   6.916  16.236  0.00  0.00    +0.000 OA
ATOM     34  H   UNL     1       6.442   6.542  17.076  0.00  0.00    +0.000 HD
ENDBRANCH  32  33
ENDBRANCH  22  32
ENDBRANCH   4  20
TORSDOF 8
ENDMDL
MODEL 7
REMARK VINA RESULT:      -7.0      4.361      9.160
REMARK  Name = 
REMARK  10 active torsions:
REMARK  status: ('A' for Active; 'I' for Inactive)
REMARK    1  A    between atoms: C_1  and  C_2
REMARK    2  A    between atoms: C_2  and  C_3
REMARK    3  A    between atoms: C_6  and  C_7
REMARK    4  A    between atoms: C_10  and  C_11
REMARK    5  A    between atoms: C_13  and  C_14
REMARK    6  A    between atoms: C_14  and  O_15
REMARK    7  A    between atoms: C_16  and  O_17
REMARK    8  A    between atoms: C_18  and  O_19
REMARK    9  A    between atoms: C_20  and  O_21
REMARK   10  A    between atoms: N_27  and  C_28
REMARK                            x       y       z     vdW  Elec       q    Type
REMARK                         _______ _______ _______ _____ _____    ______ ____
ROOT
ATOM      1  C   UNL     1       2.712   6.015  18.404  0.00  0.00    +0.000 C 
ATOM      2  C   UNL     1       2.129   7.349  19.132  0.00  0.00    +0.000 A 
ATOM      3  C   UNL     1       1.247   8.438  18.785  0.00  0.00    +0.000 A 
ATOM      4  C   UNL     1       0.730   9.387  19.801  0.00  0.00    +0.000 A 
ATOM      5  C   UNL     1       1.286   9.293  21.089  0.00  0.00    +0.000 A 
ATOM      6  C   UNL     1       1.987   8.164  21.467  0.00  0.00    +0.000 A 
ATOM      7  C   UNL     1       2.131   7.140  20.535  0.00  0.00    +0.000 A 
ATOM      8  C   UNL     1       1.738   5.721  20.970  0.00  0.00    +0.000 C 
ATOM      9  C   UNL     1       0.957   5.031  19.807  0.00  0.00    +0.000 C 
ATOM     10  N   UNL     1       1.805   4.861  18.628  0.00  0.00    +0.000 NA
ATOM     11  C   UNL     1       1.163   4.292  17.459  0.00  0.00    +0.000 C 
ENDROOT
BRANCH   1  15
ATOM     12  C   UNL     1       6.072   5.092  15.513  0.00  0.00    +0.000 A 
ATOM     13  C   UNL     1       5.516   6.357  15.647  0.00  0.00    +0.000 A 
ATOM     14  C   UNL     1       4.497   6.587  16.606  0.00  0.00    +0.000 A 
ATOM     15  C   UNL     1       3.956   5.609  17.515  0.00  0.00    +0.000 A 
ATOM     16  C   UNL     1       4.545   4.345  17.373  0.00  0.00    +0.000 A 
ATOM     17  C   UNL     1       5.575   4.102  16.402  0.00  0.00    +0.000 A 
BRANCH  12  19
ATOM     18  C   UNL     1       6.721   4.003  13.187  0.00  0.00    +0.000 C 
ATOM     19  C   UNL     1       7.124   4.737  14.474  0.00  0.00    +0.000 C 
ENDBRANCH  12  19
ENDBRANCH   1  15
BRANCH   4  20
ATOM     20  C   UNL     1      -0.321  10.570  19.681  0.00  0.00    +0.000 C 
ATOM     21  O   UNL     1      -0.998  10.864  20.973  0.00  0.00    +0.000 OA
ATOM     22  C   UNL     1      -1.687  12.152  21.013  0.00  0.00    +0.000 C 
ATOM     23  C   UNL     1      -2.822  12.176  19.988  0.00  0.00    +0.000 C 
ATOM     24  C   UNL     1      -2.266  11.803  18.616  0.00  0.00    +0.000 C 
ATOM     25  C   UNL     1      -1.445  10.481  18.617  0.00  0.00    +0.000 C 
BRANCH  23  26
ATOM     26  O   UNL     1      -3.407  13.491  19.936  0.00  0.00    +0.000 OA
ATOM     27  H   UNL     1      -4.338  13.391  19.655  0.00  0.00    +0.000 HD
ENDBRANCH  23  26
BRANCH  24  28
ATOM     28  O   UNL     1      -3.359  11.788  17.686  0.00  0.00    +0.000 OA
ATOM     29  H   UNL     1      -4.165  11.522  18.165  0.00  0.00    +0.000 HD
ENDBRANCH  24  28
BRANCH  25  30
ATOM     30  O   UNL     1      -0.905  10.283  17.308  0.00  0.00    +0.000 OA
ATOM     31  H   UNL     1       0.045  10.092  17.400  0.00  0.00    +0.000 HD
ENDBRANCH  25  30
BRANCH  22  32
ATOM     32  C   UNL     1      -2.290  12.531  22.396  0.00  0.00    +0.000 C 
BRANCH  32  33
ATOM     33  O   UNL     1      -3.689  12.251  22.449  0.00  0.00    +0.000 OA
ATOM     34  H   UNL     1      -3.878  11.913  23.346  0.00  0.00    +0.000 HD
ENDBRANCH  32  33
ENDBRANCH  22  32
ENDBRANCH   4  20
TORSDOF 8
ENDMDL
MODEL 8
REMARK VINA RESULT:      -7.0      1.217      1.910
REMARK  Name = 
REMARK  10 active torsions:
REMARK  status: ('A' for Active; 'I' for Inactive)
REMARK    1  A    between atoms: C_1  and  C_2
REMARK    2  A    between atoms: C_2  and  C_3
REMARK    3  A    between atoms: C_6  and  C_7
REMARK    4  A    between atoms: C_10  and  C_11
REMARK    5  A    between atoms: C_13  and  C_14
REMARK    6  A    between atoms: C_14  and  O_15
REMARK    7  A    between atoms: C_16  and  O_17
REMARK    8  A    between atoms: C_18  and  O_19
REMARK    9  A    between atoms: C_20  and  O_21
REMARK   10  A    between atoms: N_27  and  C_28
REMARK                            x       y       z     vdW  Elec       q    Type
REMARK                         _______ _______ _______ _____ _____    ______ ____
ROOT
ATOM      1  C   UNL     1      -0.692  10.889  19.232  0.00  0.00    +0.000 C 
ATOM      2  C   UNL     1       0.204   9.563  19.526  0.00  0.00    +0.000 A 
ATOM      3  C   UNL     1       1.034   8.661  18.762  0.00  0.00    +0.000 A 
ATOM      4  C   UNL     1       1.920   7.665  19.412  0.00  0.00    +0.000 A 
ATOM      5  C   UNL     1       1.777   7.509  20.802  0.00  0.00    +0.000 A 
ATOM      6  C   UNL     1       1.125   8.470  21.550  0.00  0.00    +0.000 A 
ATOM      7  C   UNL     1       0.610   9.580  20.885  0.00  0.00    +0.000 A 
ATOM      8  C   UNL     1       0.987  10.968  21.422  0.00  0.00    +0.000 C 
ATOM      9  C   UNL     1       1.309  11.909  20.217  0.00  0.00    +0.000 C 
ATOM     10  N   UNL     1       0.131  12.117  19.378  0.00  0.00    +0.000 NA
ATOM     11  C   UNL     1       0.331  12.919  18.187  0.00  0.00    +0.000 C 
ENDROOT
BRANCH   1  15
ATOM     12  C   UNL     1      -4.785  11.968  17.624  0.00  0.00    +0.000 A 
ATOM     13  C   UNL     1      -3.893  11.154  16.938  0.00  0.00    +0.000 A 
ATOM     14  C   UNL     1      -2.645  10.818  17.521  0.00  0.00    +0.000 A 
ATOM     15  C   UNL     1      -2.180  11.235  18.819  0.00  0.00    +0.000 A 
ATOM     16  C   UNL     1      -3.103  12.040  19.500  0.00  0.00    +0.000 A 
ATOM     17  C   UNL     1      -4.369  12.389  18.916  0.00  0.00    +0.000 A 
BRANCH  12  19
ATOM     18  C   UNL     1      -7.184  13.032  17.981  0.00  0.00    +0.000 C 
ATOM     19  C   UNL     1      -6.118  12.431  17.055  0.00  0.00    +0.000 C 
ENDBRANCH  12  19
ENDBRANCH   1  15
BRANCH   4  20
ATOM     20  C   UNL     1       2.988   6.665  18.797  0.00  0.00    +0.000 C 
ATOM     21  O   UNL     1       3.931   7.341  17.865  0.00  0.00    +0.000 OA
ATOM     22  C   UNL     1       5.134   6.570  17.562  0.00  0.00    +0.000 C 
ATOM     23  C   UNL     1       4.764   5.275  16.836  0.00  0.00    +0.000 C 
ATOM     24  C   UNL     1       3.724   4.519  17.661  0.00  0.00    +0.000 C 
ATOM     25  C   UNL     1       2.499   5.389  18.064  0.00  0.00    +0.000 C 
BRANCH  23  26
ATOM     26  O   UNL     1       5.937   4.458  16.663  0.00  0.00    +0.000 OA
ATOM     27  H   UNL     1       5.999   3.861  17.435  0.00  0.00    +0.000 HD
ENDBRANCH  23  26
BRANCH  24  28
ATOM     28  O   UNL     1       3.361   3.335  16.935  0.00  0.00    +0.000 OA
ATOM     29  H   UNL     1       2.495   3.030  17.262  0.00  0.00    +0.000 HD
ENDBRANCH  24  28
BRANCH  25  30
ATOM     30  O   UNL     1       1.644   4.607  18.901  0.00  0.00    +0.000 OA
ATOM     31  H   UNL     1       2.066   3.740  19.037  0.00  0.00    +0.000 HD
ENDBRANCH  25  30
BRANCH  22  32
ATOM     32  C   UNL     1       6.189   7.313  16.692  0.00  0.00    +0.000 C 
BRANCH  32  33
ATOM     33  O   UNL     1       7.480   6.716  16.815  0.00  0.00    +0.000 OA
ATOM     34  H   UNL     1       7.338   5.771  17.025  0.00  0.00    +0.000 HD
ENDBRANCH  32  33
ENDBRANCH  22  32
ENDBRANCH   4  20
TORSDOF 8
ENDMDL
MODEL 9
REMARK VINA RESULT:      -6.8      6.404     11.004
REMARK  Name = 
REMARK  10 active torsions:
REMARK  status: ('A' for Active; 'I' for Inactive)
REMARK    1  A    between atoms: C_1  and  C_2
REMARK    2  A    between atoms: C_2  and  C_3
REMARK    3  A    between atoms: C_6  and  C_7
REMARK    4  A    between atoms: C_10  and  C_11
REMARK    5  A    between atoms: C_13  and  C_14
REMARK    6  A    between atoms: C_14  and  O_15
REMARK    7  A    between atoms: C_16  and  O_17
REMARK    8  A    between atoms: C_18  and  O_19
REMARK    9  A    between atoms: C_20  and  O_21
REMARK   10  A    between atoms: N_27  and  C_28
REMARK                            x       y       z     vdW  Elec       q    Type
REMARK                         _______ _______ _______ _____ _____    ______ ____
ROOT
ATOM      1  C   UNL     1       0.208  10.992  19.548  0.00  0.00    +0.000 C 
ATOM      2  C   UNL     1      -1.324  11.431  19.876  0.00  0.00    +0.000 A 
ATOM      3  C   UNL     1      -2.073  11.861  21.033  0.00  0.00    +0.000 A 
ATOM      4  C   UNL     1      -3.440  12.426  20.922  0.00  0.00    +0.000 A 
ATOM      5  C   UNL     1      -4.049  12.352  19.657  0.00  0.00    +0.000 A 
ATOM      6  C   UNL     1      -3.291  12.107  18.529  0.00  0.00    +0.000 A 
ATOM      7  C   UNL     1      -1.919  11.928  18.688  0.00  0.00    +0.000 A 
ATOM      8  C   UNL     1      -0.985  12.775  17.812  0.00  0.00    +0.000 C 
ATOM      9  C   UNL     1       0.205  13.287  18.685  0.00  0.00    +0.000 C 
ATOM     10  N   UNL     1       1.020  12.177  19.172  0.00  0.00    +0.000 NA
ATOM     11  C   UNL     1       2.116  12.530  20.053  0.00  0.00    +0.000 C 
ENDROOT
BRANCH   1  15
ATOM     12  C   UNL     1       2.493   7.108  19.105  0.00  0.00    +0.000 A 
ATOM     13  C   UNL     1       2.349   8.023  18.071  0.00  0.00    +0.000 A 
ATOM     14  C   UNL     1       1.660   9.242  18.291  0.00  0.00    +0.000 A 
ATOM     15  C   UNL     1       1.075   9.668  19.537  0.00  0.00    +0.000 A 
ATOM     16  C   UNL     1       1.249   8.738  20.571  0.00  0.00    +0.000 A 
ATOM     17  C   UNL     1       1.943   7.499  20.356  0.00  0.00    +0.000 A 
BRANCH  12  19
ATOM     18  C   UNL     1       2.835   4.865  17.738  0.00  0.00    +0.000 C 
ATOM     19  C   UNL     1       3.162   5.751  18.948  0.00  0.00    +0.000 C 
ENDBRANCH  12  19
ENDBRANCH   1  15
BRANCH   4  20
ATOM     20  C   UNL     1      -4.396  13.060  22.018  0.00  0.00    +0.000 C 
ATOM     21  O   UNL     1      -5.753  12.451  22.010  0.00  0.00    +0.000 OA
ATOM     22  C   UNL     1      -6.543  12.724  23.209  0.00  0.00    +0.000 C 
ATOM     23  C   UNL     1      -6.814  14.225  23.333  0.00  0.00    +0.000 C 
ATOM     24  C   UNL     1      -5.488  14.979  23.268  0.00  0.00    +0.000 C 
ATOM     25  C   UNL     1      -4.614  14.595  22.040  0.00  0.00    +0.000 C 
BRANCH  23  26
ATOM     26  O   UNL     1      -7.472  14.502  24.583  0.00  0.00    +0.000 OA
ATOM     27  H   UNL     1      -7.110  15.341  24.930  0.00  0.00    +0.000 HD
ENDBRANCH  23  26
BRANCH  24  28
ATOM     28  O   UNL     1      -5.775  16.384  23.339  0.00  0.00    +0.000 OA
ATOM     29  H   UNL     1      -5.497  16.709  24.214  0.00  0.00    +0.000 HD
ENDBRANCH  24  28
BRANCH  25  30
ATOM     30  O   UNL     1      -3.370  15.293  22.133  0.00  0.00    +0.000 OA
ATOM     31  H   UNL     1      -3.475  16.011  22.782  0.00  0.00    +0.000 HD
ENDBRANCH  25  30
BRANCH  22  32
ATOM     32  C   UNL     1      -7.914  11.991  23.274  0.00  0.00    +0.000 C 
BRANCH  32  33
ATOM     33  O   UNL     1      -7.823  10.669  22.744  0.00  0.00    +0.000 OA
ATOM     34  H   UNL     1      -8.672  10.224  22.939  0.00  0.00    +0.000 HD
ENDBRANCH  32  33
ENDBRANCH  22  32
ENDBRANCH   4  20
TORSDOF 8
ENDMDL
