MODEL 1
REMARK VINA RESULT:      -8.3      0.000      0.000
REMARK  Name = 
REMARK  3 active torsions:
REMARK  status: ('A' for Active; 'I' for Inactive)
REMARK    1  A    between atoms: C_5  and  O_6
REMARK    2  A    between atoms: O_6  and  S_7
REMARK    3  A    between atoms: S_7  and  C_10
REMARK                            x       y       z     vdW  Elec       q    Type
REMARK                         _______ _______ _______ _____ _____    ______ ____
ROOT
ATOM      1  O   UNL     1       6.235   3.650  13.668  0.00  0.00    +0.000 OA
ATOM      2  C   UNL     1       6.372   4.157  14.772  0.00  0.00    +0.000 A 
ATOM      3  N   UNL     1       5.857   3.654  15.941  0.00  0.00    +0.000 N 
ATOM      4  C   UNL     1       6.211   4.489  16.965  0.00  0.00    +0.000 A 
ATOM      5  C   UNL     1       5.972   4.453  18.326  0.00  0.00    +0.000 A 
ATOM      6  C   UNL     1       6.561   5.465  19.095  0.00  0.00    +0.000 A 
ATOM      7  C   UNL     1       7.337   6.480  18.494  0.00  0.00    +0.000 A 
ATOM      8  C   UNL     1       7.544   6.498  17.113  0.00  0.00    +0.000 A 
ATOM      9  C   UNL     1       6.967   5.486  16.376  0.00  0.00    +0.000 A 
ATOM     10  O   UNL     1       7.088   5.335  15.003  0.00  0.00    +0.000 OA
ATOM     11  H   UNL     1       5.335   2.787  15.988  0.00  0.00    +0.000 HD
ENDROOT
BRANCH   5  12
ATOM     12  O   UNL     1       5.249   3.510  19.005  0.00  0.00    +0.000 OA
BRANCH  12  13
ATOM     13  S   UNL     1       3.654   3.308  18.719  0.00  0.00    +0.000 S 
ATOM     14  O   UNL     1       3.460   3.150  17.290  0.00  0.00    +0.000 OA
ATOM     15  O   UNL     1       3.126   2.331  19.653  0.00  0.00    +0.000 OA
BRANCH  13  16
ATOM     16  C   UNL     1       2.922   4.862  19.181  0.00  0.00    +0.000 A 
ATOM     17  C   UNL     1       2.363   5.020  20.455  0.00  0.00    +0.000 A 
ATOM     18  C   UNL     1       1.857   6.263  20.834  0.00  0.00    +0.000 A 
ATOM     19  C   UNL     1       1.912   7.338  19.946  0.00  0.00    +0.000 A 
ATOM     20  C   UNL     1       2.471   7.168  18.678  0.00  0.00    +0.000 A 
ATOM     21 CL   UNL     1       2.544   8.505  17.597  0.00  0.00    +0.000 Cl
ATOM     22  C   UNL     1       2.981   5.933  18.284  0.00  0.00    +0.000 A 
ENDBRANCH  13  16
ENDBRANCH  12  13
ENDBRANCH   5  12
TORSDOF 3
ENDMDL
MODEL 2
REMARK VINA RESULT:      -7.9      3.018      6.026
REMARK  Name = 
REMARK  3 active torsions:
REMARK  status: ('A' for Active; 'I' for Inactive)
REMARK    1  A    between atoms: C_5  and  O_6
REMARK    2  A    between atoms: O_6  and  S_7
REMARK    3  A    between atoms: S_7  and  C_10
REMARK                            x       y       z     vdW  Elec       q    Type
REMARK                         _______ _______ _______ _____ _____    ______ ____
ROOT
ATOM      1  O   UNL     1       5.699   1.129  21.353  0.00  0.00    +0.000 OA
ATOM      2  C   UNL     1       4.739   1.793  20.992  0.00  0.00    +0.000 A 
ATOM      3  N   UNL     1       4.667   2.505  19.821  0.00  0.00    +0.000 N 
ATOM      4  C   UNL     1       3.448   3.123  19.763  0.00  0.00    +0.000 A 
ATOM      5  C   UNL     1       2.857   3.939  18.816  0.00  0.00    +0.000 A 
ATOM      6  C   UNL     1       1.539   4.341  19.067  0.00  0.00    +0.000 A 
ATOM      7  C   UNL     1       0.867   3.945  20.244  0.00  0.00    +0.000 A 
ATOM      8  C   UNL     1       1.499   3.134  21.189  0.00  0.00    +0.000 A 
ATOM      9  C   UNL     1       2.791   2.739  20.917  0.00  0.00    +0.000 A 
ATOM     10  O   UNL     1       3.558   1.917  21.730  0.00  0.00    +0.000 OA
ATOM     11  H   UNL     1       5.411   2.515  19.132  0.00  0.00    +0.000 HD
ENDROOT
BRANCH   5  12
ATOM     12  O   UNL     1       3.415   4.366  17.642  0.00  0.00    +0.000 OA
BRANCH  12  13
ATOM     13  S   UNL     1       4.527   5.562  17.627  0.00  0.00    +0.000 S 
ATOM     14  O   UNL     1       3.845   6.821  17.396  0.00  0.00    +0.000 OA
ATOM     15  O   UNL     1       5.416   5.396  18.763  0.00  0.00    +0.000 OA
BRANCH  13  16
ATOM     16  C   UNL     1       5.515   5.228  16.187  0.00  0.00    +0.000 A 
ATOM     17  C   UNL     1       6.880   5.541  16.189  0.00  0.00    +0.000 A 
ATOM     18  C   UNL     1       7.663   5.209  15.082  0.00  0.00    +0.000 A 
ATOM     19  C   UNL     1       7.084   4.570  13.986  0.00  0.00    +0.000 A 
ATOM     20  C   UNL     1       5.721   4.264  13.995  0.00  0.00    +0.000 A 
ATOM     21 CL   UNL     1       5.021   3.464  12.642  0.00  0.00    +0.000 Cl
ATOM     22  C   UNL     1       4.926   4.588  15.092  0.00  0.00    +0.000 A 
ENDBRANCH  13  16
ENDBRANCH  12  13
ENDBRANCH   5  12
TORSDOF 3
ENDMDL
MODEL 3
REMARK VINA RESULT:      -7.8      2.989      6.252
REMARK  Name = 
REMARK  3 active torsions:
REMARK  status: ('A' for Active; 'I' for Inactive)
REMARK    1  A    between atoms: C_5  and  O_6
REMARK    2  A    between atoms: O_6  and  S_7
REMARK    3  A    between atoms: S_7  and  C_10
REMARK                            x       y       z     vdW  Elec       q    Type
REMARK                         _______ _______ _______ _____ _____    ______ ____
ROOT
ATOM      1  O   UNL     1       4.893   1.480  20.292  0.00  0.00    +0.000 OA
ATOM      2  C   UNL     1       4.487   2.555  19.878  0.00  0.00    +0.000 A 
ATOM      3  N   UNL     1       4.765   3.081  18.642  0.00  0.00    +0.000 N 
ATOM      4  C   UNL     1       4.144   4.296  18.537  0.00  0.00    +0.000 A 
ATOM      5  C   UNL     1       4.082   5.230  17.520  0.00  0.00    +0.000 A 
ATOM      6  C   UNL     1       3.276   6.353  17.747  0.00  0.00    +0.000 A 
ATOM      7  C   UNL     1       2.586   6.523  18.967  0.00  0.00    +0.000 A 
ATOM      8  C   UNL     1       2.685   5.568  19.981  0.00  0.00    +0.000 A 
ATOM      9  C   UNL     1       3.472   4.464  19.734  0.00  0.00    +0.000 A 
ATOM     10  O   UNL     1       3.663   3.411  20.615  0.00  0.00    +0.000 OA
ATOM     11  H   UNL     1       5.319   2.596  17.945  0.00  0.00    +0.000 HD
ENDROOT
BRANCH   5  12
ATOM     12  O   UNL     1       4.698   5.154  16.301  0.00  0.00    +0.000 OA
BRANCH  12  13
ATOM     13  S   UNL     1       6.322   5.268  16.172  0.00  0.00    +0.000 S 
ATOM     14  O   UNL     1       6.705   6.649  16.399  0.00  0.00    +0.000 OA
ATOM     15  O   UNL     1       6.933   4.193  16.933  0.00  0.00    +0.000 OA
BRANCH  13  16
ATOM     16  C   UNL     1       6.657   4.902  14.464  0.00  0.00    +0.000 A 
ATOM     17  C   UNL     1       7.685   5.577  13.794  0.00  0.00    +0.000 A 
ATOM     18  C   UNL     1       7.989   5.232  12.477  0.00  0.00    +0.000 A 
ATOM     19  C   UNL     1       7.269   4.221  11.838  0.00  0.00    +0.000 A 
ATOM     20  C   UNL     1       6.245   3.557  12.516  0.00  0.00    +0.000 A 
ATOM     21 CL   UNL     1       5.375   2.303  11.722  0.00  0.00    +0.000 Cl
ATOM     22  C   UNL     1       5.931   3.889  13.832  0.00  0.00    +0.000 A 
ENDBRANCH  13  16
ENDBRANCH  12  13
ENDBRANCH   5  12
TORSDOF 3
ENDMDL
MODEL 4
REMARK VINA RESULT:      -7.7      2.406      3.425
REMARK  Name = 
REMARK  3 active torsions:
REMARK  status: ('A' for Active; 'I' for Inactive)
REMARK    1  A    between atoms: C_5  and  O_6
REMARK    2  A    between atoms: O_6  and  S_7
REMARK    3  A    between atoms: S_7  and  C_10
REMARK                            x       y       z     vdW  Elec       q    Type
REMARK                         _______ _______ _______ _____ _____    ______ ____
ROOT
ATOM      1  O   UNL     1       7.631   8.701  17.651  0.00  0.00    +0.000 OA
ATOM      2  C   UNL     1       7.141   7.644  17.282  0.00  0.00    +0.000 A 
ATOM      3  N   UNL     1       5.845   7.254  17.504  0.00  0.00    +0.000 N 
ATOM      4  C   UNL     1       5.663   6.016  16.952  0.00  0.00    +0.000 A 
ATOM      5  C   UNL     1       4.567   5.177  16.875  0.00  0.00    +0.000 A 
ATOM      6  C   UNL     1       4.735   3.987  16.155  0.00  0.00    +0.000 A 
ATOM      7  C   UNL     1       5.974   3.660  15.564  0.00  0.00    +0.000 A 
ATOM      8  C   UNL     1       7.068   4.522  15.675  0.00  0.00    +0.000 A 
ATOM      9  C   UNL     1       6.879   5.694  16.376  0.00  0.00    +0.000 A 
ATOM     10  O   UNL     1       7.844   6.672  16.564  0.00  0.00    +0.000 OA
ATOM     11  H   UNL     1       5.164   7.837  17.979  0.00  0.00    +0.000 HD
ENDROOT
BRANCH   5  12
ATOM     12  O   UNL     1       3.324   5.406  17.399  0.00  0.00    +0.000 OA
BRANCH  12  13
ATOM     13  S   UNL     1       3.100   5.516  19.013  0.00  0.00    +0.000 S 
ATOM     14  O   UNL     1       2.120   4.523  19.410  0.00  0.00    +0.000 OA
ATOM     15  O   UNL     1       4.396   5.583  19.665  0.00  0.00    +0.000 OA
BRANCH  13  16
ATOM     16  C   UNL     1       2.357   7.114  19.248  0.00  0.00    +0.000 A 
ATOM     17  C   UNL     1       2.266   8.008  18.174  0.00  0.00    +0.000 A 
ATOM     18  C   UNL     1       1.617   9.230  18.350  0.00  0.00    +0.000 A 
ATOM     19  C   UNL     1       1.062   9.552  19.589  0.00  0.00    +0.000 A 
ATOM     20  C   UNL     1       1.159   8.653  20.653  0.00  0.00    +0.000 A 
ATOM     21 CL   UNL     1       0.460   9.057  22.172  0.00  0.00    +0.000 Cl
ATOM     22  C   UNL     1       1.805   7.429  20.494  0.00  0.00    +0.000 A 
ENDBRANCH  13  16
ENDBRANCH  12  13
ENDBRANCH   5  12
TORSDOF 3
ENDMDL
MODEL 5
REMARK VINA RESULT:      -7.6      1.770      2.687
REMARK  Name = 
REMARK  3 active torsions:
REMARK  status: ('A' for Active; 'I' for Inactive)
REMARK    1  A    between atoms: C_5  and  O_6
REMARK    2  A    between atoms: O_6  and  S_7
REMARK    3  A    between atoms: S_7  and  C_10
REMARK                            x       y       z     vdW  Elec       q    Type
REMARK                         _______ _______ _______ _____ _____    ______ ____
ROOT
ATOM      1  O   UNL     1       7.953   5.676  20.514  0.00  0.00    +0.000 OA
ATOM      2  C   UNL     1       7.367   5.406  19.475  0.00  0.00    +0.000 A 
ATOM      3  N   UNL     1       6.312   4.536  19.367  0.00  0.00    +0.000 N 
ATOM      4  C   UNL     1       5.923   4.486  18.056  0.00  0.00    +0.000 A 
ATOM      5  C   UNL     1       4.921   3.793  17.403  0.00  0.00    +0.000 A 
ATOM      6  C   UNL     1       4.770   4.046  16.034  0.00  0.00    +0.000 A 
ATOM      7  C   UNL     1       5.622   4.948  15.361  0.00  0.00    +0.000 A 
ATOM      8  C   UNL     1       6.637   5.620  16.047  0.00  0.00    +0.000 A 
ATOM      9  C   UNL     1       6.760   5.366  17.396  0.00  0.00    +0.000 A 
ATOM     10  O   UNL     1       7.692   5.960  18.234  0.00  0.00    +0.000 OA
ATOM     11  H   UNL     1       5.905   4.057  20.163  0.00  0.00    +0.000 HD
ENDROOT
BRANCH   5  12
ATOM     12  O   UNL     1       4.038   2.910  17.964  0.00  0.00    +0.000 OA
BRANCH  12  13
ATOM     13  S   UNL     1       2.430   3.194  17.927  0.00  0.00    +0.000 S 
ATOM     14  O   UNL     1       2.027   3.375  16.546  0.00  0.00    +0.000 OA
ATOM     15  O   UNL     1       1.760   2.226  18.776  0.00  0.00    +0.000 OA
BRANCH  13  16
ATOM     16  C   UNL     1       2.240   4.764  18.741  0.00  0.00    +0.000 A 
ATOM     17  C   UNL     1       2.005   4.811  20.121  0.00  0.00    +0.000 A 
ATOM     18  C   UNL     1       1.929   6.048  20.763  0.00  0.00    +0.000 A 
ATOM     19  C   UNL     1       2.089   7.224  20.030  0.00  0.00    +0.000 A 
ATOM     20  C   UNL     1       2.322   7.164  18.655  0.00  0.00    +0.000 A 
ATOM     21 CL   UNL     1       2.530   8.622  17.765  0.00  0.00    +0.000 Cl
ATOM     22  C   UNL     1       2.401   5.937  17.999  0.00  0.00    +0.000 A 
ENDBRANCH  13  16
ENDBRANCH  12  13
ENDBRANCH   5  12
TORSDOF 3
ENDMDL
MODEL 6
REMARK VINA RESULT:      -7.5      3.053      3.972
REMARK  Name = 
REMARK  3 active torsions:
REMARK  status: ('A' for Active; 'I' for Inactive)
REMARK    1  A    between atoms: C_5  and  O_6
REMARK    2  A    between atoms: O_6  and  S_7
REMARK    3  A    between atoms: S_7  and  C_10
REMARK                            x       y       z     vdW  Elec       q    Type
REMARK                         _______ _______ _______ _____ _____    ______ ____
ROOT
ATOM      1  O   UNL     1       7.695   5.353  20.529  0.00  0.00    +0.000 OA
ATOM      2  C   UNL     1       7.207   5.167  19.424  0.00  0.00    +0.000 A 
ATOM      3  N   UNL     1       5.872   5.268  19.123  0.00  0.00    +0.000 N 
ATOM      4  C   UNL     1       5.703   4.987  17.795  0.00  0.00    +0.000 A 
ATOM      5  C   UNL     1       4.588   4.955  16.980  0.00  0.00    +0.000 A 
ATOM      6  C   UNL     1       4.808   4.689  15.622  0.00  0.00    +0.000 A 
ATOM      7  C   UNL     1       6.107   4.442  15.128  0.00  0.00    +0.000 A 
ATOM      8  C   UNL     1       7.212   4.464  15.983  0.00  0.00    +0.000 A 
ATOM      9  C   UNL     1       6.976   4.741  17.312  0.00  0.00    +0.000 A 
ATOM     10  O   UNL     1       7.953   4.827  18.292  0.00  0.00    +0.000 OA
ATOM     11  H   UNL     1       5.170   5.538  19.803  0.00  0.00    +0.000 HD
ENDROOT
BRANCH   5  12
ATOM     12  O   UNL     1       3.293   5.192  17.356  0.00  0.00    +0.000 OA
BRANCH  12  13
ATOM     13  S   UNL     1       2.214   3.972  17.468  0.00  0.00    +0.000 S 
ATOM     14  O   UNL     1       0.884   4.513  17.267  0.00  0.00    +0.000 OA
ATOM     15  O   UNL     1       2.687   2.849  16.678  0.00  0.00    +0.000 OA
BRANCH  13  16
ATOM     16  C   UNL     1       2.318   3.446  19.164  0.00  0.00    +0.000 A 
ATOM     17  C   UNL     1       1.238   3.660  20.029  0.00  0.00    +0.000 A 
ATOM     18  C   UNL     1       1.299   3.179  21.337  0.00  0.00    +0.000 A 
ATOM     19  C   UNL     1       2.432   2.491  21.774  0.00  0.00    +0.000 A 
ATOM     20  C   UNL     1       3.503   2.284  20.903  0.00  0.00    +0.000 A 
ATOM     21 CL   UNL     1       4.888   1.422  21.449  0.00  0.00    +0.000 Cl
ATOM     22  C   UNL     1       3.457   2.757  19.593  0.00  0.00    +0.000 A 
ENDBRANCH  13  16
ENDBRANCH  12  13
ENDBRANCH   5  12
TORSDOF 3
ENDMDL
MODEL 7
REMARK VINA RESULT:      -7.5      3.312      6.299
REMARK  Name = 
REMARK  3 active torsions:
REMARK  status: ('A' for Active; 'I' for Inactive)
REMARK    1  A    between atoms: C_5  and  O_6
REMARK    2  A    between atoms: O_6  and  S_7
REMARK    3  A    between atoms: S_7  and  C_10
REMARK                            x       y       z     vdW  Elec       q    Type
REMARK                         _______ _______ _______ _____ _____    ______ ____
ROOT
ATOM      1  O   UNL     1       2.513   8.902  17.460  0.00  0.00    +0.000 OA
ATOM      2  C   UNL     1       2.873   7.799  17.844  0.00  0.00    +0.000 A 
ATOM      3  N   UNL     1       3.650   6.927  17.124  0.00  0.00    +0.000 N 
ATOM      4  C   UNL     1       3.842   5.797  17.872  0.00  0.00    +0.000 A 
ATOM      5  C   UNL     1       4.543   4.629  17.638  0.00  0.00    +0.000 A 
ATOM      6  C   UNL     1       4.577   3.697  18.683  0.00  0.00    +0.000 A 
ATOM      7  C   UNL     1       3.903   3.939  19.899  0.00  0.00    +0.000 A 
ATOM      8  C   UNL     1       3.188   5.123  20.096  0.00  0.00    +0.000 A 
ATOM      9  C   UNL     1       3.179   6.033  19.062  0.00  0.00    +0.000 A 
ATOM     10  O   UNL     1       2.543   7.265  19.093  0.00  0.00    +0.000 OA
ATOM     11  H   UNL     1       4.021   7.145  16.206  0.00  0.00    +0.000 HD
ENDROOT
BRANCH   5  12
ATOM     12  O   UNL     1       5.239   4.305  16.504  0.00  0.00    +0.000 OA
BRANCH  12  13
ATOM     13  S   UNL     1       6.652   5.041  16.147  0.00  0.00    +0.000 S 
ATOM     14  O   UNL     1       6.496   6.466  16.364  0.00  0.00    +0.000 OA
ATOM     15  O   UNL     1       7.737   4.309  16.775  0.00  0.00    +0.000 OA
BRANCH  13  16
ATOM     16  C   UNL     1       6.849   4.792  14.398  0.00  0.00    +0.000 A 
ATOM     17  C   UNL     1       7.802   5.535  13.690  0.00  0.00    +0.000 A 
ATOM     18  C   UNL     1       8.001   5.282  12.332  0.00  0.00    +0.000 A 
ATOM     19  C   UNL     1       7.253   4.294  11.691  0.00  0.00    +0.000 A 
ATOM     20  C   UNL     1       6.304   3.561  12.407  0.00  0.00    +0.000 A 
ATOM     21 CL   UNL     1       5.397   2.337  11.608  0.00  0.00    +0.000 Cl
ATOM     22  C   UNL     1       6.095   3.801  13.763  0.00  0.00    +0.000 A 
ENDBRANCH  13  16
ENDBRANCH  12  13
ENDBRANCH   5  12
TORSDOF 3
ENDMDL
MODEL 8
REMARK VINA RESULT:      -7.5      2.084      2.993
REMARK  Name = 
REMARK  3 active torsions:
REMARK  status: ('A' for Active; 'I' for Inactive)
REMARK    1  A    between atoms: C_5  and  O_6
REMARK    2  A    between atoms: O_6  and  S_7
REMARK    3  A    between atoms: S_7  and  C_10
REMARK                            x       y       z     vdW  Elec       q    Type
REMARK                         _______ _______ _______ _____ _____    ______ ____
ROOT
ATOM      1  O   UNL     1       7.716   8.668  17.637  0.00  0.00    +0.000 OA
ATOM      2  C   UNL     1       7.209   7.624  17.253  0.00  0.00    +0.000 A 
ATOM      3  N   UNL     1       5.925   7.224  17.521  0.00  0.00    +0.000 N 
ATOM      4  C   UNL     1       5.717   6.006  16.933  0.00  0.00    +0.000 A 
ATOM      5  C   UNL     1       4.618   5.169  16.877  0.00  0.00    +0.000 A 
ATOM      6  C   UNL     1       4.752   4.007  16.107  0.00  0.00    +0.000 A 
ATOM      7  C   UNL     1       5.962   3.704  15.446  0.00  0.00    +0.000 A 
ATOM      8  C   UNL     1       7.060   4.563  15.537  0.00  0.00    +0.000 A 
ATOM      9  C   UNL     1       6.904   5.708  16.289  0.00  0.00    +0.000 A 
ATOM     10  O   UNL     1       7.877   6.680  16.467  0.00  0.00    +0.000 OA
ATOM     11  H   UNL     1       5.268   7.788  18.049  0.00  0.00    +0.000 HD
ENDROOT
BRANCH   5  12
ATOM     12  O   UNL     1       3.401   5.377  17.467  0.00  0.00    +0.000 OA
BRANCH  12  13
ATOM     13  S   UNL     1       3.226   5.274  19.087  0.00  0.00    +0.000 S 
ATOM     14  O   UNL     1       2.369   4.143  19.386  0.00  0.00    +0.000 OA
ATOM     15  O   UNL     1       4.529   5.405  19.713  0.00  0.00    +0.000 OA
BRANCH  13  16
ATOM     16  C   UNL     1       2.328   6.745  19.529  0.00  0.00    +0.000 A 
ATOM     17  C   UNL     1       1.705   6.834  20.780  0.00  0.00    +0.000 A 
ATOM     18  C   UNL     1       1.065   8.018  21.146  0.00  0.00    +0.000 A 
ATOM     19  C   UNL     1       1.051   9.103  20.268  0.00  0.00    +0.000 A 
ATOM     20  C   UNL     1       1.676   9.002  19.023  0.00  0.00    +0.000 A 
ATOM     21 CL   UNL     1       1.663  10.351  17.955  0.00  0.00    +0.000 Cl
ATOM     22  C   UNL     1       2.319   7.826  18.643  0.00  0.00    +0.000 A 
ENDBRANCH  13  16
ENDBRANCH  12  13
ENDBRANCH   5  12
TORSDOF 3
ENDMDL
MODEL 9
REMARK VINA RESULT:      -7.5      3.230      6.380
REMARK  Name = 
REMARK  3 active torsions:
REMARK  status: ('A' for Active; 'I' for Inactive)
REMARK    1  A    between atoms: C_5  and  O_6
REMARK    2  A    between atoms: O_6  and  S_7
REMARK    3  A    between atoms: S_7  and  C_10
REMARK                            x       y       z     vdW  Elec       q    Type
REMARK                         _______ _______ _______ _____ _____    ______ ____
ROOT
ATOM      1  O   UNL     1       2.151   8.188  18.932  0.00  0.00    +0.000 OA
ATOM      2  C   UNL     1       2.449   7.002  18.925  0.00  0.00    +0.000 A 
ATOM      3  N   UNL     1       3.165   6.374  17.937  0.00  0.00    +0.000 N 
ATOM      4  C   UNL     1       3.298   5.054  18.270  0.00  0.00    +0.000 A 
ATOM      5  C   UNL     1       3.925   3.991  17.648  0.00  0.00    +0.000 A 
ATOM      6  C   UNL     1       3.915   2.768  18.331  0.00  0.00    +0.000 A 
ATOM      7  C   UNL     1       3.271   2.635  19.580  0.00  0.00    +0.000 A 
ATOM      8  C   UNL     1       2.631   3.725  20.174  0.00  0.00    +0.000 A 
ATOM      9  C   UNL     1       2.663   4.923  19.492  0.00  0.00    +0.000 A 
ATOM     10  O   UNL     1       2.103   6.108  19.942  0.00  0.00    +0.000 OA
ATOM     11  H   UNL     1       3.537   6.860  17.129  0.00  0.00    +0.000 HD
ENDROOT
BRANCH   5  12
ATOM     12  O   UNL     1       4.587   4.019  16.450  0.00  0.00    +0.000 OA
BRANCH  12  13
ATOM     13  S   UNL     1       5.945   4.905  16.261  0.00  0.00    +0.000 S 
ATOM     14  O   UNL     1       5.607   6.306  16.429  0.00  0.00    +0.000 OA
ATOM     15  O   UNL     1       7.014   4.301  17.035  0.00  0.00    +0.000 OA
BRANCH  13  16
ATOM     16  C   UNL     1       6.390   4.673  14.555  0.00  0.00    +0.000 A 
ATOM     17  C   UNL     1       7.483   5.365  14.018  0.00  0.00    +0.000 A 
ATOM     18  C   UNL     1       7.870   5.121  12.700  0.00  0.00    +0.000 A 
ATOM     19  C   UNL     1       7.169   4.193  11.928  0.00  0.00    +0.000 A 
ATOM     20  C   UNL     1       6.081   3.509  12.475  0.00  0.00    +0.000 A 
ATOM     21 CL   UNL     1       5.235   2.358  11.518  0.00  0.00    +0.000 Cl
ATOM     22  C   UNL     1       5.683   3.741  13.790  0.00  0.00    +0.000 A 
ENDBRANCH  13  16
ENDBRANCH  12  13
ENDBRANCH   5  12
TORSDOF 3
ENDMDL
