MODEL 1
REMARK VINA RESULT:      -5.1      0.000      0.000
REMARK  Name = 
REMARK  17 active torsions:
REMARK  status: ('A' for Active; 'I' for Inactive)
REMARK    1  A    between atoms: C_1  and  S_2
REMARK    2  A    between atoms: S_2  and  O_5
REMARK    3  A    between atoms: O_5  and  C_6
REMARK    4  A    between atoms: C_6  and  C_7
REMARK    5  A    between atoms: C_7  and  N_8
REMARK    6  A    between atoms: N_8  and  C_9
REMARK    7  A    between atoms: C_9  and  C_10
REMARK    8  A    between atoms: C_10  and  O_11
REMARK    9  A    between atoms: C_10  and  C_12
REMARK   10  A    between atoms: C_12  and  O_13
REMARK   11  A    between atoms: C_12  and  C_14
REMARK   12  A    between atoms: C_14  and  N_15
REMARK   13  A    between atoms: N_15  and  C_16
REMARK   14  A    between atoms: C_16  and  C_17
REMARK   15  A    between atoms: C_17  and  O_18
REMARK   16  A    between atoms: O_18  and  S_19
REMARK   17  A    between atoms: S_19  and  C_20
REMARK                            x       y       z     vdW  Elec       q    Type
REMARK                         _______ _______ _______ _____ _____    ______ ____
ROOT
ATOM      1  C   UNL     1       3.605   2.302  18.559  0.00  0.00    +0.000 C 
ENDROOT
BRANCH   1   2
ATOM      2  O   UNL     1       4.133   2.755  19.819  0.00  0.00    +0.000 OA
ATOM      3  H   UNL     1       3.434   2.578  20.476  0.00  0.00    +0.000 HD
ENDBRANCH   1   2
BRANCH   1   4
ATOM      4  C   UNL     1       4.175   3.194  17.420  0.00  0.00    +0.000 C 
BRANCH   4   5
ATOM      5  N   UNL     1       4.763   4.423  17.976  0.00  0.00    +0.000 NA
ATOM      6  H   UNL     1       4.591   5.188  17.319  0.00  0.00    +0.000 HD
BRANCH   5   7
ATOM      7  C   UNL     1       6.196   4.297  18.264  0.00  0.00    +0.000 C 
BRANCH   7   8
ATOM      8  C   UNL     1       6.992   5.274  17.385  0.00  0.00    +0.000 C 
BRANCH   8   9
ATOM      9  O   UNL     1       7.485   4.653  16.200  0.00  0.00    +0.000 OA
BRANCH   9  11
ATOM     10  C   UNL     1       6.145   3.656  14.211  0.00  0.00    +0.000 C 
ATOM     11  S   UNL     1       6.815   5.190  14.812  0.00  0.00    +0.000 S 
ATOM     12  O   UNL     1       7.872   5.602  13.916  0.00  0.00    +0.000 OA
ATOM     13  O   UNL     1       5.712   6.071  15.140  0.00  0.00    +0.000 OA
ENDBRANCH   9  11
ENDBRANCH   8   9
ENDBRANCH   7   8
ENDBRANCH   5   7
ENDBRANCH   4   5
ENDBRANCH   1   4
BRANCH   1  14
ATOM     14  C   UNL     1       2.063   2.361  18.602  0.00  0.00    +0.000 C 
BRANCH  14  15
ATOM     15  O   UNL     1       1.638   3.333  17.630  0.00  0.00    +0.000 OA
ATOM     16  H   UNL     1       0.842   3.766  17.992  0.00  0.00    +0.000 HD
ENDBRANCH  14  15
BRANCH  14  17
ATOM     17  C   UNL     1       1.513   2.719  20.012  0.00  0.00    +0.000 C 
BRANCH  17  18
ATOM     18  N   UNL     1       1.023   4.111  20.036  0.00  0.00    +0.000 NA
ATOM     19  H   UNL     1       0.109   4.148  20.497  0.00  0.00    +0.000 HD
BRANCH  18  20
ATOM     20  C   UNL     1       1.935   5.015  20.754  0.00  0.00    +0.000 C 
BRANCH  20  21
ATOM     21  C   UNL     1       1.616   6.486  20.438  0.00  0.00    +0.000 C 
BRANCH  21  22
ATOM     22  O   UNL     1       2.741   7.113  19.833  0.00  0.00    +0.000 OA
BRANCH  22  23
ATOM     23  S   UNL     1       2.757   7.165  18.204  0.00  0.00    +0.000 S 
ATOM     24  C   UNL     1       1.780   8.634  18.002  0.00  0.00    +0.000 C 
ATOM     25  O   UNL     1       4.110   7.443  17.767  0.00  0.00    +0.000 OA
ATOM     26  O   UNL     1       2.006   6.035  17.697  0.00  0.00    +0.000 OA
ENDBRANCH  22  23
ENDBRANCH  21  22
ENDBRANCH  20  21
ENDBRANCH  18  20
ENDBRANCH  17  18
ENDBRANCH  14  17
ENDBRANCH   1  14
TORSDOF 15
ENDMDL
MODEL 2
REMARK VINA RESULT:      -4.9      5.104      6.760
REMARK  Name = 
REMARK  17 active torsions:
REMARK  status: ('A' for Active; 'I' for Inactive)
REMARK    1  A    between atoms: C_1  and  S_2
REMARK    2  A    between atoms: S_2  and  O_5
REMARK    3  A    between atoms: O_5  and  C_6
REMARK    4  A    between atoms: C_6  and  C_7
REMARK    5  A    between atoms: C_7  and  N_8
REMARK    6  A    between atoms: N_8  and  C_9
REMARK    7  A    between atoms: C_9  and  C_10
REMARK    8  A    between atoms: C_10  and  O_11
REMARK    9  A    between atoms: C_10  and  C_12
REMARK   10  A    between atoms: C_12  and  O_13
REMARK   11  A    between atoms: C_12  and  C_14
REMARK   12  A    between atoms: C_14  and  N_15
REMARK   13  A    between atoms: N_15  and  C_16
REMARK   14  A    between atoms: C_16  and  C_17
REMARK   15  A    between atoms: C_17  and  O_18
REMARK   16  A    between atoms: O_18  and  S_19
REMARK   17  A    between atoms: S_19  and  C_20
REMARK                            x       y       z     vdW  Elec       q    Type
REMARK                         _______ _______ _______ _____ _____    ______ ____
ROOT
ATOM      1  C   UNL     1       7.281   6.727  17.744  0.00  0.00    +0.000 C 
ENDROOT
BRANCH   1   2
ATOM      2  O   UNL     1       7.653   6.625  16.357  0.00  0.00    +0.000 OA
ATOM      3  H   UNL     1       7.684   7.542  16.026  0.00  0.00    +0.000 HD
ENDBRANCH   1   2
BRANCH   1   4
ATOM      4  C   UNL     1       8.277   7.676  18.468  0.00  0.00    +0.000 C 
BRANCH   4   5
ATOM      5  N   UNL     1       8.180   9.038  17.919  0.00  0.00    +0.000 NA
ATOM      6  H   UNL     1       8.443   9.006  16.932  0.00  0.00    +0.000 HD
BRANCH   5   7
ATOM      7  C   UNL     1       9.003  10.012  18.646  0.00  0.00    +0.000 C 
BRANCH   7   8
ATOM      8  C   UNL     1       8.836  11.405  18.019  0.00  0.00    +0.000 C 
BRANCH   8   9
ATOM      9  O   UNL     1      10.087  11.994  17.674  0.00  0.00    +0.000 OA
BRANCH   9  11
ATOM     10  C   UNL     1       8.879  13.727  19.185  0.00  0.00    +0.000 C 
ATOM     11  S   UNL     1      10.483  13.324  18.534  0.00  0.00    +0.000 S 
ATOM     12  O   UNL     1      10.874  14.371  17.616  0.00  0.00    +0.000 OA
ATOM     13  O   UNL     1      11.335  12.925  19.637  0.00  0.00    +0.000 OA
ENDBRANCH   9  11
ENDBRANCH   8   9
ENDBRANCH   7   8
ENDBRANCH   5   7
ENDBRANCH   4   5
ENDBRANCH   1   4
BRANCH   1  14
ATOM     14  C   UNL     1       7.285   5.319  18.377  0.00  0.00    +0.000 C 
BRANCH  14  15
ATOM     15  O   UNL     1       7.683   4.384  17.358  0.00  0.00    +0.000 OA
ATOM     16  H   UNL     1       7.348   3.509  17.630  0.00  0.00    +0.000 HD
ENDBRANCH  14  15
BRANCH  14  17
ATOM     17  C   UNL     1       5.906   4.924  18.976  0.00  0.00    +0.000 C 
BRANCH  17  18
ATOM     18  N   UNL     1       5.534   3.558  18.559  0.00  0.00    +0.000 NA
ATOM     19  H   UNL     1       5.325   2.989  19.384  0.00  0.00    +0.000 HD
BRANCH  18  20
ATOM     20  C   UNL     1       4.356   3.541  17.678  0.00  0.00    +0.000 C 
BRANCH  20  21
ATOM     21  C   UNL     1       3.055   3.615  18.495  0.00  0.00    +0.000 C 
BRANCH  21  22
ATOM     22  O   UNL     1       3.155   2.793  19.652  0.00  0.00    +0.000 OA
BRANCH  22  23
ATOM     23  S   UNL     1       2.101   3.099  20.856  0.00  0.00    +0.000 S 
ATOM     24  C   UNL     1       2.272   4.866  20.881  0.00  0.00    +0.000 C 
ATOM     25  O   UNL     1       0.767   2.768  20.394  0.00  0.00    +0.000 OA
ATOM     26  O   UNL     1       2.638   2.564  22.090  0.00  0.00    +0.000 OA
ENDBRANCH  22  23
ENDBRANCH  21  22
ENDBRANCH  20  21
ENDBRANCH  18  20
ENDBRANCH  17  18
ENDBRANCH  14  17
ENDBRANCH   1  14
TORSDOF 15
ENDMDL
MODEL 3
REMARK VINA RESULT:      -4.9      2.581      6.504
REMARK  Name = 
REMARK  17 active torsions:
REMARK  status: ('A' for Active; 'I' for Inactive)
REMARK    1  A    between atoms: C_1  and  S_2
REMARK    2  A    between atoms: S_2  and  O_5
REMARK    3  A    between atoms: O_5  and  C_6
REMARK    4  A    between atoms: C_6  and  C_7
REMARK    5  A    between atoms: C_7  and  N_8
REMARK    6  A    between atoms: N_8  and  C_9
REMARK    7  A    between atoms: C_9  and  C_10
REMARK    8  A    between atoms: C_10  and  O_11
REMARK    9  A    between atoms: C_10  and  C_12
REMARK   10  A    between atoms: C_12  and  O_13
REMARK   11  A    between atoms: C_12  and  C_14
REMARK   12  A    between atoms: C_14  and  N_15
REMARK   13  A    between atoms: N_15  and  C_16
REMARK   14  A    between atoms: C_16  and  C_17
REMARK   15  A    between atoms: C_17  and  O_18
REMARK   16  A    between atoms: O_18  and  S_19
REMARK   17  A    between atoms: S_19  and  C_20
REMARK                            x       y       z     vdW  Elec       q    Type
REMARK                         _______ _______ _______ _____ _____    ______ ____
ROOT
ATOM      1  C   UNL     1       1.485   3.760  19.985  0.00  0.00    +0.000 C 
ENDROOT
BRANCH   1   2
ATOM      2  O   UNL     1       0.324   2.914  20.065  0.00  0.00    +0.000 OA
ATOM      3  H   UNL     1      -0.015   2.846  19.153  0.00  0.00    +0.000 HD
ENDBRANCH   1   2
BRANCH   1   4
ATOM      4  C   UNL     1       1.086   5.209  20.384  0.00  0.00    +0.000 C 
BRANCH   4   5
ATOM      5  N   UNL     1       2.285   6.015  20.659  0.00  0.00    +0.000 NA
ATOM      6  H   UNL     1       2.258   6.310  21.638  0.00  0.00    +0.000 HD
BRANCH   5   7
ATOM      7  C   UNL     1       2.415   7.177  19.770  0.00  0.00    +0.000 C 
BRANCH   7   8
ATOM      8  C   UNL     1       1.380   8.244  20.155  0.00  0.00    +0.000 C 
BRANCH   8   9
ATOM      9  O   UNL     1       1.603   8.764  21.464  0.00  0.00    +0.000 OA
BRANCH   9  11
ATOM     10  C   UNL     1      -0.096  10.726  21.366  0.00  0.00    +0.000 C 
ATOM     11  S   UNL     1       0.256   9.230  22.259  0.00  0.00    +0.000 S 
ATOM     12  O   UNL     1       0.616   9.586  23.613  0.00  0.00    +0.000 OA
ATOM     13  O   UNL     1      -0.799   8.275  21.980  0.00  0.00    +0.000 OA
ENDBRANCH   9  11
ENDBRANCH   8   9
ENDBRANCH   7   8
ENDBRANCH   5   7
ENDBRANCH   4   5
ENDBRANCH   1   4
BRANCH   1  14
ATOM     14  C   UNL     1       2.055   3.710  18.551  0.00  0.00    +0.000 C 
BRANCH  14  15
ATOM     15  O   UNL     1       0.974   3.992  17.643  0.00  0.00    +0.000 OA
ATOM     16  H   UNL     1       0.216   3.449  17.928  0.00  0.00    +0.000 HD
ENDBRANCH  14  15
BRANCH  14  17
ATOM     17  C   UNL     1       2.713   2.342  18.212  0.00  0.00    +0.000 C 
BRANCH  17  18
ATOM     18  N   UNL     1       4.157   2.375  18.514  0.00  0.00    +0.000 NA
ATOM     19  H   UNL     1       4.671   1.851  17.801  0.00  0.00    +0.000 HD
BRANCH  18  20
ATOM     20  C   UNL     1       4.691   3.745  18.553  0.00  0.00    +0.000 C 
BRANCH  20  21
ATOM     21  C   UNL     1       5.152   4.198  17.157  0.00  0.00    +0.000 C 
BRANCH  21  22
ATOM     22  O   UNL     1       5.749   5.487  17.232  0.00  0.00    +0.000 OA
BRANCH  22  23
ATOM     23  S   UNL     1       7.358   5.561  16.988  0.00  0.00    +0.000 S 
ATOM     24  C   UNL     1       7.663   7.079  17.857  0.00  0.00    +0.000 C 
ATOM     25  O   UNL     1       7.984   4.475  17.716  0.00  0.00    +0.000 OA
ATOM     26  O   UNL     1       7.603   5.777  15.577  0.00  0.00    +0.000 OA
ENDBRANCH  22  23
ENDBRANCH  21  22
ENDBRANCH  20  21
ENDBRANCH  18  20
ENDBRANCH  17  18
ENDBRANCH  14  17
ENDBRANCH   1  14
TORSDOF 15
ENDMDL
MODEL 4
REMARK VINA RESULT:      -4.9      2.605      6.793
REMARK  Name = 
REMARK  17 active torsions:
REMARK  status: ('A' for Active; 'I' for Inactive)
REMARK    1  A    between atoms: C_1  and  S_2
REMARK    2  A    between atoms: S_2  and  O_5
REMARK    3  A    between atoms: O_5  and  C_6
REMARK    4  A    between atoms: C_6  and  C_7
REMARK    5  A    between atoms: C_7  and  N_8
REMARK    6  A    between atoms: N_8  and  C_9
REMARK    7  A    between atoms: C_9  and  C_10
REMARK    8  A    between atoms: C_10  and  O_11
REMARK    9  A    between atoms: C_10  and  C_12
REMARK   10  A    between atoms: C_12  and  O_13
REMARK   11  A    between atoms: C_12  and  C_14
REMARK   12  A    between atoms: C_14  and  N_15
REMARK   13  A    between atoms: N_15  and  C_16
REMARK   14  A    between atoms: C_16  and  C_17
REMARK   15  A    between atoms: C_17  and  O_18
REMARK   16  A    between atoms: O_18  and  S_19
REMARK   17  A    between atoms: S_19  and  C_20
REMARK                            x       y       z     vdW  Elec       q    Type
REMARK                         _______ _______ _______ _____ _____    ______ ____
ROOT
ATOM      1  C   UNL     1       6.090   5.178  18.984  0.00  0.00    +0.000 C 
ENDROOT
BRANCH   1   2
ATOM      2  O   UNL     1       5.762   3.777  19.032  0.00  0.00    +0.000 OA
ATOM      3  H   UNL     1       6.238   3.371  18.284  0.00  0.00    +0.000 HD
ENDBRANCH   1   2
BRANCH   1   4
ATOM      4  C   UNL     1       4.878   5.963  18.406  0.00  0.00    +0.000 C 
BRANCH   4   5
ATOM      5  N   UNL     1       3.837   5.032  17.942  0.00  0.00    +0.000 NA
ATOM      6  H   UNL     1       3.964   4.884  16.938  0.00  0.00    +0.000 HD
BRANCH   5   7
ATOM      7  C   UNL     1       2.476   5.499  18.231  0.00  0.00    +0.000 C 
BRANCH   7   8
ATOM      8  C   UNL     1       1.985   4.888  19.552  0.00  0.00    +0.000 C 
BRANCH   8   9
ATOM      9  O   UNL     1       3.061   4.407  20.356  0.00  0.00    +0.000 OA
BRANCH   9  11
ATOM     10  C   UNL     1       1.720   2.284  19.690  0.00  0.00    +0.000 C 
ATOM     11  S   UNL     1       2.888   2.875  20.894  0.00  0.00    +0.000 S 
ATOM     12  O   UNL     1       2.231   2.908  22.182  0.00  0.00    +0.000 OA
ATOM     13  O   UNL     1       4.140   2.172  20.698  0.00  0.00    +0.000 OA
ENDBRANCH   9  11
ENDBRANCH   8   9
ENDBRANCH   7   8
ENDBRANCH   5   7
ENDBRANCH   4   5
ENDBRANCH   1   4
BRANCH   1  14
ATOM     14  C   UNL     1       7.352   5.376  18.118  0.00  0.00    +0.000 C 
BRANCH  14  15
ATOM     15  O   UNL     1       7.429   6.772  17.774  0.00  0.00    +0.000 OA
ATOM     16  H   UNL     1       6.592   7.000  17.329  0.00  0.00    +0.000 HD
ENDBRANCH  14  15
BRANCH  14  17
ATOM     17  C   UNL     1       7.348   4.495  16.837  0.00  0.00    +0.000 C 
BRANCH  17  18
ATOM     18  N   UNL     1       7.391   5.341  15.628  0.00  0.00    +0.000 NA
ATOM     19  H   UNL     1       8.109   4.993  14.988  0.00  0.00    +0.000 HD
BRANCH  18  20
ATOM     20  C   UNL     1       6.106   5.359  14.911  0.00  0.00    +0.000 C 
BRANCH  20  21
ATOM     21  C   UNL     1       5.532   3.939  14.772  0.00  0.00    +0.000 C 
BRANCH  21  22
ATOM     22  O   UNL     1       6.323   3.176  13.867  0.00  0.00    +0.000 OA
BRANCH  22  23
ATOM     23  S   UNL     1       6.077   3.445  12.279  0.00  0.00    +0.000 S 
ATOM     24  C   UNL     1       6.322   1.780  11.713  0.00  0.00    +0.000 C 
ATOM     25  O   UNL     1       4.685   3.802  12.084  0.00  0.00    +0.000 OA
ATOM     26  O   UNL     1       7.156   4.270  11.775  0.00  0.00    +0.000 OA
ENDBRANCH  22  23
ENDBRANCH  21  22
ENDBRANCH  20  21
ENDBRANCH  18  20
ENDBRANCH  17  18
ENDBRANCH  14  17
ENDBRANCH   1  14
TORSDOF 15
ENDMDL
MODEL 5
REMARK VINA RESULT:      -4.9      4.748      6.489
REMARK  Name = 
REMARK  17 active torsions:
REMARK  status: ('A' for Active; 'I' for Inactive)
REMARK    1  A    between atoms: C_1  and  S_2
REMARK    2  A    between atoms: S_2  and  O_5
REMARK    3  A    between atoms: O_5  and  C_6
REMARK    4  A    between atoms: C_6  and  C_7
REMARK    5  A    between atoms: C_7  and  N_8
REMARK    6  A    between atoms: N_8  and  C_9
REMARK    7  A    between atoms: C_9  and  C_10
REMARK    8  A    between atoms: C_10  and  O_11
REMARK    9  A    between atoms: C_10  and  C_12
REMARK   10  A    between atoms: C_12  and  O_13
REMARK   11  A    between atoms: C_12  and  C_14
REMARK   12  A    between atoms: C_14  and  N_15
REMARK   13  A    between atoms: N_15  and  C_16
REMARK   14  A    between atoms: C_16  and  C_17
REMARK   15  A    between atoms: C_17  and  O_18
REMARK   16  A    between atoms: O_18  and  S_19
REMARK   17  A    between atoms: S_19  and  C_20
REMARK                            x       y       z     vdW  Elec       q    Type
REMARK                         _______ _______ _______ _____ _____    ______ ____
ROOT
ATOM      1  C   UNL     1       7.759   5.737  18.559  0.00  0.00    +0.000 C 
ENDROOT
BRANCH   1   2
ATOM      2  O   UNL     1       7.143   5.589  19.851  0.00  0.00    +0.000 OA
ATOM      3  H   UNL     1       6.182   5.569  19.684  0.00  0.00    +0.000 HD
ENDBRANCH   1   2
BRANCH   1   4
ATOM      4  C   UNL     1       7.639   7.220  18.108  0.00  0.00    +0.000 C 
BRANCH   4   5
ATOM      5  N   UNL     1       8.619   8.055  18.822  0.00  0.00    +0.000 NA
ATOM      6  H   UNL     1       8.471   7.934  19.827  0.00  0.00    +0.000 HD
BRANCH   5   7
ATOM      7  C   UNL     1       8.545   9.474  18.452  0.00  0.00    +0.000 C 
BRANCH   7   8
ATOM      8  C   UNL     1       9.459  10.299  19.371  0.00  0.00    +0.000 C 
BRANCH   8   9
ATOM      9  O   UNL     1       9.214  11.699  19.258  0.00  0.00    +0.000 OA
BRANCH   9  11
ATOM     10  C   UNL     1      11.770  11.802  19.710  0.00  0.00    +0.000 C 
ATOM     11  S   UNL     1      10.252  12.649  20.086  0.00  0.00    +0.000 S 
ATOM     12  O   UNL     1       9.990  12.499  21.500  0.00  0.00    +0.000 OA
ATOM     13  O   UNL     1      10.289  13.953  19.455  0.00  0.00    +0.000 OA
ENDBRANCH   9  11
ENDBRANCH   8   9
ENDBRANCH   7   8
ENDBRANCH   5   7
ENDBRANCH   4   5
ENDBRANCH   1   4
BRANCH   1  14
ATOM     14  C   UNL     1       7.071   4.788  17.555  0.00  0.00    +0.000 C 
BRANCH  14  15
ATOM     15  O   UNL     1       8.099   4.004  16.922  0.00  0.00    +0.000 OA
ATOM     16  H   UNL     1       7.722   3.664  16.089  0.00  0.00    +0.000 HD
ENDBRANCH  14  15
BRANCH  14  17
ATOM     17  C   UNL     1       6.226   5.545  16.491  0.00  0.00    +0.000 C 
BRANCH  17  18
ATOM     18  N   UNL     1       4.789   5.263  16.677  0.00  0.00    +0.000 NA
ATOM     19  H   UNL     1       4.257   5.650  15.894  0.00  0.00    +0.000 HD
BRANCH  18  20
ATOM     20  C   UNL     1       4.506   3.822  16.758  0.00  0.00    +0.000 C 
BRANCH  20  21
ATOM     21  C   UNL     1       3.058   3.568  17.212  0.00  0.00    +0.000 C 
BRANCH  21  22
ATOM     22  O   UNL     1       2.630   4.606  18.086  0.00  0.00    +0.000 OA
BRANCH  22  23
ATOM     23  S   UNL     1       3.217   4.566  19.606  0.00  0.00    +0.000 S 
ATOM     24  C   UNL     1       1.775   5.188  20.436  0.00  0.00    +0.000 C 
ATOM     25  O   UNL     1       3.411   3.182  19.988  0.00  0.00    +0.000 OA
ATOM     26  O   UNL     1       4.277   5.547  19.720  0.00  0.00    +0.000 OA
ENDBRANCH  22  23
ENDBRANCH  21  22
ENDBRANCH  20  21
ENDBRANCH  18  20
ENDBRANCH  17  18
ENDBRANCH  14  17
ENDBRANCH   1  14
TORSDOF 15
ENDMDL
MODEL 6
REMARK VINA RESULT:      -4.9      4.296      6.906
REMARK  Name = 
REMARK  17 active torsions:
REMARK  status: ('A' for Active; 'I' for Inactive)
REMARK    1  A    between atoms: C_1  and  S_2
REMARK    2  A    between atoms: S_2  and  O_5
REMARK    3  A    between atoms: O_5  and  C_6
REMARK    4  A    between atoms: C_6  and  C_7
REMARK    5  A    between atoms: C_7  and  N_8
REMARK    6  A    between atoms: N_8  and  C_9
REMARK    7  A    between atoms: C_9  and  C_10
REMARK    8  A    between atoms: C_10  and  O_11
REMARK    9  A    between atoms: C_10  and  C_12
REMARK   10  A    between atoms: C_12  and  O_13
REMARK   11  A    between atoms: C_12  and  C_14
REMARK   12  A    between atoms: C_14  and  N_15
REMARK   13  A    between atoms: N_15  and  C_16
REMARK   14  A    between atoms: C_16  and  C_17
REMARK   15  A    between atoms: C_17  and  O_18
REMARK   16  A    between atoms: O_18  and  S_19
REMARK   17  A    between atoms: S_19  and  C_20
REMARK                            x       y       z     vdW  Elec       q    Type
REMARK                         _______ _______ _______ _____ _____    ______ ____
ROOT
ATOM      1  C   UNL     1       5.230   5.772  17.961  0.00  0.00    +0.000 C 
ENDROOT
BRANCH   1   2
ATOM      2  O   UNL     1       5.345   5.552  19.379  0.00  0.00    +0.000 OA
ATOM      3  H   UNL     1       6.121   4.971  19.492  0.00  0.00    +0.000 HD
ENDBRANCH   1   2
BRANCH   1   4
ATOM      4  C   UNL     1       3.948   5.062  17.440  0.00  0.00    +0.000 C 
BRANCH   4   5
ATOM      5  N   UNL     1       4.248   3.671  17.063  0.00  0.00    +0.000 NA
ATOM      6  H   UNL     1       4.139   3.582  16.050  0.00  0.00    +0.000 HD
BRANCH   5   7
ATOM      7  C   UNL     1       3.411   2.691  17.765  0.00  0.00    +0.000 C 
BRANCH   7   8
ATOM      8  C   UNL     1       3.924   2.501  19.201  0.00  0.00    +0.000 C 
BRANCH   8   9
ATOM      9  O   UNL     1       2.874   2.173  20.108  0.00  0.00    +0.000 OA
BRANCH   9  11
ATOM     10  C   UNL     1       0.673   3.551  20.127  0.00  0.00    +0.000 C 
ATOM     11  S   UNL     1       2.254   3.439  20.932  0.00  0.00    +0.000 S 
ATOM     12  O   UNL     1       3.015   4.624  20.601  0.00  0.00    +0.000 OA
ATOM     13  O   UNL     1       2.038   3.035  22.307  0.00  0.00    +0.000 OA
ENDBRANCH   9  11
ENDBRANCH   8   9
ENDBRANCH   7   8
ENDBRANCH   5   7
ENDBRANCH   4   5
ENDBRANCH   1   4
BRANCH   1  14
ATOM     14  C   UNL     1       6.495   5.233  17.258  0.00  0.00    +0.000 C 
BRANCH  14  15
ATOM     15  O   UNL     1       7.093   4.254  18.126  0.00  0.00    +0.000 OA
ATOM     16  H   UNL     1       6.403   3.978  18.759  0.00  0.00    +0.000 HD
ENDBRANCH  14  15
BRANCH  14  17
ATOM     17  C   UNL     1       7.515   6.355  16.912  0.00  0.00    +0.000 C 
BRANCH  17  18
ATOM     18  N   UNL     1       7.702   7.256  18.065  0.00  0.00    +0.000 NA
ATOM     19  H   UNL     1       8.578   7.029  18.543  0.00  0.00    +0.000 HD
BRANCH  18  20
ATOM     20  C   UNL     1       7.749   8.672  17.669  0.00  0.00    +0.000 C 
BRANCH  20  21
ATOM     21  C   UNL     1       8.717   9.465  18.564  0.00  0.00    +0.000 C 
BRANCH  21  22
ATOM     22  O   UNL     1       8.907  10.774  18.041  0.00  0.00    +0.000 OA
BRANCH  22  23
ATOM     23  S   UNL     1       9.842  11.780  18.918  0.00  0.00    +0.000 S 
ATOM     24  C   UNL     1      10.027  13.059  17.699  0.00  0.00    +0.000 C 
ATOM     25  O   UNL     1       9.054  12.298  20.018  0.00  0.00    +0.000 OA
ATOM     26  O   UNL     1      11.130  11.151  19.129  0.00  0.00    +0.000 OA
ENDBRANCH  22  23
ENDBRANCH  21  22
ENDBRANCH  20  21
ENDBRANCH  18  20
ENDBRANCH  17  18
ENDBRANCH  14  17
ENDBRANCH   1  14
TORSDOF 15
ENDMDL
MODEL 7
REMARK VINA RESULT:      -4.8      2.589      6.933
REMARK  Name = 
REMARK  17 active torsions:
REMARK  status: ('A' for Active; 'I' for Inactive)
REMARK    1  A    between atoms: C_1  and  S_2
REMARK    2  A    between atoms: S_2  and  O_5
REMARK    3  A    between atoms: O_5  and  C_6
REMARK    4  A    between atoms: C_6  and  C_7
REMARK    5  A    between atoms: C_7  and  N_8
REMARK    6  A    between atoms: N_8  and  C_9
REMARK    7  A    between atoms: C_9  and  C_10
REMARK    8  A    between atoms: C_10  and  O_11
REMARK    9  A    between atoms: C_10  and  C_12
REMARK   10  A    between atoms: C_12  and  O_13
REMARK   11  A    between atoms: C_12  and  C_14
REMARK   12  A    between atoms: C_14  and  N_15
REMARK   13  A    between atoms: N_15  and  C_16
REMARK   14  A    between atoms: C_16  and  C_17
REMARK   15  A    between atoms: C_17  and  O_18
REMARK   16  A    between atoms: O_18  and  S_19
REMARK   17  A    between atoms: S_19  and  C_20
REMARK                            x       y       z     vdW  Elec       q    Type
REMARK                         _______ _______ _______ _____ _____    ______ ____
ROOT
ATOM      1  C   UNL     1       4.789   4.647  18.477  0.00  0.00    +0.000 C 
ENDROOT
BRANCH   1   2
ATOM      2  O   UNL     1       5.263   3.393  19.002  0.00  0.00    +0.000 OA
ATOM      3  H   UNL     1       6.226   3.389  18.841  0.00  0.00    +0.000 HD
ENDBRANCH   1   2
BRANCH   1   4
ATOM      4  C   UNL     1       3.813   4.367  17.299  0.00  0.00    +0.000 C 
BRANCH   4   5
ATOM      5  N   UNL     1       2.546   3.814  17.803  0.00  0.00    +0.000 NA
ATOM      6  H   UNL     1       2.435   4.101  18.778  0.00  0.00    +0.000 HD
BRANCH   5   7
ATOM      7  C   UNL     1       2.465   2.353  17.679  0.00  0.00    +0.000 C 
BRANCH   7   8
ATOM      8  C   UNL     1       1.788   1.762  18.925  0.00  0.00    +0.000 C 
BRANCH   8   9
ATOM      9  O   UNL     1       1.306   2.773  19.808  0.00  0.00    +0.000 OA
BRANCH   9  11
ATOM     10  C   UNL     1       2.283   4.715  21.229  0.00  0.00    +0.000 C 
ATOM     11  S   UNL     1       2.156   2.942  21.191  0.00  0.00    +0.000 S 
ATOM     12  O   UNL     1       3.481   2.398  20.990  0.00  0.00    +0.000 OA
ATOM     13  O   UNL     1       1.323   2.521  22.300  0.00  0.00    +0.000 OA
ENDBRANCH   9  11
ENDBRANCH   8   9
ENDBRANCH   7   8
ENDBRANCH   5   7
ENDBRANCH   4   5
ENDBRANCH   1   4
BRANCH   1  14
ATOM     14  C   UNL     1       5.994   5.496  18.018  0.00  0.00    +0.000 C 
BRANCH  14  15
ATOM     15  O   UNL     1       5.478   6.703  17.430  0.00  0.00    +0.000 OA
ATOM     16  H   UNL     1       5.117   7.241  18.159  0.00  0.00    +0.000 HD
ENDBRANCH  14  15
BRANCH  14  17
ATOM     17  C   UNL     1       6.911   4.744  17.011  0.00  0.00    +0.000 C 
BRANCH  17  18
ATOM     18  N   UNL     1       7.449   5.681  16.006  0.00  0.00    +0.000 NA
ATOM     19  H   UNL     1       8.441   5.853  16.189  0.00  0.00    +0.000 HD
BRANCH  18  20
ATOM     20  C   UNL     1       7.318   5.166  14.633  0.00  0.00    +0.000 C 
BRANCH  20  21
ATOM     21  C   UNL     1       5.983   4.426  14.446  0.00  0.00    +0.000 C 
BRANCH  21  22
ATOM     22  O   UNL     1       6.185   3.234  13.695  0.00  0.00    +0.000 OA
BRANCH  22  23
ATOM     23  S   UNL     1       5.921   3.332  12.090  0.00  0.00    +0.000 S 
ATOM     24  C   UNL     1       6.265   1.636  11.688  0.00  0.00    +0.000 C 
ATOM     25  O   UNL     1       4.511   3.584  11.870  0.00  0.00    +0.000 OA
ATOM     26  O   UNL     1       6.949   4.166  11.501  0.00  0.00    +0.000 OA
ENDBRANCH  22  23
ENDBRANCH  21  22
ENDBRANCH  20  21
ENDBRANCH  18  20
ENDBRANCH  17  18
ENDBRANCH  14  17
ENDBRANCH   1  14
TORSDOF 15
ENDMDL
MODEL 8
REMARK VINA RESULT:      -4.8      2.537      3.655
REMARK  Name = 
REMARK  17 active torsions:
REMARK  status: ('A' for Active; 'I' for Inactive)
REMARK    1  A    between atoms: C_1  and  S_2
REMARK    2  A    between atoms: S_2  and  O_5
REMARK    3  A    between atoms: O_5  and  C_6
REMARK    4  A    between atoms: C_6  and  C_7
REMARK    5  A    between atoms: C_7  and  N_8
REMARK    6  A    between atoms: N_8  and  C_9
REMARK    7  A    between atoms: C_9  and  C_10
REMARK    8  A    between atoms: C_10  and  O_11
REMARK    9  A    between atoms: C_10  and  C_12
REMARK   10  A    between atoms: C_12  and  O_13
REMARK   11  A    between atoms: C_12  and  C_14
REMARK   12  A    between atoms: C_14  and  N_15
REMARK   13  A    between atoms: N_15  and  C_16
REMARK   14  A    between atoms: C_16  and  C_17
REMARK   15  A    between atoms: C_17  and  O_18
REMARK   16  A    between atoms: O_18  and  S_19
REMARK   17  A    between atoms: S_19  and  C_20
REMARK                            x       y       z     vdW  Elec       q    Type
REMARK                         _______ _______ _______ _____ _____    ______ ____
ROOT
ATOM      1  C   UNL     1       1.492   4.261  19.312  0.00  0.00    +0.000 C 
ENDROOT
BRANCH   1   2
ATOM      2  O   UNL     1       0.678   3.616  20.308  0.00  0.00    +0.000 OA
ATOM      3  H   UNL     1       0.495   4.298  20.981  0.00  0.00    +0.000 HD
ENDBRANCH   1   2
BRANCH   1   4
ATOM      4  C   UNL     1       2.170   3.175  18.430  0.00  0.00    +0.000 C 
BRANCH   4   5
ATOM      5  N   UNL     1       2.814   3.793  17.260  0.00  0.00    +0.000 NA
ATOM      6  H   UNL     1       2.241   3.595  16.436  0.00  0.00    +0.000 HD
BRANCH   5   7
ATOM      7  C   UNL     1       4.195   3.339  17.055  0.00  0.00    +0.000 C 
BRANCH   7   8
ATOM      8  C   UNL     1       5.170   4.316  17.729  0.00  0.00    +0.000 C 
BRANCH   8   9
ATOM      9  O   UNL     1       5.339   5.514  16.975  0.00  0.00    +0.000 OA
BRANCH   9  11
ATOM     10  C   UNL     1       7.645   5.054  18.076  0.00  0.00    +0.000 C 
ATOM     11  S   UNL     1       6.888   5.981  16.761  0.00  0.00    +0.000 S 
ATOM     12  O   UNL     1       6.997   7.387  17.078  0.00  0.00    +0.000 OA
ATOM     13  O   UNL     1       7.361   5.449  15.498  0.00  0.00    +0.000 OA
ENDBRANCH   9  11
ENDBRANCH   8   9
ENDBRANCH   7   8
ENDBRANCH   5   7
ENDBRANCH   4   5
ENDBRANCH   1   4
BRANCH   1  14
ATOM     14  C   UNL     1       2.541   5.152  20.011  0.00  0.00    +0.000 C 
BRANCH  14  15
ATOM     15  O   UNL     1       2.383   4.980  21.431  0.00  0.00    +0.000 OA
ATOM     16  H   UNL     1       1.902   5.763  21.759  0.00  0.00    +0.000 HD
ENDBRANCH  14  15
BRANCH  14  17
ATOM     17  C   UNL     1       2.412   6.653  19.623  0.00  0.00    +0.000 C 
BRANCH  17  18
ATOM     18  N   UNL     1       2.737   6.846  18.196  0.00  0.00    +0.000 NA
ATOM     19  H   UNL     1       2.008   6.424  17.616  0.00  0.00    +0.000 HD
BRANCH  18  20
ATOM     20  C   UNL     1       2.847   8.268  17.834  0.00  0.00    +0.000 C 
BRANCH  20  21
ATOM     21  C   UNL     1       1.470   8.954  17.867  0.00  0.00    +0.000 C 
BRANCH  21  22
ATOM     22  O   UNL     1       1.614  10.324  18.227  0.00  0.00    +0.000 OA
BRANCH  22  23
ATOM     23  S   UNL     1       0.758  10.831  19.517  0.00  0.00    +0.000 S 
ATOM     24  C   UNL     1      -0.645  11.471  18.637  0.00  0.00    +0.000 C 
ATOM     25  O   UNL     1       0.339   9.670  20.277  0.00  0.00    +0.000 OA
ATOM     26  O   UNL     1       1.462  11.936  20.135  0.00  0.00    +0.000 OA
ENDBRANCH  22  23
ENDBRANCH  21  22
ENDBRANCH  20  21
ENDBRANCH  18  20
ENDBRANCH  17  18
ENDBRANCH  14  17
ENDBRANCH   1  14
TORSDOF 15
ENDMDL
MODEL 9
REMARK VINA RESULT:      -4.8      3.540      4.722
REMARK  Name = 
REMARK  17 active torsions:
REMARK  status: ('A' for Active; 'I' for Inactive)
REMARK    1  A    between atoms: C_1  and  S_2
REMARK    2  A    between atoms: S_2  and  O_5
REMARK    3  A    between atoms: O_5  and  C_6
REMARK    4  A    between atoms: C_6  and  C_7
REMARK    5  A    between atoms: C_7  and  N_8
REMARK    6  A    between atoms: N_8  and  C_9
REMARK    7  A    between atoms: C_9  and  C_10
REMARK    8  A    between atoms: C_10  and  O_11
REMARK    9  A    between atoms: C_10  and  C_12
REMARK   10  A    between atoms: C_12  and  O_13
REMARK   11  A    between atoms: C_12  and  C_14
REMARK   12  A    between atoms: C_14  and  N_15
REMARK   13  A    between atoms: N_15  and  C_16
REMARK   14  A    between atoms: C_16  and  C_17
REMARK   15  A    between atoms: C_17  and  O_18
REMARK   16  A    between atoms: O_18  and  S_19
REMARK   17  A    between atoms: S_19  and  C_20
REMARK                            x       y       z     vdW  Elec       q    Type
REMARK                         _______ _______ _______ _____ _____    ______ ____
ROOT
ATOM      1  C   UNL     1       2.632   5.934  19.174  0.00  0.00    +0.000 C 
ENDROOT
BRANCH   1   2
ATOM      2  O   UNL     1       3.888   5.890  19.875  0.00  0.00    +0.000 OA
ATOM      3  H   UNL     1       4.158   4.953  19.873  0.00  0.00    +0.000 HD
ENDBRANCH   1   2
BRANCH   1   4
ATOM      4  C   UNL     1       2.221   4.487  18.781  0.00  0.00    +0.000 C 
BRANCH   4   5
ATOM      5  N   UNL     1       2.728   4.155  17.440  0.00  0.00    +0.000 NA
ATOM      6  H   UNL     1       1.968   3.729  16.905  0.00  0.00    +0.000 HD
BRANCH   5   7
ATOM      7  C   UNL     1       3.901   3.272  17.470  0.00  0.00    +0.000 C 
BRANCH   7   8
ATOM      8  C   UNL     1       5.112   3.995  16.862  0.00  0.00    +0.000 C 
BRANCH   8   9
ATOM      9  O   UNL     1       5.848   4.729  17.839  0.00  0.00    +0.000 OA
BRANCH   9  11
ATOM     10  C   UNL     1       7.661   6.424  18.603  0.00  0.00    +0.000 C 
ATOM     11  S   UNL     1       7.350   5.173  17.379  0.00  0.00    +0.000 S 
ATOM     12  O   UNL     1       7.269   5.816  16.087  0.00  0.00    +0.000 OA
ATOM     13  O   UNL     1       8.254   4.066  17.621  0.00  0.00    +0.000 OA
ENDBRANCH   9  11
ENDBRANCH   8   9
ENDBRANCH   7   8
ENDBRANCH   5   7
ENDBRANCH   4   5
ENDBRANCH   1   4
BRANCH   1  14
ATOM     14  C   UNL     1       2.776   6.834  17.928  0.00  0.00    +0.000 C 
BRANCH  14  15
ATOM     15  O   UNL     1       4.179   7.080  17.727  0.00  0.00    +0.000 OA
ATOM     16  H   UNL     1       4.645   6.251  17.943  0.00  0.00    +0.000 HD
ENDBRANCH  14  15
BRANCH  14  17
ATOM     17  C   UNL     1       1.998   8.175  18.061  0.00  0.00    +0.000 C 
BRANCH  17  18
ATOM     18  N   UNL     1       1.768   8.499  19.482  0.00  0.00    +0.000 NA
ATOM     19  H   UNL     1       2.662   8.537  19.977  0.00  0.00    +0.000 HD
BRANCH  18  20
ATOM     20  C   UNL     1       1.089   9.792  19.659  0.00  0.00    +0.000 C 
BRANCH  20  21
ATOM     21  C   UNL     1      -0.183   9.636  20.510  0.00  0.00    +0.000 C 
BRANCH  21  22
ATOM     22  O   UNL     1      -0.913  10.858  20.530  0.00  0.00    +0.000 OA
BRANCH  22  23
ATOM     23  S   UNL     1      -0.968  11.650  21.952  0.00  0.00    +0.000 S 
ATOM     24  C   UNL     1      -0.776  10.243  23.018  0.00  0.00    +0.000 C 
ATOM     25  O   UNL     1       0.216  12.480  22.062  0.00  0.00    +0.000 OA
ATOM     26  O   UNL     1      -2.300  12.190  22.132  0.00  0.00    +0.000 OA
ENDBRANCH  22  23
ENDBRANCH  21  22
ENDBRANCH  20  21
ENDBRANCH  18  20
ENDBRANCH  17  18
ENDBRANCH  14  17
ENDBRANCH   1  14
TORSDOF 15
ENDMDL
