MODEL 1
REMARK VINA RESULT:      -9.1      0.000      0.000
REMARK  Name = 
REMARK  3 active torsions:
REMARK  status: ('A' for Active; 'I' for Inactive)
REMARK    1  A    between atoms: C_2  and  C_5
REMARK    2  A    between atoms: C_7  and  O_8
REMARK    3  A    between atoms: O_8  and  C_9
REMARK                            x       y       z     vdW  Elec       q    Type
REMARK                         _______ _______ _______ _____ _____    ______ ____
ROOT
ATOM      1  C   UNL     1       4.647   4.848  17.342  0.00  0.00    +0.000 A 
ATOM      2  N   UNL     1       4.382   5.737  18.310  0.00  0.00    +0.000 NA
ATOM      3  C   UNL     1       3.321   5.512  19.112  0.00  0.00    +0.000 A 
ATOM      4  C   UNL     1       2.529   4.365  19.030  0.00  0.00    +0.000 A 
ATOM      5  C   UNL     1       1.404   4.065  19.844  0.00  0.00    +0.000 A 
ATOM      6  C   UNL     1       0.706   2.868  19.668  0.00  0.00    +0.000 A 
ATOM      7  C   UNL     1       1.115   1.972  18.688  0.00  0.00    +0.000 A 
ATOM      8  C   UNL     1       2.210   2.284  17.878  0.00  0.00    +0.000 A 
ATOM      9  C   UNL     1       2.920   3.468  18.033  0.00  0.00    +0.000 A 
ATOM     10  N   UNL     1       3.944   3.702  17.200  0.00  0.00    +0.000 NA
ENDROOT
BRANCH   1  12
ATOM     11 CL   UNL     1       6.123   3.787  15.226  0.00  0.00    +0.000 Cl
ATOM     12  C   UNL     1       5.733   5.177  16.305  0.00  0.00    +0.000 C 
ATOM     13 CL   UNL     1       7.260   5.627  17.152  0.00  0.00    +0.000 Cl
ATOM     14 CL   UNL     1       5.214   6.547  15.269  0.00  0.00    +0.000 Cl
ENDBRANCH   1  12
BRANCH   3  15
ATOM     15  O   UNL     1       3.015   6.480  20.073  0.00  0.00    +0.000 OA
BRANCH  15  16
ATOM     16  C   UNL     1       2.251   7.561  19.667  0.00  0.00    +0.000 A 
ATOM     17  C   UNL     1       2.210   7.989  18.339  0.00  0.00    +0.000 A 
ATOM     18  C   UNL     1       1.468   9.117  17.985  0.00  0.00    +0.000 A 
ATOM     19  C   UNL     1       0.697   9.793  18.937  0.00  0.00    +0.000 A 
ATOM     20  C   UNL     1      -0.056  10.923  18.579  0.00  0.00    +0.000 A 
ATOM     21  C   UNL     1      -0.857  11.573  19.517  0.00  0.00    +0.000 A 
ATOM     22  C   UNL     1      -0.908  11.101  20.826  0.00  0.00    +0.000 A 
ATOM     23  C   UNL     1      -0.146   9.989  21.203  0.00  0.00    +0.000 A 
ATOM     24  C   UNL     1       0.669   9.322  20.271  0.00  0.00    +0.000 A 
ATOM     25  C   UNL     1       1.458   8.204  20.623  0.00  0.00    +0.000 A 
ENDBRANCH  15  16
ENDBRANCH   3  15
TORSDOF 3
ENDMDL
MODEL 2
REMARK VINA RESULT:      -9.1      0.058      1.011
REMARK  Name = 
REMARK  3 active torsions:
REMARK  status: ('A' for Active; 'I' for Inactive)
REMARK    1  A    between atoms: C_2  and  C_5
REMARK    2  A    between atoms: C_7  and  O_8
REMARK    3  A    between atoms: O_8  and  C_9
REMARK                            x       y       z     vdW  Elec       q    Type
REMARK                         _______ _______ _______ _____ _____    ______ ____
ROOT
ATOM      1  C   UNL     1       4.651   4.901  17.334  0.00  0.00    +0.000 A 
ATOM      2  N   UNL     1       4.379   5.790  18.302  0.00  0.00    +0.000 NA
ATOM      3  C   UNL     1       3.320   5.557  19.103  0.00  0.00    +0.000 A 
ATOM      4  C   UNL     1       2.537   4.404  19.022  0.00  0.00    +0.000 A 
ATOM      5  C   UNL     1       1.414   4.095  19.835  0.00  0.00    +0.000 A 
ATOM      6  C   UNL     1       0.725   2.893  19.660  0.00  0.00    +0.000 A 
ATOM      7  C   UNL     1       1.142   2.000  18.682  0.00  0.00    +0.000 A 
ATOM      8  C   UNL     1       2.235   2.319  17.872  0.00  0.00    +0.000 A 
ATOM      9  C   UNL     1       2.936   3.509  18.026  0.00  0.00    +0.000 A 
ATOM     10  N   UNL     1       3.958   3.751  17.193  0.00  0.00    +0.000 NA
ENDROOT
BRANCH   1  12
ATOM     11 CL   UNL     1       7.296   5.741  17.046  0.00  0.00    +0.000 Cl
ATOM     12  C   UNL     1       5.735   5.238  16.297  0.00  0.00    +0.000 C 
ATOM     13 CL   UNL     1       5.181   6.612  15.268  0.00  0.00    +0.000 Cl
ATOM     14 CL   UNL     1       6.062   3.818  15.250  0.00  0.00    +0.000 Cl
ENDBRANCH   1  12
BRANCH   3  15
ATOM     15  O   UNL     1       3.006   6.523  20.063  0.00  0.00    +0.000 OA
BRANCH  15  16
ATOM     16  C   UNL     1       2.239   7.601  19.655  0.00  0.00    +0.000 A 
ATOM     17  C   UNL     1       2.183   8.016  18.322  0.00  0.00    +0.000 A 
ATOM     18  C   UNL     1       1.439   9.140  17.965  0.00  0.00    +0.000 A 
ATOM     19  C   UNL     1       0.679   9.828  18.919  0.00  0.00    +0.000 A 
ATOM     20  C   UNL     1      -0.077  10.954  18.557  0.00  0.00    +0.000 A 
ATOM     21  C   UNL     1      -0.865  11.615  19.497  0.00  0.00    +0.000 A 
ATOM     22  C   UNL     1      -0.903  11.157  20.812  0.00  0.00    +0.000 A 
ATOM     23  C   UNL     1      -0.138  10.049  21.191  0.00  0.00    +0.000 A 
ATOM     24  C   UNL     1       0.666   9.370  20.257  0.00  0.00    +0.000 A 
ATOM     25  C   UNL     1       1.457   8.255  20.612  0.00  0.00    +0.000 A 
ENDBRANCH  15  16
ENDBRANCH   3  15
TORSDOF 3
ENDMDL
MODEL 3
REMARK VINA RESULT:      -9.1      0.079      1.012
REMARK  Name = 
REMARK  3 active torsions:
REMARK  status: ('A' for Active; 'I' for Inactive)
REMARK    1  A    between atoms: C_2  and  C_5
REMARK    2  A    between atoms: C_7  and  O_8
REMARK    3  A    between atoms: O_8  and  C_9
REMARK                            x       y       z     vdW  Elec       q    Type
REMARK                         _______ _______ _______ _____ _____    ______ ____
ROOT
ATOM      1  C   UNL     1       4.606   4.910  17.338  0.00  0.00    +0.000 A 
ATOM      2  N   UNL     1       4.337   5.802  18.303  0.00  0.00    +0.000 NA
ATOM      3  C   UNL     1       3.281   5.571  19.110  0.00  0.00    +0.000 A 
ATOM      4  C   UNL     1       2.499   4.417  19.037  0.00  0.00    +0.000 A 
ATOM      5  C   UNL     1       1.380   4.111  19.856  0.00  0.00    +0.000 A 
ATOM      6  C   UNL     1       0.692   2.907  19.689  0.00  0.00    +0.000 A 
ATOM      7  C   UNL     1       1.106   2.010  18.713  0.00  0.00    +0.000 A 
ATOM      8  C   UNL     1       2.195   2.328  17.897  0.00  0.00    +0.000 A 
ATOM      9  C   UNL     1       2.895   3.519  18.043  0.00  0.00    +0.000 A 
ATOM     10  N   UNL     1       3.913   3.758  17.205  0.00  0.00    +0.000 NA
ENDROOT
BRANCH   1  12
ATOM     11 CL   UNL     1       5.220   6.603  15.208  0.00  0.00    +0.000 Cl
ATOM     12  C   UNL     1       5.685   5.243  16.295  0.00  0.00    +0.000 C 
ATOM     13 CL   UNL     1       5.973   3.807  15.243  0.00  0.00    +0.000 Cl
ATOM     14 CL   UNL     1       7.222   5.690  17.106  0.00  0.00    +0.000 Cl
ENDBRANCH   1  12
BRANCH   3  15
ATOM     15  O   UNL     1       2.971   6.542  20.067  0.00  0.00    +0.000 OA
BRANCH  15  16
ATOM     16  C   UNL     1       2.210   7.622  19.655  0.00  0.00    +0.000 A 
ATOM     17  C   UNL     1       2.159   8.034  18.321  0.00  0.00    +0.000 A 
ATOM     18  C   UNL     1       1.421   9.162  17.960  0.00  0.00    +0.000 A 
ATOM     19  C   UNL     1       0.664   9.856  18.910  0.00  0.00    +0.000 A 
ATOM     20  C   UNL     1      -0.085  10.986  18.545  0.00  0.00    +0.000 A 
ATOM     21  C   UNL     1      -0.872  11.653  19.482  0.00  0.00    +0.000 A 
ATOM     22  C   UNL     1      -0.915  11.199  20.797  0.00  0.00    +0.000 A 
ATOM     23  C   UNL     1      -0.156  10.087  21.181  0.00  0.00    +0.000 A 
ATOM     24  C   UNL     1       0.646   9.402  20.250  0.00  0.00    +0.000 A 
ATOM     25  C   UNL     1       1.430   8.283  20.610  0.00  0.00    +0.000 A 
ENDBRANCH  15  16
ENDBRANCH   3  15
TORSDOF 3
ENDMDL
MODEL 4
REMARK VINA RESULT:      -8.9      1.449      2.273
REMARK  Name = 
REMARK  3 active torsions:
REMARK  status: ('A' for Active; 'I' for Inactive)
REMARK    1  A    between atoms: C_2  and  C_5
REMARK    2  A    between atoms: C_7  and  O_8
REMARK    3  A    between atoms: O_8  and  C_9
REMARK                            x       y       z     vdW  Elec       q    Type
REMARK                         _______ _______ _______ _____ _____    ______ ____
ROOT
ATOM      1  C   UNL     1       5.583   5.326  18.378  0.00  0.00    +0.000 A 
ATOM      2  N   UNL     1       4.698   6.289  18.081  0.00  0.00    +0.000 NA
ATOM      3  C   UNL     1       3.394   5.953  17.989  0.00  0.00    +0.000 A 
ATOM      4  C   UNL     1       2.914   4.670  18.258  0.00  0.00    +0.000 A 
ATOM      5  C   UNL     1       1.558   4.252  18.185  0.00  0.00    +0.000 A 
ATOM      6  C   UNL     1       1.209   2.936  18.498  0.00  0.00    +0.000 A 
ATOM      7  C   UNL     1       2.195   2.036  18.878  0.00  0.00    +0.000 A 
ATOM      8  C   UNL     1       3.529   2.450  18.928  0.00  0.00    +0.000 A 
ATOM      9  C   UNL     1       3.902   3.751  18.620  0.00  0.00    +0.000 A 
ATOM     10  N   UNL     1       5.205   4.062  18.670  0.00  0.00    +0.000 NA
ENDROOT
BRANCH   1  12
ATOM     11 CL   UNL     1       7.428   7.252  17.562  0.00  0.00    +0.000 Cl
ATOM     12  C   UNL     1       7.084   5.646  18.305  0.00  0.00    +0.000 C 
ATOM     13 CL   UNL     1       7.918   4.410  17.290  0.00  0.00    +0.000 Cl
ATOM     14 CL   UNL     1       7.807   5.636  19.948  0.00  0.00    +0.000 Cl
ENDBRANCH   1  12
BRANCH   3  15
ATOM     15  O   UNL     1       2.491   6.950  17.612  0.00  0.00    +0.000 OA
BRANCH  15  16
ATOM     16  C   UNL     1       2.005   7.780  18.609  0.00  0.00    +0.000 A 
ATOM     17  C   UNL     1       2.006   7.409  19.955  0.00  0.00    +0.000 A 
ATOM     18  C   UNL     1       1.457   8.255  20.919  0.00  0.00    +0.000 A 
ATOM     19  C   UNL     1       0.964   9.516  20.566  0.00  0.00    +0.000 A 
ATOM     20  C   UNL     1       0.419  10.371  21.538  0.00  0.00    +0.000 A 
ATOM     21  C   UNL     1      -0.035  11.643  21.195  0.00  0.00    +0.000 A 
ATOM     22  C   UNL     1       0.047  12.072  19.872  0.00  0.00    +0.000 A 
ATOM     23  C   UNL     1       0.567  11.223  18.889  0.00  0.00    +0.000 A 
ATOM     24  C   UNL     1       1.029   9.935  19.216  0.00  0.00    +0.000 A 
ATOM     25  C   UNL     1       1.549   9.051  18.245  0.00  0.00    +0.000 A 
ENDBRANCH  15  16
ENDBRANCH   3  15
TORSDOF 3
ENDMDL
MODEL 5
REMARK VINA RESULT:      -8.8      2.697      4.133
REMARK  Name = 
REMARK  3 active torsions:
REMARK  status: ('A' for Active; 'I' for Inactive)
REMARK    1  A    between atoms: C_2  and  C_5
REMARK    2  A    between atoms: C_7  and  O_8
REMARK    3  A    between atoms: O_8  and  C_9
REMARK                            x       y       z     vdW  Elec       q    Type
REMARK                         _______ _______ _______ _____ _____    ______ ____
ROOT
ATOM      1  C   UNL     1       3.084   4.384  18.979  0.00  0.00    +0.000 A 
ATOM      2  N   UNL     1       2.589   5.493  18.410  0.00  0.00    +0.000 NA
ATOM      3  C   UNL     1       3.458   6.393  17.902  0.00  0.00    +0.000 A 
ATOM      4  C   UNL     1       4.839   6.193  17.876  0.00  0.00    +0.000 A 
ATOM      5  C   UNL     1       5.805   7.093  17.354  0.00  0.00    +0.000 A 
ATOM      6  C   UNL     1       7.162   6.761  17.374  0.00  0.00    +0.000 A 
ATOM      7  C   UNL     1       7.563   5.545  17.911  0.00  0.00    +0.000 A 
ATOM      8  C   UNL     1       6.608   4.673  18.441  0.00  0.00    +0.000 A 
ATOM      9  C   UNL     1       5.254   4.981  18.434  0.00  0.00    +0.000 A 
ATOM     10  N   UNL     1       4.405   4.101  18.983  0.00  0.00    +0.000 NA
ENDROOT
BRANCH   1  12
ATOM     11 CL   UNL     1       0.739   4.300  20.487  0.00  0.00    +0.000 Cl
ATOM     12  C   UNL     1       2.127   3.440  19.725  0.00  0.00    +0.000 C 
ATOM     13 CL   UNL     1       3.017   2.604  21.053  0.00  0.00    +0.000 Cl
ATOM     14 CL   UNL     1       1.462   2.208  18.603  0.00  0.00    +0.000 Cl
ENDBRANCH   1  12
BRANCH   3  15
ATOM     15  O   UNL     1       2.934   7.575  17.373  0.00  0.00    +0.000 OA
BRANCH  15  16
ATOM     16  C   UNL     1       2.093   8.318  18.185  0.00  0.00    +0.000 A 
ATOM     17  C   UNL     1       1.244   9.305  17.679  0.00  0.00    +0.000 A 
ATOM     18  C   UNL     1       0.455  10.065  18.541  0.00  0.00    +0.000 A 
ATOM     19  C   UNL     1       0.444   9.807  19.916  0.00  0.00    +0.000 A 
ATOM     20  C   UNL     1      -0.358  10.567  20.783  0.00  0.00    +0.000 A 
ATOM     21  C   UNL     1      -0.401  10.284  22.147  0.00  0.00    +0.000 A 
ATOM     22  C   UNL     1       0.363   9.238  22.659  0.00  0.00    +0.000 A 
ATOM     23  C   UNL     1       1.183   8.486  21.811  0.00  0.00    +0.000 A 
ATOM     24  C   UNL     1       1.241   8.758  20.432  0.00  0.00    +0.000 A 
ATOM     25  C   UNL     1       2.067   8.023  19.552  0.00  0.00    +0.000 A 
ENDBRANCH  15  16
ENDBRANCH   3  15
TORSDOF 3
ENDMDL
MODEL 6
REMARK VINA RESULT:      -8.8      1.023      1.115
REMARK  Name = 
REMARK  3 active torsions:
REMARK  status: ('A' for Active; 'I' for Inactive)
REMARK    1  A    between atoms: C_2  and  C_5
REMARK    2  A    between atoms: C_7  and  O_8
REMARK    3  A    between atoms: O_8  and  C_9
REMARK                            x       y       z     vdW  Elec       q    Type
REMARK                         _______ _______ _______ _____ _____    ______ ____
ROOT
ATOM      1  C   UNL     1       5.279   5.030  18.559  0.00  0.00    +0.000 A 
ATOM      2  N   UNL     1       4.571   5.773  19.423  0.00  0.00    +0.000 NA
ATOM      3  C   UNL     1       3.314   5.385  19.718  0.00  0.00    +0.000 A 
ATOM      4  C   UNL     1       2.739   4.212  19.226  0.00  0.00    +0.000 A 
ATOM      5  C   UNL     1       1.426   3.744  19.500  0.00  0.00    +0.000 A 
ATOM      6  C   UNL     1       0.979   2.539  18.955  0.00  0.00    +0.000 A 
ATOM      7  C   UNL     1       1.824   1.800  18.138  0.00  0.00    +0.000 A 
ATOM      8  C   UNL     1       3.107   2.276  17.856  0.00  0.00    +0.000 A 
ATOM      9  C   UNL     1       3.575   3.473  18.385  0.00  0.00    +0.000 A 
ATOM     10  N   UNL     1       4.809   3.871  18.048  0.00  0.00    +0.000 NA
ENDROOT
BRANCH   1  12
ATOM     11 CL   UNL     1       7.443   4.439  16.901  0.00  0.00    +0.000 Cl
ATOM     12  C   UNL     1       6.639   5.552  18.068  0.00  0.00    +0.000 C 
ATOM     13 CL   UNL     1       7.758   5.736  19.471  0.00  0.00    +0.000 Cl
ATOM     14 CL   UNL     1       6.445   7.144  17.264  0.00  0.00    +0.000 Cl
ENDBRANCH   1  12
BRANCH   3  15
ATOM     15  O   UNL     1       2.563   6.204  20.566  0.00  0.00    +0.000 OA
BRANCH  15  16
ATOM     16  C   UNL     1       2.048   7.373  20.030  0.00  0.00    +0.000 A 
ATOM     17  C   UNL     1       2.260   7.742  18.700  0.00  0.00    +0.000 A 
ATOM     18  C   UNL     1       1.767   8.955  18.218  0.00  0.00    +0.000 A 
ATOM     19  C   UNL     1       0.993   9.787  19.035  0.00  0.00    +0.000 A 
ATOM     20  C   UNL     1       0.490  11.004  18.547  0.00  0.00    +0.000 A 
ATOM     21  C   UNL     1      -0.315  11.814  19.345  0.00  0.00    +0.000 A 
ATOM     22  C   UNL     1      -0.622  11.417  20.644  0.00  0.00    +0.000 A 
ATOM     23  C   UNL     1      -0.110  10.217  21.152  0.00  0.00    +0.000 A 
ATOM     24  C   UNL     1       0.706   9.387  20.361  0.00  0.00    +0.000 A 
ATOM     25  C   UNL     1       1.246   8.176  20.848  0.00  0.00    +0.000 A 
ENDBRANCH  15  16
ENDBRANCH   3  15
TORSDOF 3
ENDMDL
MODEL 7
REMARK VINA RESULT:      -8.8      1.419      2.225
REMARK  Name = 
REMARK  3 active torsions:
REMARK  status: ('A' for Active; 'I' for Inactive)
REMARK    1  A    between atoms: C_2  and  C_5
REMARK    2  A    between atoms: C_7  and  O_8
REMARK    3  A    between atoms: O_8  and  C_9
REMARK                            x       y       z     vdW  Elec       q    Type
REMARK                         _______ _______ _______ _____ _____    ______ ____
ROOT
ATOM      1  C   UNL     1       5.542   5.315  18.323  0.00  0.00    +0.000 A 
ATOM      2  N   UNL     1       4.652   6.276  18.038  0.00  0.00    +0.000 NA
ATOM      3  C   UNL     1       3.348   5.938  17.964  0.00  0.00    +0.000 A 
ATOM      4  C   UNL     1       2.873   4.654  18.239  0.00  0.00    +0.000 A 
ATOM      5  C   UNL     1       1.518   4.233  18.184  0.00  0.00    +0.000 A 
ATOM      6  C   UNL     1       1.174   2.917  18.501  0.00  0.00    +0.000 A 
ATOM      7  C   UNL     1       2.168   2.019  18.868  0.00  0.00    +0.000 A 
ATOM      8  C   UNL     1       3.501   2.434  18.900  0.00  0.00    +0.000 A 
ATOM      9  C   UNL     1       3.868   3.737  18.587  0.00  0.00    +0.000 A 
ATOM     10  N   UNL     1       5.171   4.050  18.620  0.00  0.00    +0.000 NA
ENDROOT
BRANCH   1  12
ATOM     11 CL   UNL     1       7.855   5.684  19.838  0.00  0.00    +0.000 Cl
ATOM     12  C   UNL     1       7.042   5.638  18.230  0.00  0.00    +0.000 C 
ATOM     13 CL   UNL     1       7.265   7.265  17.485  0.00  0.00    +0.000 Cl
ATOM     14 CL   UNL     1       7.885   4.414  17.224  0.00  0.00    +0.000 Cl
ENDBRANCH   1  12
BRANCH   3  15
ATOM     15  O   UNL     1       2.437   6.934  17.599  0.00  0.00    +0.000 OA
BRANCH  15  16
ATOM     16  C   UNL     1       1.972   7.769  18.601  0.00  0.00    +0.000 A 
ATOM     17  C   UNL     1       1.995   7.403  19.949  0.00  0.00    +0.000 A 
ATOM     18  C   UNL     1       1.466   8.255  20.919  0.00  0.00    +0.000 A 
ATOM     19  C   UNL     1       0.971   9.517  20.570  0.00  0.00    +0.000 A 
ATOM     20  C   UNL     1       0.446  10.377  21.547  0.00  0.00    +0.000 A 
ATOM     21  C   UNL     1      -0.009  11.650  21.207  0.00  0.00    +0.000 A 
ATOM     22  C   UNL     1       0.052  12.073  19.882  0.00  0.00    +0.000 A 
ATOM     23  C   UNL     1       0.552  11.219  18.893  0.00  0.00    +0.000 A 
ATOM     24  C   UNL     1       1.014   9.930  19.217  0.00  0.00    +0.000 A 
ATOM     25  C   UNL     1       1.515   9.040  18.240  0.00  0.00    +0.000 A 
ENDBRANCH  15  16
ENDBRANCH   3  15
TORSDOF 3
ENDMDL
MODEL 8
REMARK VINA RESULT:      -8.8      1.005      1.500
REMARK  Name = 
REMARK  3 active torsions:
REMARK  status: ('A' for Active; 'I' for Inactive)
REMARK    1  A    between atoms: C_2  and  C_5
REMARK    2  A    between atoms: C_7  and  O_8
REMARK    3  A    between atoms: O_8  and  C_9
REMARK                            x       y       z     vdW  Elec       q    Type
REMARK                         _______ _______ _______ _____ _____    ______ ____
ROOT
ATOM      1  C   UNL     1       5.278   5.070  18.519  0.00  0.00    +0.000 A 
ATOM      2  N   UNL     1       4.569   5.806  19.388  0.00  0.00    +0.000 NA
ATOM      3  C   UNL     1       3.314   5.411  19.685  0.00  0.00    +0.000 A 
ATOM      4  C   UNL     1       2.744   4.237  19.191  0.00  0.00    +0.000 A 
ATOM      5  C   UNL     1       1.434   3.761  19.467  0.00  0.00    +0.000 A 
ATOM      6  C   UNL     1       0.991   2.555  18.918  0.00  0.00    +0.000 A 
ATOM      7  C   UNL     1       1.838   1.824  18.095  0.00  0.00    +0.000 A 
ATOM      8  C   UNL     1       3.117   2.308  17.812  0.00  0.00    +0.000 A 
ATOM      9  C   UNL     1       3.581   3.505  18.344  0.00  0.00    +0.000 A 
ATOM     10  N   UNL     1       4.812   3.911  18.004  0.00  0.00    +0.000 NA
ENDROOT
BRANCH   1  12
ATOM     11 CL   UNL     1       6.519   7.229  17.262  0.00  0.00    +0.000 Cl
ATOM     12  C   UNL     1       6.634   5.600  18.026  0.00  0.00    +0.000 C 
ATOM     13 CL   UNL     1       7.303   4.483  16.778  0.00  0.00    +0.000 Cl
ATOM     14 CL   UNL     1       7.795   5.715  19.389  0.00  0.00    +0.000 Cl
ENDBRANCH   1  12
BRANCH   3  15
ATOM     15  O   UNL     1       2.562   6.223  20.539  0.00  0.00    +0.000 OA
BRANCH  15  16
ATOM     16  C   UNL     1       2.050   7.397  20.012  0.00  0.00    +0.000 A 
ATOM     17  C   UNL     1       2.279   7.785  18.691  0.00  0.00    +0.000 A 
ATOM     18  C   UNL     1       1.788   9.003  18.219  0.00  0.00    +0.000 A 
ATOM     19  C   UNL     1       1.000   9.821  19.037  0.00  0.00    +0.000 A 
ATOM     20  C   UNL     1       0.500  11.043  18.560  0.00  0.00    +0.000 A 
ATOM     21  C   UNL     1      -0.319  11.840  19.358  0.00  0.00    +0.000 A 
ATOM     22  C   UNL     1      -0.642  11.423  20.647  0.00  0.00    +0.000 A 
ATOM     23  C   UNL     1      -0.132  10.218  21.145  0.00  0.00    +0.000 A 
ATOM     24  C   UNL     1       0.697   9.402  20.353  0.00  0.00    +0.000 A 
ATOM     25  C   UNL     1       1.235   8.186  20.831  0.00  0.00    +0.000 A 
ENDBRANCH  15  16
ENDBRANCH   3  15
TORSDOF 3
ENDMDL
MODEL 9
REMARK VINA RESULT:      -8.8      2.715      4.153
REMARK  Name = 
REMARK  3 active torsions:
REMARK  status: ('A' for Active; 'I' for Inactive)
REMARK    1  A    between atoms: C_2  and  C_5
REMARK    2  A    between atoms: C_7  and  O_8
REMARK    3  A    between atoms: O_8  and  C_9
REMARK                            x       y       z     vdW  Elec       q    Type
REMARK                         _______ _______ _______ _____ _____    ______ ____
ROOT
ATOM      1  C   UNL     1       3.116   4.373  19.020  0.00  0.00    +0.000 A 
ATOM      2  N   UNL     1       2.617   5.466  18.423  0.00  0.00    +0.000 NA
ATOM      3  C   UNL     1       3.482   6.366  17.912  0.00  0.00    +0.000 A 
ATOM      4  C   UNL     1       4.866   6.182  17.910  0.00  0.00    +0.000 A 
ATOM      5  C   UNL     1       5.830   7.084  17.386  0.00  0.00    +0.000 A 
ATOM      6  C   UNL     1       7.190   6.769  17.432  0.00  0.00    +0.000 A 
ATOM      7  C   UNL     1       7.597   5.568  17.997  0.00  0.00    +0.000 A 
ATOM      8  C   UNL     1       6.644   4.694  18.529  0.00  0.00    +0.000 A 
ATOM      9  C   UNL     1       5.287   4.985  18.496  0.00  0.00    +0.000 A 
ATOM     10  N   UNL     1       4.440   4.105  19.048  0.00  0.00    +0.000 NA
ENDROOT
BRANCH   1  12
ATOM     11 CL   UNL     1       1.418   2.183  18.700  0.00  0.00    +0.000 Cl
ATOM     12  C   UNL     1       2.159   3.431  19.768  0.00  0.00    +0.000 C 
ATOM     13 CL   UNL     1       0.803   4.385  20.477  0.00  0.00    +0.000 Cl
ATOM     14 CL   UNL     1       3.025   2.579  21.089  0.00  0.00    +0.000 Cl
ENDBRANCH   1  12
BRANCH   3  15
ATOM     15  O   UNL     1       2.953   7.533  17.354  0.00  0.00    +0.000 OA
BRANCH  15  16
ATOM     16  C   UNL     1       2.221   8.362  18.188  0.00  0.00    +0.000 A 
ATOM     17  C   UNL     1       1.657   9.559  17.743  0.00  0.00    +0.000 A 
ATOM     18  C   UNL     1       0.974  10.389  18.632  0.00  0.00    +0.000 A 
ATOM     19  C   UNL     1       0.779  10.005  19.964  0.00  0.00    +0.000 A 
ATOM     20  C   UNL     1       0.084  10.836  20.856  0.00  0.00    +0.000 A 
ATOM     21  C   UNL     1      -0.146  10.437  22.171  0.00  0.00    +0.000 A 
ATOM     22  C   UNL     1       0.321   9.200  22.609  0.00  0.00    +0.000 A 
ATOM     23  C   UNL     1       1.035   8.370  21.737  0.00  0.00    +0.000 A 
ATOM     24  C   UNL     1       1.279   8.758  20.407  0.00  0.00    +0.000 A 
ATOM     25  C   UNL     1       2.004   7.946  19.506  0.00  0.00    +0.000 A 
ENDBRANCH  15  16
ENDBRANCH   3  15
TORSDOF 3
ENDMDL
