MODEL 1
REMARK VINA RESULT:      -7.8      0.000      0.000
REMARK  Name = 
REMARK  6 active torsions:
REMARK  status: ('A' for Active; 'I' for Inactive)
REMARK    1  A    between atoms: C_1  and  O_2
REMARK    2  A    between atoms: O_2  and  C_3
REMARK    3  A    between atoms: C_13  and  C_14
REMARK    4  A    between atoms: C_17  and  O_18
REMARK    5  A    between atoms: O_18  and  C_19
REMARK    6  A    between atoms: C_20  and  O_21
REMARK                            x       y       z     vdW  Elec       q    Type
REMARK                         _______ _______ _______ _____ _____    ______ ____
ROOT
ATOM      1  C   UNL     1       1.516   9.364  18.865  0.00  0.00    +0.000 A 
ATOM      2  C   UNL     1       2.340   8.879  17.832  0.00  0.00    +0.000 A 
ATOM      3  C   UNL     1       2.914   7.605  17.902  0.00  0.00    +0.000 A 
ATOM      4  C   UNL     1       2.660   6.827  19.014  0.00  0.00    +0.000 A 
ATOM      5  C   UNL     1       1.816   7.304  20.022  0.00  0.00    +0.000 A 
ATOM      6  C   UNL     1       1.242   8.560  19.977  0.00  0.00    +0.000 A 
ATOM      7  N   UNL     1       1.656   6.344  21.021  0.00  0.00    +0.000 N 
ATOM      8  C   UNL     1       2.372   5.191  20.735  0.00  0.00    +0.000 C 
ATOM      9  O   UNL     1       2.440   4.177  21.399  0.00  0.00    +0.000 OA
ATOM     10  C   UNL     1       3.074   5.486  19.434  0.00  0.00    +0.000 C 
ATOM     11  C   UNL     1       3.956   4.617  18.918  0.00  0.00    +0.000 C 
ATOM     12  H   UNL     1       1.093   6.444  21.852  0.00  0.00    +0.000 HD
ENDROOT
BRANCH  11  13
ATOM     13  C   UNL     1       4.800   4.893  17.757  0.00  0.00    +0.000 A 
ATOM     14  C   UNL     1       4.581   4.177  16.573  0.00  0.00    +0.000 A 
ATOM     15  C   UNL     1       5.430   4.336  15.473  0.00  0.00    +0.000 A 
ATOM     16  C   UNL     1       6.507   5.217  15.548  0.00  0.00    +0.000 A 
ATOM     17  C   UNL     1       6.697   5.951  16.727  0.00  0.00    +0.000 A 
ATOM     18  C   UNL     1       5.857   5.802  17.826  0.00  0.00    +0.000 A 
BRANCH  16  19
ATOM     19  O   UNL     1       7.434   5.437  14.561  0.00  0.00    +0.000 OA
ATOM     20  C   UNL     1       7.242   4.720  13.345  0.00  0.00    +0.000 C 
ENDBRANCH  16  19
BRANCH  17  21
ATOM     21  O   UNL     1       7.746   6.825  16.830  0.00  0.00    +0.000 OA
ATOM     22  H   UNL     1       8.231   6.548  17.633  0.00  0.00    +0.000 HD
ENDBRANCH  17  21
ENDBRANCH  11  13
BRANCH   1  24
ATOM     23  C   UNL     1      -0.272  10.715  19.645  0.00  0.00    +0.000 C 
ATOM     24  O   UNL     1       0.927  10.601  18.884  0.00  0.00    +0.000 OA
ENDBRANCH   1  24
TORSDOF 4
ENDMDL
MODEL 2
REMARK VINA RESULT:      -7.7      0.905      1.059
REMARK  Name = 
REMARK  6 active torsions:
REMARK  status: ('A' for Active; 'I' for Inactive)
REMARK    1  A    between atoms: C_1  and  O_2
REMARK    2  A    between atoms: O_2  and  C_3
REMARK    3  A    between atoms: C_13  and  C_14
REMARK    4  A    between atoms: C_17  and  O_18
REMARK    5  A    between atoms: O_18  and  C_19
REMARK    6  A    between atoms: C_20  and  O_21
REMARK                            x       y       z     vdW  Elec       q    Type
REMARK                         _______ _______ _______ _____ _____    ______ ____
ROOT
ATOM      1  C   UNL     1       1.693   8.239  19.496  0.00  0.00    +0.000 A 
ATOM      2  C   UNL     1       2.466   7.989  18.348  0.00  0.00    +0.000 A 
ATOM      3  C   UNL     1       3.123   6.765  18.169  0.00  0.00    +0.000 A 
ATOM      4  C   UNL     1       3.001   5.802  19.151  0.00  0.00    +0.000 A 
ATOM      5  C   UNL     1       2.206   6.047  20.275  0.00  0.00    +0.000 A 
ATOM      6  C   UNL     1       1.553   7.248  20.475  0.00  0.00    +0.000 A 
ATOM      7  N   UNL     1       2.181   4.930  21.109  0.00  0.00    +0.000 N 
ATOM      8  C   UNL     1       2.945   3.894  20.591  0.00  0.00    +0.000 C 
ATOM      9  O   UNL     1       3.126   2.794  21.072  0.00  0.00    +0.000 OA
ATOM     10  C   UNL     1       3.529   4.445  19.316  0.00  0.00    +0.000 C 
ATOM     11  C   UNL     1       4.422   3.739  18.608  0.00  0.00    +0.000 C 
ATOM     12  H   UNL     1       1.677   4.852  21.979  0.00  0.00    +0.000 HD
ENDROOT
BRANCH  11  13
ATOM     13  C   UNL     1       5.159   4.260  17.457  0.00  0.00    +0.000 A 
ATOM     14  C   UNL     1       4.933   3.696  16.195  0.00  0.00    +0.000 A 
ATOM     15  C   UNL     1       5.689   4.093  15.088  0.00  0.00    +0.000 A 
ATOM     16  C   UNL     1       6.679   5.063  15.235  0.00  0.00    +0.000 A 
ATOM     17  C   UNL     1       6.874   5.642  16.496  0.00  0.00    +0.000 A 
ATOM     18  C   UNL     1       6.125   5.256  17.604  0.00  0.00    +0.000 A 
BRANCH  16  19
ATOM     19  O   UNL     1       7.514   5.514  14.245  0.00  0.00    +0.000 OA
ATOM     20  C   UNL     1       7.494   4.782  13.022  0.00  0.00    +0.000 C 
ENDBRANCH  16  19
BRANCH  17  21
ATOM     21  O   UNL     1       7.839   6.598  16.671  0.00  0.00    +0.000 OA
ATOM     22  H   UNL     1       8.405   6.538  15.877  0.00  0.00    +0.000 HD
ENDBRANCH  17  21
ENDBRANCH  11  13
BRANCH   1  24
ATOM     23  C   UNL     1       0.624  10.169  18.623  0.00  0.00    +0.000 C 
ATOM     24  O   UNL     1       1.030   9.409  19.758  0.00  0.00    +0.000 OA
ENDBRANCH   1  24
TORSDOF 4
ENDMDL
MODEL 3
REMARK VINA RESULT:      -7.1      1.668      6.455
REMARK  Name = 
REMARK  6 active torsions:
REMARK  status: ('A' for Active; 'I' for Inactive)
REMARK    1  A    between atoms: C_1  and  O_2
REMARK    2  A    between atoms: O_2  and  C_3
REMARK    3  A    between atoms: C_13  and  C_14
REMARK    4  A    between atoms: C_17  and  O_18
REMARK    5  A    between atoms: O_18  and  C_19
REMARK    6  A    between atoms: C_20  and  O_21
REMARK                            x       y       z     vdW  Elec       q    Type
REMARK                         _______ _______ _______ _____ _____    ______ ____
ROOT
ATOM      1  C   UNL     1       6.437   5.439  16.015  0.00  0.00    +0.000 A 
ATOM      2  C   UNL     1       5.859   6.527  16.693  0.00  0.00    +0.000 A 
ATOM      3  C   UNL     1       4.792   6.344  17.580  0.00  0.00    +0.000 A 
ATOM      4  C   UNL     1       4.309   5.065  17.776  0.00  0.00    +0.000 A 
ATOM      5  C   UNL     1       4.909   3.985  17.121  0.00  0.00    +0.000 A 
ATOM      6  C   UNL     1       5.959   4.142  16.238  0.00  0.00    +0.000 A 
ATOM      7  N   UNL     1       4.303   2.787  17.499  0.00  0.00    +0.000 N 
ATOM      8  C   UNL     1       3.283   3.001  18.414  0.00  0.00    +0.000 C 
ATOM      9  O   UNL     1       2.567   2.171  18.935  0.00  0.00    +0.000 OA
ATOM     10  C   UNL     1       3.236   4.497  18.595  0.00  0.00    +0.000 C 
ATOM     11  C   UNL     1       2.275   5.068  19.337  0.00  0.00    +0.000 C 
ATOM     12  H   UNL     1       4.556   1.867  17.171  0.00  0.00    +0.000 HD
ENDROOT
BRANCH  11  13
ATOM     13  C   UNL     1       2.057   6.511  19.431  0.00  0.00    +0.000 A 
ATOM     14  C   UNL     1       1.698   7.064  20.667  0.00  0.00    +0.000 A 
ATOM     15  C   UNL     1       1.380   8.422  20.778  0.00  0.00    +0.000 A 
ATOM     16  C   UNL     1       1.422   9.240  19.651  0.00  0.00    +0.000 A 
ATOM     17  C   UNL     1       1.813   8.681  18.427  0.00  0.00    +0.000 A 
ATOM     18  C   UNL     1       2.134   7.332  18.305  0.00  0.00    +0.000 A 
BRANCH  16  19
ATOM     19  O   UNL     1       1.098  10.572  19.613  0.00  0.00    +0.000 OA
ATOM     20  C   UNL     1      -0.271  10.894  19.845  0.00  0.00    +0.000 C 
ENDBRANCH  16  19
BRANCH  17  21
ATOM     21  O   UNL     1       1.864   9.460  17.301  0.00  0.00    +0.000 OA
ATOM     22  H   UNL     1       2.642  10.039  17.426  0.00  0.00    +0.000 HD
ENDBRANCH  17  21
ENDBRANCH  11  13
BRANCH   1  24
ATOM     23  C   UNL     1       7.257   4.930  13.847  0.00  0.00    +0.000 C 
ATOM     24  O   UNL     1       7.472   5.530  15.122  0.00  0.00    +0.000 OA
ENDBRANCH   1  24
TORSDOF 4
ENDMDL
MODEL 4
REMARK VINA RESULT:      -7.0      4.049      6.508
REMARK  Name = 
REMARK  6 active torsions:
REMARK  status: ('A' for Active; 'I' for Inactive)
REMARK    1  A    between atoms: C_1  and  O_2
REMARK    2  A    between atoms: O_2  and  C_3
REMARK    3  A    between atoms: C_13  and  C_14
REMARK    4  A    between atoms: C_17  and  O_18
REMARK    5  A    between atoms: O_18  and  C_19
REMARK    6  A    between atoms: C_20  and  O_21
REMARK                            x       y       z     vdW  Elec       q    Type
REMARK                         _______ _______ _______ _____ _____    ______ ____
ROOT
ATOM      1  C   UNL     1       7.827   7.108  18.277  0.00  0.00    +0.000 A 
ATOM      2  C   UNL     1       7.145   6.230  19.139  0.00  0.00    +0.000 A 
ATOM      3  C   UNL     1       6.274   5.255  18.638  0.00  0.00    +0.000 A 
ATOM      4  C   UNL     1       6.092   5.173  17.272  0.00  0.00    +0.000 A 
ATOM      5  C   UNL     1       6.796   6.029  16.421  0.00  0.00    +0.000 A 
ATOM      6  C   UNL     1       7.657   7.002  16.891  0.00  0.00    +0.000 A 
ATOM      7  N   UNL     1       6.504   5.742  15.088  0.00  0.00    +0.000 N 
ATOM      8  C   UNL     1       5.603   4.693  14.981  0.00  0.00    +0.000 C 
ATOM      9  O   UNL     1       5.151   4.205  13.966  0.00  0.00    +0.000 OA
ATOM     10  C   UNL     1       5.282   4.314  16.404  0.00  0.00    +0.000 C 
ATOM     11  C   UNL     1       4.342   3.396  16.675  0.00  0.00    +0.000 C 
ATOM     12  H   UNL     1       6.887   6.215  14.283  0.00  0.00    +0.000 HD
ENDROOT
BRANCH  11  13
ATOM     13  C   UNL     1       3.854   3.089  18.019  0.00  0.00    +0.000 A 
ATOM     14  C   UNL     1       2.574   3.519  18.391  0.00  0.00    +0.000 A 
ATOM     15  C   UNL     1       2.111   3.337  19.698  0.00  0.00    +0.000 A 
ATOM     16  C   UNL     1       2.925   2.719  20.645  0.00  0.00    +0.000 A 
ATOM     17  C   UNL     1       4.191   2.265  20.251  0.00  0.00    +0.000 A 
ATOM     18  C   UNL     1       4.662   2.438  18.953  0.00  0.00    +0.000 A 
BRANCH  16  19
ATOM     19  O   UNL     1       2.610   2.514  21.964  0.00  0.00    +0.000 OA
ATOM     20  C   UNL     1       1.222   2.527  22.288  0.00  0.00    +0.000 C 
ENDBRANCH  16  19
BRANCH  17  21
ATOM     21  O   UNL     1       5.014   1.653  21.159  0.00  0.00    +0.000 OA
ATOM     22  H   UNL     1       5.432   2.383  21.657  0.00  0.00    +0.000 HD
ENDBRANCH  17  21
ENDBRANCH  11  13
BRANCH   1  24
ATOM     23  C   UNL     1       8.419   9.404  18.177  0.00  0.00    +0.000 C 
ATOM     24  O   UNL     1       8.684   8.098  18.681  0.00  0.00    +0.000 OA
ENDBRANCH   1  24
TORSDOF 4
ENDMDL
MODEL 5
REMARK VINA RESULT:      -7.0      3.330      7.073
REMARK  Name = 
REMARK  6 active torsions:
REMARK  status: ('A' for Active; 'I' for Inactive)
REMARK    1  A    between atoms: C_1  and  O_2
REMARK    2  A    between atoms: O_2  and  C_3
REMARK    3  A    between atoms: C_13  and  C_14
REMARK    4  A    between atoms: C_17  and  O_18
REMARK    5  A    between atoms: O_18  and  C_19
REMARK    6  A    between atoms: C_20  and  O_21
REMARK                            x       y       z     vdW  Elec       q    Type
REMARK                         _______ _______ _______ _____ _____    ______ ____
ROOT
ATOM      1  C   UNL     1       6.227   4.009  13.833  0.00  0.00    +0.000 A 
ATOM      2  C   UNL     1       5.167   3.663  14.692  0.00  0.00    +0.000 A 
ATOM      3  C   UNL     1       5.041   4.247  15.958  0.00  0.00    +0.000 A 
ATOM      4  C   UNL     1       5.986   5.173  16.354  0.00  0.00    +0.000 A 
ATOM      5  C   UNL     1       7.019   5.533  15.484  0.00  0.00    +0.000 A 
ATOM      6  C   UNL     1       7.167   4.967  14.232  0.00  0.00    +0.000 A 
ATOM      7  N   UNL     1       7.824   6.514  16.061  0.00  0.00    +0.000 N 
ATOM      8  C   UNL     1       7.376   6.857  17.328  0.00  0.00    +0.000 C 
ATOM      9  O   UNL     1       7.855   7.674  18.088  0.00  0.00    +0.000 OA
ATOM     10  C   UNL     1       6.184   5.967  17.569  0.00  0.00    +0.000 C 
ATOM     11  C   UNL     1       5.567   5.953  18.760  0.00  0.00    +0.000 C 
ATOM     12  H   UNL     1       8.632   6.943  15.634  0.00  0.00    +0.000 HD
ENDROOT
BRANCH  11  13
ATOM     13  C   UNL     1       4.514   5.009  19.131  0.00  0.00    +0.000 A 
ATOM     14  C   UNL     1       3.189   5.459  19.193  0.00  0.00    +0.000 A 
ATOM     15  C   UNL     1       2.168   4.616  19.643  0.00  0.00    +0.000 A 
ATOM     16  C   UNL     1       2.464   3.312  20.034  0.00  0.00    +0.000 A 
ATOM     17  C   UNL     1       3.789   2.864  19.938  0.00  0.00    +0.000 A 
ATOM     18  C   UNL     1       4.813   3.693  19.489  0.00  0.00    +0.000 A 
BRANCH  16  19
ATOM     19  O   UNL     1       1.568   2.399  20.528  0.00  0.00    +0.000 OA
ATOM     20  C   UNL     1       1.278   2.491  21.921  0.00  0.00    +0.000 C 
ENDBRANCH  16  19
BRANCH  17  21
ATOM     21  O   UNL     1       4.111   1.587  20.314  0.00  0.00    +0.000 OA
ATOM     22  H   UNL     1       4.522   1.677  21.196  0.00  0.00    +0.000 HD
ENDBRANCH  17  21
ENDBRANCH  11  13
BRANCH   1  24
ATOM     23  C   UNL     1       5.283   2.967  11.922  0.00  0.00    +0.000 C 
ATOM     24  O   UNL     1       6.435   3.477  12.588  0.00  0.00    +0.000 OA
ENDBRANCH   1  24
TORSDOF 4
ENDMDL
MODEL 6
REMARK VINA RESULT:      -6.9      3.200      6.934
REMARK  Name = 
REMARK  6 active torsions:
REMARK  status: ('A' for Active; 'I' for Inactive)
REMARK    1  A    between atoms: C_1  and  O_2
REMARK    2  A    between atoms: O_2  and  C_3
REMARK    3  A    between atoms: C_13  and  C_14
REMARK    4  A    between atoms: C_17  and  O_18
REMARK    5  A    between atoms: O_18  and  C_19
REMARK    6  A    between atoms: C_20  and  O_21
REMARK                            x       y       z     vdW  Elec       q    Type
REMARK                         _______ _______ _______ _____ _____    ______ ____
ROOT
ATOM      1  C   UNL     1       6.062   3.998  14.059  0.00  0.00    +0.000 A 
ATOM      2  C   UNL     1       5.026   3.668  14.951  0.00  0.00    +0.000 A 
ATOM      3  C   UNL     1       4.959   4.241  16.227  0.00  0.00    +0.000 A 
ATOM      4  C   UNL     1       5.940   5.140  16.598  0.00  0.00    +0.000 A 
ATOM      5  C   UNL     1       6.949   5.485  15.695  0.00  0.00    +0.000 A 
ATOM      6  C   UNL     1       7.039   4.929  14.433  0.00  0.00    +0.000 A 
ATOM      7  N   UNL     1       7.799   6.440  16.252  0.00  0.00    +0.000 N 
ATOM      8  C   UNL     1       7.405   6.780  17.538  0.00  0.00    +0.000 C 
ATOM      9  O   UNL     1       7.930   7.577  18.287  0.00  0.00    +0.000 OA
ATOM     10  C   UNL     1       6.201   5.916  17.813  0.00  0.00    +0.000 C 
ATOM     11  C   UNL     1       5.627   5.905  19.025  0.00  0.00    +0.000 C 
ATOM     12  H   UNL     1       8.601   6.854  15.800  0.00  0.00    +0.000 HD
ENDROOT
BRANCH  11  13
ATOM     13  C   UNL     1       4.565   4.982  19.425  0.00  0.00    +0.000 A 
ATOM     14  C   UNL     1       4.801   3.603  19.351  0.00  0.00    +0.000 A 
ATOM     15  C   UNL     1       3.780   2.687  19.625  0.00  0.00    +0.000 A 
ATOM     16  C   UNL     1       2.512   3.145  19.978  0.00  0.00    +0.000 A 
ATOM     17  C   UNL     1       2.298   4.526  20.079  0.00  0.00    +0.000 A 
ATOM     18  C   UNL     1       3.307   5.447  19.811  0.00  0.00    +0.000 A 
BRANCH  16  19
ATOM     19  O   UNL     1       1.417   2.359  20.233  0.00  0.00    +0.000 OA
ATOM     20  C   UNL     1       0.621   2.002  19.106  0.00  0.00    +0.000 C 
ENDBRANCH  16  19
BRANCH  17  21
ATOM     21  O   UNL     1       1.063   5.006  20.424  0.00  0.00    +0.000 OA
ATOM     22  H   UNL     1       0.645   4.289  20.941  0.00  0.00    +0.000 HD
ENDBRANCH  17  21
ENDBRANCH  11  13
BRANCH   1  24
ATOM     23  C   UNL     1       7.081   4.185  11.924  0.00  0.00    +0.000 C 
ATOM     24  O   UNL     1       6.212   3.475  12.801  0.00  0.00    +0.000 OA
ENDBRANCH   1  24
TORSDOF 4
ENDMDL
MODEL 7
REMARK VINA RESULT:      -6.8      1.980      2.687
REMARK  Name = 
REMARK  6 active torsions:
REMARK  status: ('A' for Active; 'I' for Inactive)
REMARK    1  A    between atoms: C_1  and  O_2
REMARK    2  A    between atoms: O_2  and  C_3
REMARK    3  A    between atoms: C_13  and  C_14
REMARK    4  A    between atoms: C_17  and  O_18
REMARK    5  A    between atoms: O_18  and  C_19
REMARK    6  A    between atoms: C_20  and  O_21
REMARK                            x       y       z     vdW  Elec       q    Type
REMARK                         _______ _______ _______ _____ _____    ______ ____
ROOT
ATOM      1  C   UNL     1       1.121   7.278  20.811  0.00  0.00    +0.000 A 
ATOM      2  C   UNL     1       2.204   7.491  19.939  0.00  0.00    +0.000 A 
ATOM      3  C   UNL     1       2.813   6.425  19.266  0.00  0.00    +0.000 A 
ATOM      4  C   UNL     1       2.329   5.149  19.478  0.00  0.00    +0.000 A 
ATOM      5  C   UNL     1       1.233   4.949  20.323  0.00  0.00    +0.000 A 
ATOM      6  C   UNL     1       0.620   5.985  21.002  0.00  0.00    +0.000 A 
ATOM      7  N   UNL     1       0.880   3.601  20.354  0.00  0.00    +0.000 N 
ATOM      8  C   UNL     1       1.708   2.841  19.542  0.00  0.00    +0.000 C 
ATOM      9  O   UNL     1       1.663   1.643  19.351  0.00  0.00    +0.000 OA
ATOM     10  C   UNL     1       2.699   3.824  18.974  0.00  0.00    +0.000 C 
ATOM     11  C   UNL     1       3.729   3.405  18.225  0.00  0.00    +0.000 C 
ATOM     12  H   UNL     1       0.120   3.201  20.885  0.00  0.00    +0.000 HD
ENDROOT
BRANCH  11  13
ATOM     13  C   UNL     1       4.823   4.265  17.774  0.00  0.00    +0.000 A 
ATOM     14  C   UNL     1       5.927   4.457  18.614  0.00  0.00    +0.000 A 
ATOM     15  C   UNL     1       6.944   5.352  18.265  0.00  0.00    +0.000 A 
ATOM     16  C   UNL     1       6.866   6.062  17.069  0.00  0.00    +0.000 A 
ATOM     17  C   UNL     1       5.771   5.838  16.223  0.00  0.00    +0.000 A 
ATOM     18  C   UNL     1       4.755   4.948  16.558  0.00  0.00    +0.000 A 
BRANCH  16  19
ATOM     19  O   UNL     1       7.770   6.994  16.628  0.00  0.00    +0.000 OA
ATOM     20  C   UNL     1       7.936   8.148  17.447  0.00  0.00    +0.000 C 
ENDBRANCH  16  19
BRANCH  17  21
ATOM     21  O   UNL     1       5.666   6.521  15.040  0.00  0.00    +0.000 OA
ATOM     22  H   UNL     1       5.255   5.890  14.417  0.00  0.00    +0.000 HD
ENDBRANCH  17  21
ENDBRANCH  11  13
BRANCH   1  24
ATOM     23  C   UNL     1       1.293   9.323  22.002  0.00  0.00    +0.000 C 
ATOM     24  O   UNL     1       0.478   8.259  21.519  0.00  0.00    +0.000 OA
ENDBRANCH   1  24
TORSDOF 4
ENDMDL
MODEL 8
REMARK VINA RESULT:      -6.8      1.596      6.280
REMARK  Name = 
REMARK  6 active torsions:
REMARK  status: ('A' for Active; 'I' for Inactive)
REMARK    1  A    between atoms: C_1  and  O_2
REMARK    2  A    between atoms: O_2  and  C_3
REMARK    3  A    between atoms: C_13  and  C_14
REMARK    4  A    between atoms: C_17  and  O_18
REMARK    5  A    between atoms: O_18  and  C_19
REMARK    6  A    between atoms: C_20  and  O_21
REMARK                            x       y       z     vdW  Elec       q    Type
REMARK                         _______ _______ _______ _____ _____    ______ ____
ROOT
ATOM      1  C   UNL     1       6.541   5.611  16.210  0.00  0.00    +0.000 A 
ATOM      2  C   UNL     1       5.754   6.726  16.554  0.00  0.00    +0.000 A 
ATOM      3  C   UNL     1       4.795   6.649  17.571  0.00  0.00    +0.000 A 
ATOM      4  C   UNL     1       4.630   5.449  18.233  0.00  0.00    +0.000 A 
ATOM      5  C   UNL     1       5.436   4.355  17.906  0.00  0.00    +0.000 A 
ATOM      6  C   UNL     1       6.385   4.405  16.903  0.00  0.00    +0.000 A 
ATOM      7  N   UNL     1       5.139   3.267  18.725  0.00  0.00    +0.000 N 
ATOM      8  C   UNL     1       4.135   3.574  19.632  0.00  0.00    +0.000 C 
ATOM      9  O   UNL     1       3.653   2.849  20.478  0.00  0.00    +0.000 OA
ATOM     10  C   UNL     1       3.750   4.996  19.314  0.00  0.00    +0.000 C 
ATOM     11  C   UNL     1       2.715   5.582  19.932  0.00  0.00    +0.000 C 
ATOM     12  H   UNL     1       5.585   2.362  18.692  0.00  0.00    +0.000 HD
ENDROOT
BRANCH  11  13
ATOM     13  C   UNL     1       2.173   6.891  19.570  0.00  0.00    +0.000 A 
ATOM     14  C   UNL     1       2.186   7.283  18.226  0.00  0.00    +0.000 A 
ATOM     15  C   UNL     1       1.774   8.566  17.851  0.00  0.00    +0.000 A 
ATOM     16  C   UNL     1       1.340   9.468  18.820  0.00  0.00    +0.000 A 
ATOM     17  C   UNL     1       1.301   9.052  20.158  0.00  0.00    +0.000 A 
ATOM     18  C   UNL     1       1.707   7.778  20.543  0.00  0.00    +0.000 A 
BRANCH  16  19
ATOM     19  O   UNL     1       0.947  10.762  18.594  0.00  0.00    +0.000 OA
ATOM     20  C   UNL     1       1.991  11.721  18.450  0.00  0.00    +0.000 C 
ENDBRANCH  16  19
BRANCH  17  21
ATOM     21  O   UNL     1       0.879   9.916  21.134  0.00  0.00    +0.000 OA
ATOM     22  H   UNL     1       0.087   9.495  21.522  0.00  0.00    +0.000 HD
ENDBRANCH  17  21
ENDBRANCH  11  13
BRANCH   1  24
ATOM     23  C   UNL     1       7.162   4.855  14.049  0.00  0.00    +0.000 C 
ATOM     24  O   UNL     1       7.489   5.594  15.222  0.00  0.00    +0.000 OA
ENDBRANCH   1  24
TORSDOF 4
ENDMDL
MODEL 9
REMARK VINA RESULT:      -6.8      3.577      6.548
REMARK  Name = 
REMARK  6 active torsions:
REMARK  status: ('A' for Active; 'I' for Inactive)
REMARK    1  A    between atoms: C_1  and  O_2
REMARK    2  A    between atoms: O_2  and  C_3
REMARK    3  A    between atoms: C_13  and  C_14
REMARK    4  A    between atoms: C_17  and  O_18
REMARK    5  A    between atoms: O_18  and  C_19
REMARK    6  A    between atoms: C_20  and  O_21
REMARK                            x       y       z     vdW  Elec       q    Type
REMARK                         _______ _______ _______ _____ _____    ______ ____
ROOT
ATOM      1  C   UNL     1       7.634   6.853  18.212  0.00  0.00    +0.000 A 
ATOM      2  C   UNL     1       6.737   6.082  18.974  0.00  0.00    +0.000 A 
ATOM      3  C   UNL     1       5.852   5.186  18.363  0.00  0.00    +0.000 A 
ATOM      4  C   UNL     1       5.871   5.075  16.987  0.00  0.00    +0.000 A 
ATOM      5  C   UNL     1       6.785   5.823  16.239  0.00  0.00    +0.000 A 
ATOM      6  C   UNL     1       7.665   6.717  16.819  0.00  0.00    +0.000 A 
ATOM      7  N   UNL     1       6.669   5.522  14.882  0.00  0.00    +0.000 N 
ATOM      8  C   UNL     1       5.687   4.569  14.657  0.00  0.00    +0.000 C 
ATOM      9  O   UNL     1       5.343   4.096  13.593  0.00  0.00    +0.000 OA
ATOM     10  C   UNL     1       5.114   4.276  16.020  0.00  0.00    +0.000 C 
ATOM     11  C   UNL     1       4.051   3.471  16.159  0.00  0.00    +0.000 C 
ATOM     12  H   UNL     1       7.219   5.924  14.138  0.00  0.00    +0.000 HD
ENDROOT
BRANCH  11  13
ATOM     13  C   UNL     1       3.334   3.264  17.417  0.00  0.00    +0.000 A 
ATOM     14  C   UNL     1       3.329   1.987  17.993  0.00  0.00    +0.000 A 
ATOM     15  C   UNL     1       2.571   1.722  19.138  0.00  0.00    +0.000 A 
ATOM     16  C   UNL     1       1.813   2.736  19.720  0.00  0.00    +0.000 A 
ATOM     17  C   UNL     1       1.851   4.017  19.152  0.00  0.00    +0.000 A 
ATOM     18  C   UNL     1       2.604   4.292  18.014  0.00  0.00    +0.000 A 
BRANCH  16  19
ATOM     19  O   UNL     1       1.000   2.602  20.816  0.00  0.00    +0.000 OA
ATOM     20  C   UNL     1       1.652   2.560  22.083  0.00  0.00    +0.000 C 
ENDBRANCH  16  19
BRANCH  17  21
ATOM     21  O   UNL     1       1.117   5.034  19.702  0.00  0.00    +0.000 OA
ATOM     22  H   UNL     1       1.530   5.206  20.571  0.00  0.00    +0.000 HD
ENDBRANCH  17  21
ENDBRANCH  11  13
BRANCH   1  24
ATOM     23  C   UNL     1       8.411   9.095  18.236  0.00  0.00    +0.000 C 
ATOM     24  O   UNL     1       8.522   7.761  18.726  0.00  0.00    +0.000 OA
ENDBRANCH   1  24
TORSDOF 4
ENDMDL
