MODEL 1
REMARK VINA RESULT:      -8.8      0.000      0.000
REMARK  Name = 
REMARK  6 active torsions:
REMARK  status: ('A' for Active; 'I' for Inactive)
REMARK    1  A    between atoms: C_2  and  C_3
REMARK    2  A    between atoms: C_8  and  C_9
REMARK    3  A    between atoms: C_12  and  C_13
REMARK    4  A    between atoms: C_13  and  S_14
REMARK    5  A    between atoms: S_14  and  C_15
REMARK    6  A    between atoms: C_17  and  C_18
REMARK                            x       y       z     vdW  Elec       q    Type
REMARK                         _______ _______ _______ _____ _____    ______ ____
ROOT
ATOM      1  C   UNL     1       1.861   7.550  20.314  0.00  0.00    +0.000 C 
ENDROOT
BRANCH   1   5
ATOM      2  C   UNL     1      -0.610  10.856  21.937  0.00  0.00    +0.000 A 
ATOM      3  C   UNL     1      -0.461  10.603  20.564  0.00  0.00    +0.000 A 
ATOM      4  C   UNL     1       0.317   9.535  20.064  0.00  0.00    +0.000 A 
ATOM      5  C   UNL     1       0.967   8.641  20.914  0.00  0.00    +0.000 A 
ATOM      6  C   UNL     1       0.690   8.773  22.284  0.00  0.00    +0.000 A 
ATOM      7  C   UNL     1      -0.065   9.874  22.783  0.00  0.00    +0.000 A 
BRANCH   2  13
ATOM      8  C   UNL     1      -0.682  13.402  22.408  0.00  0.00    +0.000 A 
ATOM      9  C   UNL     1      -1.320  14.540  22.966  0.00  0.00    +0.000 A 
ATOM     10  C   UNL     1      -2.546  14.427  23.603  0.00  0.00    +0.000 A 
ATOM     11  C   UNL     1      -3.145  13.175  23.682  0.00  0.00    +0.000 A 
ATOM     12  C   UNL     1      -2.527  12.049  23.123  0.00  0.00    +0.000 A 
ATOM     13  C   UNL     1      -1.268  12.110  22.467  0.00  0.00    +0.000 A 
BRANCH   8  15
ATOM     14  N   UNL     1       1.647  13.835  21.347  0.00  0.00    +0.000 NA
ATOM     15  C   UNL     1       0.591  13.665  21.796  0.00  0.00    +0.000 C 
ENDBRANCH   8  15
ENDBRANCH   2  13
ENDBRANCH   1   5
BRANCH   1  16
ATOM     16  S   UNL     1       2.392   7.916  18.473  0.00  0.00    +0.000 S 
BRANCH  16  17
ATOM     17  C   UNL     1       3.081   6.354  17.857  0.00  0.00    +0.000 A 
ATOM     18  N   UNL     1       2.228   5.353  18.114  0.00  0.00    +0.000 NA
ATOM     19  C   UNL     1       2.635   4.113  17.777  0.00  0.00    +0.000 A 
ATOM     20  N   UNL     1       3.578   3.893  16.867  0.00  0.00    +0.000 NA
ATOM     21  C   UNL     1       4.544   4.779  16.845  0.00  0.00    +0.000 A 
ATOM     22  C   UNL     1       5.739   4.212  16.437  0.00  0.00    +0.000 A 
ATOM     23  C   UNL     1       6.935   4.893  16.528  0.00  0.00    +0.000 A 
ATOM     24  C   UNL     1       6.896   6.216  16.934  0.00  0.00    +0.000 A 
ATOM     25  C   UNL     1       5.667   6.826  17.313  0.00  0.00    +0.000 A 
ATOM     26  C   UNL     1       4.422   6.090  17.353  0.00  0.00    +0.000 A 
BRANCH  19  27
ATOM     27  C   UNL     1       2.462   2.987  18.810  0.00  0.00    +0.000 C 
ATOM     28 CL   UNL     1       3.443   1.536  18.408  0.00  0.00    +0.000 Cl
ATOM     29 CL   UNL     1       2.852   3.560  20.447  0.00  0.00    +0.000 Cl
ATOM     30 CL   UNL     1       0.724   2.409  18.796  0.00  0.00    +0.000 Cl
ENDBRANCH  19  27
ENDBRANCH  16  17
ENDBRANCH   1  16
TORSDOF 6
ENDMDL
MODEL 2
REMARK VINA RESULT:      -8.7      0.418      1.325
REMARK  Name = 
REMARK  6 active torsions:
REMARK  status: ('A' for Active; 'I' for Inactive)
REMARK    1  A    between atoms: C_2  and  C_3
REMARK    2  A    between atoms: C_8  and  C_9
REMARK    3  A    between atoms: C_12  and  C_13
REMARK    4  A    between atoms: C_13  and  S_14
REMARK    5  A    between atoms: S_14  and  C_15
REMARK    6  A    between atoms: C_17  and  C_18
REMARK                            x       y       z     vdW  Elec       q    Type
REMARK                         _______ _______ _______ _____ _____    ______ ____
ROOT
ATOM      1  C   UNL     1       1.844   7.657  20.229  0.00  0.00    +0.000 C 
ENDROOT
BRANCH   1   5
ATOM      2  C   UNL     1      -0.357  11.026  22.095  0.00  0.00    +0.000 A 
ATOM      3  C   UNL     1       0.110   9.914  22.814  0.00  0.00    +0.000 A 
ATOM      4  C   UNL     1       0.824   8.857  22.206  0.00  0.00    +0.000 A 
ATOM      5  C   UNL     1       1.136   8.869  20.847  0.00  0.00    +0.000 A 
ATOM      6  C   UNL     1       0.830  10.049  20.149  0.00  0.00    +0.000 A 
ATOM      7  C   UNL     1       0.078  11.094  20.759  0.00  0.00    +0.000 A 
BRANCH   2  13
ATOM      8  C   UNL     1      -0.991  13.433  22.812  0.00  0.00    +0.000 A 
ATOM      9  C   UNL     1      -1.883  14.346  23.432  0.00  0.00    +0.000 A 
ATOM     10  C   UNL     1      -3.089  13.912  23.962  0.00  0.00    +0.000 A 
ATOM     11  C   UNL     1      -3.412  12.563  23.870  0.00  0.00    +0.000 A 
ATOM     12  C   UNL     1      -2.542  11.659  23.249  0.00  0.00    +0.000 A 
ATOM     13  C   UNL     1      -1.292  12.050  22.697  0.00  0.00    +0.000 A 
BRANCH   8  15
ATOM     14  N   UNL     1       1.233  14.497  21.997  0.00  0.00    +0.000 NA
ATOM     15  C   UNL     1       0.228  14.019  22.326  0.00  0.00    +0.000 C 
ENDBRANCH   8  15
ENDBRANCH   2  13
ENDBRANCH   1   5
BRANCH   1  16
ATOM     16  S   UNL     1       2.359   7.935  18.368  0.00  0.00    +0.000 S 
BRANCH  16  17
ATOM     17  C   UNL     1       3.064   6.352  17.829  0.00  0.00    +0.000 A 
ATOM     18  N   UNL     1       2.203   5.361  18.095  0.00  0.00    +0.000 NA
ATOM     19  C   UNL     1       2.619   4.110  17.815  0.00  0.00    +0.000 A 
ATOM     20  N   UNL     1       3.589   3.858  16.942  0.00  0.00    +0.000 NA
ATOM     21  C   UNL     1       4.556   4.743  16.917  0.00  0.00    +0.000 A 
ATOM     22  C   UNL     1       5.761   4.161  16.566  0.00  0.00    +0.000 A 
ATOM     23  C   UNL     1       6.955   4.845  16.669  0.00  0.00    +0.000 A 
ATOM     24  C   UNL     1       6.905   6.182  17.027  0.00  0.00    +0.000 A 
ATOM     25  C   UNL     1       5.666   6.805  17.346  0.00  0.00    +0.000 A 
ATOM     26  C   UNL     1       4.420   6.070  17.375  0.00  0.00    +0.000 A 
BRANCH  19  27
ATOM     27  C   UNL     1       2.414   3.021  18.881  0.00  0.00    +0.000 C 
ATOM     28 CL   UNL     1       0.698   2.498  19.000  0.00  0.00    +0.000 Cl
ATOM     29 CL   UNL     1       3.463   1.620  18.568  0.00  0.00    +0.000 Cl
ATOM     30 CL   UNL     1       2.825   3.697  20.532  0.00  0.00    +0.000 Cl
ENDBRANCH  19  27
ENDBRANCH  16  17
ENDBRANCH   1  16
TORSDOF 6
ENDMDL
MODEL 3
REMARK VINA RESULT:      -8.7      4.528     10.114
REMARK  Name = 
REMARK  6 active torsions:
REMARK  status: ('A' for Active; 'I' for Inactive)
REMARK    1  A    between atoms: C_2  and  C_3
REMARK    2  A    between atoms: C_8  and  C_9
REMARK    3  A    between atoms: C_12  and  C_13
REMARK    4  A    between atoms: C_13  and  S_14
REMARK    5  A    between atoms: S_14  and  C_15
REMARK    6  A    between atoms: C_17  and  C_18
REMARK                            x       y       z     vdW  Elec       q    Type
REMARK                         _______ _______ _______ _____ _____    ______ ____
ROOT
ATOM      1  C   UNL     1       0.728   9.836  21.028  0.00  0.00    +0.000 C 
ENDROOT
BRANCH   1   5
ATOM      2  C   UNL     1       2.843   6.966  18.389  0.00  0.00    +0.000 A 
ATOM      3  C   UNL     1       2.491   6.680  19.719  0.00  0.00    +0.000 A 
ATOM      4  C   UNL     1       1.802   7.601  20.540  0.00  0.00    +0.000 A 
ATOM      5  C   UNL     1       1.402   8.849  20.067  0.00  0.00    +0.000 A 
ATOM      6  C   UNL     1       1.591   9.084  18.695  0.00  0.00    +0.000 A 
ATOM      7  C   UNL     1       2.318   8.167  17.882  0.00  0.00    +0.000 A 
BRANCH   2  13
ATOM      8  C   UNL     1       3.475   4.711  17.281  0.00  0.00    +0.000 A 
ATOM      9  C   UNL     1       4.386   3.898  16.559  0.00  0.00    +0.000 A 
ATOM     10  C   UNL     1       5.600   4.408  16.122  0.00  0.00    +0.000 A 
ATOM     11  C   UNL     1       5.906   5.735  16.400  0.00  0.00    +0.000 A 
ATOM     12  C   UNL     1       5.006   6.546  17.102  0.00  0.00    +0.000 A 
ATOM     13  C   UNL     1       3.754   6.071  17.579  0.00  0.00    +0.000 A 
BRANCH   8  15
ATOM     14  N   UNL     1       1.315   3.452  17.985  0.00  0.00    +0.000 NA
ATOM     15  C   UNL     1       2.267   4.046  17.687  0.00  0.00    +0.000 C 
ENDBRANCH   8  15
ENDBRANCH   2  13
ENDBRANCH   1   5
BRANCH   1  16
ATOM     16  S   UNL     1       0.700  11.666  20.355  0.00  0.00    +0.000 S 
BRANCH  16  17
ATOM     17  C   UNL     1      -1.054  12.048  20.089  0.00  0.00    +0.000 A 
ATOM     18  N   UNL     1      -1.488  12.868  21.056  0.00  0.00    +0.000 NA
ATOM     19  C   UNL     1      -2.798  13.185  21.033  0.00  0.00    +0.000 A 
ATOM     20  N   UNL     1      -3.537  13.094  19.932  0.00  0.00    +0.000 NA
ATOM     21  C   UNL     1      -3.233  12.093  19.142  0.00  0.00    +0.000 A 
ATOM     22  C   UNL     1      -4.344  11.642  18.451  0.00  0.00    +0.000 A 
ATOM     23  C   UNL     1      -4.318  10.474  17.717  0.00  0.00    +0.000 A 
ATOM     24  C   UNL     1      -3.106   9.817  17.592  0.00  0.00    +0.000 A 
ATOM     25  C   UNL     1      -1.944  10.295  18.260  0.00  0.00    +0.000 A 
ATOM     26  C   UNL     1      -1.981  11.442  19.143  0.00  0.00    +0.000 A 
BRANCH  19  27
ATOM     27  C   UNL     1      -3.590  13.095  22.349  0.00  0.00    +0.000 C 
ATOM     28 CL   UNL     1      -5.323  12.708  22.077  0.00  0.00    +0.000 Cl
ATOM     29 CL   UNL     1      -2.859  11.905  23.449  0.00  0.00    +0.000 Cl
ATOM     30 CL   UNL     1      -3.587  14.728  23.176  0.00  0.00    +0.000 Cl
ENDBRANCH  19  27
ENDBRANCH  16  17
ENDBRANCH   1  16
TORSDOF 6
ENDMDL
MODEL 4
REMARK VINA RESULT:      -8.6      4.369     10.225
REMARK  Name = 
REMARK  6 active torsions:
REMARK  status: ('A' for Active; 'I' for Inactive)
REMARK    1  A    between atoms: C_2  and  C_3
REMARK    2  A    between atoms: C_8  and  C_9
REMARK    3  A    between atoms: C_12  and  C_13
REMARK    4  A    between atoms: C_13  and  S_14
REMARK    5  A    between atoms: S_14  and  C_15
REMARK    6  A    between atoms: C_17  and  C_18
REMARK                            x       y       z     vdW  Elec       q    Type
REMARK                         _______ _______ _______ _____ _____    ______ ____
ROOT
ATOM      1  C   UNL     1       0.769   9.373  20.568  0.00  0.00    +0.000 C 
ENDROOT
BRANCH   1   5
ATOM      2  C   UNL     1       3.362   6.745  18.109  0.00  0.00    +0.000 A 
ATOM      3  C   UNL     1       2.923   6.411  19.400  0.00  0.00    +0.000 A 
ATOM      4  C   UNL     1       2.083   7.252  20.163  0.00  0.00    +0.000 A 
ATOM      5  C   UNL     1       1.612   8.465  19.664  0.00  0.00    +0.000 A 
ATOM      6  C   UNL     1       1.898   8.736  18.315  0.00  0.00    +0.000 A 
ATOM      7  C   UNL     1       2.775   7.901  17.564  0.00  0.00    +0.000 A 
BRANCH   2  13
ATOM      8  C   UNL     1       4.259   4.597  16.974  0.00  0.00    +0.000 A 
ATOM      9  C   UNL     1       5.301   3.877  16.333  0.00  0.00    +0.000 A 
ATOM     10  C   UNL     1       6.528   4.474  16.084  0.00  0.00    +0.000 A 
ATOM     11  C   UNL     1       6.718   5.797  16.469  0.00  0.00    +0.000 A 
ATOM     12  C   UNL     1       5.690   6.516  17.091  0.00  0.00    +0.000 A 
ATOM     13  C   UNL     1       4.418   5.949  17.376  0.00  0.00    +0.000 A 
BRANCH   8  15
ATOM     14  N   UNL     1       2.044   3.300  17.364  0.00  0.00    +0.000 NA
ATOM     15  C   UNL     1       3.052   3.847  17.184  0.00  0.00    +0.000 C 
ENDBRANCH   8  15
ENDBRANCH   2  13
ENDBRANCH   1   5
BRANCH   1  16
ATOM     16  S   UNL     1       0.869  11.257  20.074  0.00  0.00    +0.000 S 
BRANCH  16  17
ATOM     17  C   UNL     1      -0.856  11.803  19.931  0.00  0.00    +0.000 A 
ATOM     18  N   UNL     1      -1.151  12.632  20.942  0.00  0.00    +0.000 NA
ATOM     19  C   UNL     1      -2.425  13.066  21.011  0.00  0.00    +0.000 A 
ATOM     20  N   UNL     1      -3.236  13.074  19.959  0.00  0.00    +0.000 NA
ATOM     21  C   UNL     1      -3.076  12.072  19.129  0.00  0.00    +0.000 A 
ATOM     22  C   UNL     1      -4.265  11.743  18.502  0.00  0.00    +0.000 A 
ATOM     23  C   UNL     1      -4.392  10.599  17.742  0.00  0.00    +0.000 A 
ATOM     24  C   UNL     1      -3.256   9.838  17.523  0.00  0.00    +0.000 A 
ATOM     25  C   UNL     1      -2.016  10.190  18.125  0.00  0.00    +0.000 A 
ATOM     26  C   UNL     1      -1.892  11.310  19.034  0.00  0.00    +0.000 A 
BRANCH  19  27
ATOM     27  C   UNL     1      -3.137  13.011  22.373  0.00  0.00    +0.000 C 
ATOM     28 CL   UNL     1      -2.854  14.492  23.352  0.00  0.00    +0.000 Cl
ATOM     29 CL   UNL     1      -4.881  12.734  22.166  0.00  0.00    +0.000 Cl
ATOM     30 CL   UNL     1      -2.446  11.639  23.369  0.00  0.00    +0.000 Cl
ENDBRANCH  19  27
ENDBRANCH  16  17
ENDBRANCH   1  16
TORSDOF 6
ENDMDL
MODEL 5
REMARK VINA RESULT:      -8.6      4.566      9.930
REMARK  Name = 
REMARK  6 active torsions:
REMARK  status: ('A' for Active; 'I' for Inactive)
REMARK    1  A    between atoms: C_2  and  C_3
REMARK    2  A    between atoms: C_8  and  C_9
REMARK    3  A    between atoms: C_12  and  C_13
REMARK    4  A    between atoms: C_13  and  S_14
REMARK    5  A    between atoms: S_14  and  C_15
REMARK    6  A    between atoms: C_17  and  C_18
REMARK                            x       y       z     vdW  Elec       q    Type
REMARK                         _______ _______ _______ _____ _____    ______ ____
ROOT
ATOM      1  C   UNL     1       1.383  10.385  18.904  0.00  0.00    +0.000 C 
ENDROOT
BRANCH   1   5
ATOM      2  C   UNL     1       2.530   6.100  18.892  0.00  0.00    +0.000 A 
ATOM      3  C   UNL     1       2.765   6.968  17.813  0.00  0.00    +0.000 A 
ATOM      4  C   UNL     1       2.408   8.334  17.840  0.00  0.00    +0.000 A 
ATOM      5  C   UNL     1       1.821   8.917  18.962  0.00  0.00    +0.000 A 
ATOM      6  C   UNL     1       1.736   8.110  20.109  0.00  0.00    +0.000 A 
ATOM      7  C   UNL     1       2.064   6.724  20.063  0.00  0.00    +0.000 A 
BRANCH   2  13
ATOM      8  C   UNL     1       3.965   3.946  18.976  0.00  0.00    +0.000 A 
ATOM      9  C   UNL     1       4.103   2.542  18.819  0.00  0.00    +0.000 A 
ATOM     10  C   UNL     1       3.015   1.757  18.466  0.00  0.00    +0.000 A 
ATOM     11  C   UNL     1       1.783   2.371  18.273  0.00  0.00    +0.000 A 
ATOM     12  C   UNL     1       1.638   3.754  18.437  0.00  0.00    +0.000 A 
ATOM     13  C   UNL     1       2.721   4.604  18.790  0.00  0.00    +0.000 A 
BRANCH   8  15
ATOM     14  N   UNL     1       6.143   5.235  19.559  0.00  0.00    +0.000 NA
ATOM     15  C   UNL     1       5.178   4.634  19.325  0.00  0.00    +0.000 C 
ENDBRANCH   8  15
ENDBRANCH   2  13
ENDBRANCH   1   5
BRANCH   1  16
ATOM     16  S   UNL     1       0.689  11.048  20.601  0.00  0.00    +0.000 S 
BRANCH  16  17
ATOM     17  C   UNL     1      -0.968  11.686  20.220  0.00  0.00    +0.000 A 
ATOM     18  N   UNL     1      -1.346  12.552  21.170  0.00  0.00    +0.000 NA
ATOM     19  C   UNL     1      -2.590  13.058  21.062  0.00  0.00    +0.000 A 
ATOM     20  N   UNL     1      -3.253  13.088  19.911  0.00  0.00    +0.000 NA
ATOM     21  C   UNL     1      -3.042  12.060  19.124  0.00  0.00    +0.000 A 
ATOM     22  C   UNL     1      -4.154  11.784  18.348  0.00  0.00    +0.000 A 
ATOM     23  C   UNL     1      -4.246  10.632  17.595  0.00  0.00    +0.000 A 
ATOM     24  C   UNL     1      -3.136   9.804  17.541  0.00  0.00    +0.000 A 
ATOM     25  C   UNL     1      -1.969  10.101  18.299  0.00  0.00    +0.000 A 
ATOM     26  C   UNL     1      -1.902  11.232  19.199  0.00  0.00    +0.000 A 
BRANCH  19  27
ATOM     27  C   UNL     1      -3.480  13.073  22.317  0.00  0.00    +0.000 C 
ATOM     28 CL   UNL     1      -2.923  11.901  23.561  0.00  0.00    +0.000 Cl
ATOM     29 CL   UNL     1      -3.573  14.708  23.009  0.00  0.00    +0.000 Cl
ATOM     30 CL   UNL     1      -5.172  12.533  21.872  0.00  0.00    +0.000 Cl
ENDBRANCH  19  27
ENDBRANCH  16  17
ENDBRANCH   1  16
TORSDOF 6
ENDMDL
MODEL 6
REMARK VINA RESULT:      -8.5      0.772      1.160
REMARK  Name = 
REMARK  6 active torsions:
REMARK  status: ('A' for Active; 'I' for Inactive)
REMARK    1  A    between atoms: C_2  and  C_3
REMARK    2  A    between atoms: C_8  and  C_9
REMARK    3  A    between atoms: C_12  and  C_13
REMARK    4  A    between atoms: C_13  and  S_14
REMARK    5  A    between atoms: S_14  and  C_15
REMARK    6  A    between atoms: C_17  and  C_18
REMARK                            x       y       z     vdW  Elec       q    Type
REMARK                         _______ _______ _______ _____ _____    ______ ____
ROOT
ATOM      1  C   UNL     1       1.485   7.749  20.514  0.00  0.00    +0.000 C 
ENDROOT
BRANCH   1   5
ATOM      2  C   UNL     1      -0.653  11.199  22.302  0.00  0.00    +0.000 A 
ATOM      3  C   UNL     1      -0.255  10.070  23.036  0.00  0.00    +0.000 A 
ATOM      4  C   UNL     1       0.441   8.987  22.454  0.00  0.00    +0.000 A 
ATOM      5  C   UNL     1       0.802   8.986  21.108  0.00  0.00    +0.000 A 
ATOM      6  C   UNL     1       0.565  10.176  20.400  0.00  0.00    +0.000 A 
ATOM      7  C   UNL     1      -0.168  11.249  20.983  0.00  0.00    +0.000 A 
BRANCH   2  13
ATOM      8  C   UNL     1      -1.229  13.631  22.982  0.00  0.00    +0.000 A 
ATOM      9  C   UNL     1      -2.107  14.577  23.571  0.00  0.00    +0.000 A 
ATOM     10  C   UNL     1      -3.339  14.187  24.073  0.00  0.00    +0.000 A 
ATOM     11  C   UNL     1      -3.703  12.848  23.984  0.00  0.00    +0.000 A 
ATOM     12  C   UNL     1      -2.846  11.911  23.393  0.00  0.00    +0.000 A 
ATOM     13  C   UNL     1      -1.571  12.258  22.871  0.00  0.00    +0.000 A 
BRANCH   8  15
ATOM     14  N   UNL     1       1.059  14.555  22.172  0.00  0.00    +0.000 NA
ATOM     15  C   UNL     1       0.020  14.173  22.523  0.00  0.00    +0.000 C 
ENDBRANCH   8  15
ENDBRANCH   2  13
ENDBRANCH   1   5
BRANCH   1  16
ATOM     16  S   UNL     1       2.245   8.064  18.746  0.00  0.00    +0.000 S 
BRANCH  16  17
ATOM     17  C   UNL     1       2.887   6.453  18.210  0.00  0.00    +0.000 A 
ATOM     18  N   UNL     1       2.163   5.472  18.767  0.00  0.00    +0.000 NA
ATOM     19  C   UNL     1       2.567   4.210  18.518  0.00  0.00    +0.000 A 
ATOM     20  N   UNL     1       3.319   3.894  17.469  0.00  0.00    +0.000 NA
ATOM     21  C   UNL     1       4.206   4.798  17.131  0.00  0.00    +0.000 A 
ATOM     22  C   UNL     1       5.325   4.215  16.562  0.00  0.00    +0.000 A 
ATOM     23  C   UNL     1       6.473   4.939  16.313  0.00  0.00    +0.000 A 
ATOM     24  C   UNL     1       6.439   6.304  16.542  0.00  0.00    +0.000 A 
ATOM     25  C   UNL     1       5.278   6.923  17.084  0.00  0.00    +0.000 A 
ATOM     26  C   UNL     1       4.112   6.162  17.477  0.00  0.00    +0.000 A 
BRANCH  19  27
ATOM     27  C   UNL     1       2.671   3.235  19.702  0.00  0.00    +0.000 C 
ATOM     28 CL   UNL     1       4.305   2.500  19.839  0.00  0.00    +0.000 Cl
ATOM     29 CL   UNL     1       2.228   4.036  21.226  0.00  0.00    +0.000 Cl
ATOM     30 CL   UNL     1       1.532   1.826  19.435  0.00  0.00    +0.000 Cl
ENDBRANCH  19  27
ENDBRANCH  16  17
ENDBRANCH   1  16
TORSDOF 6
ENDMDL
MODEL 7
REMARK VINA RESULT:      -8.5      1.979      3.355
REMARK  Name = 
REMARK  6 active torsions:
REMARK  status: ('A' for Active; 'I' for Inactive)
REMARK    1  A    between atoms: C_2  and  C_3
REMARK    2  A    between atoms: C_8  and  C_9
REMARK    3  A    between atoms: C_12  and  C_13
REMARK    4  A    between atoms: C_13  and  S_14
REMARK    5  A    between atoms: S_14  and  C_15
REMARK    6  A    between atoms: C_17  and  C_18
REMARK                            x       y       z     vdW  Elec       q    Type
REMARK                         _______ _______ _______ _____ _____    ______ ____
ROOT
ATOM      1  C   UNL     1       1.212   7.537  21.105  0.00  0.00    +0.000 C 
ENDROOT
BRANCH   1   5
ATOM      2  C   UNL     1      -0.878  11.269  22.280  0.00  0.00    +0.000 A 
ATOM      3  C   UNL     1      -0.449  10.299  23.201  0.00  0.00    +0.000 A 
ATOM      4  C   UNL     1       0.231   9.123  22.810  0.00  0.00    +0.000 A 
ATOM      5  C   UNL     1       0.544   8.867  21.477  0.00  0.00    +0.000 A 
ATOM      6  C   UNL     1       0.278   9.901  20.565  0.00  0.00    +0.000 A 
ATOM      7  C   UNL     1      -0.439  11.067  20.959  0.00  0.00    +0.000 A 
BRANCH   2  13
ATOM      8  C   UNL     1      -1.356  13.772  22.746  0.00  0.00    +0.000 A 
ATOM      9  C   UNL     1      -2.229  14.808  23.166  0.00  0.00    +0.000 A 
ATOM     10  C   UNL     1      -3.538  14.531  23.531  0.00  0.00    +0.000 A 
ATOM     11  C   UNL     1      -3.983  13.215  23.472  0.00  0.00    +0.000 A 
ATOM     12  C   UNL     1      -3.130  12.189  23.047  0.00  0.00    +0.000 A 
ATOM     13  C   UNL     1      -1.779  12.419  22.670  0.00  0.00    +0.000 A 
BRANCH   8  15
ATOM     14  N   UNL     1       1.068  14.538  22.214  0.00  0.00    +0.000 NA
ATOM     15  C   UNL     1      -0.025  14.202  22.416  0.00  0.00    +0.000 C 
ENDBRANCH   8  15
ENDBRANCH   2  13
ENDBRANCH   1   5
BRANCH   1  16
ATOM     16  S   UNL     1       2.201   7.617  19.426  0.00  0.00    +0.000 S 
BRANCH  16  17
ATOM     17  C   UNL     1       3.046   6.016  19.296  0.00  0.00    +0.000 A 
ATOM     18  N   UNL     1       4.295   6.201  18.846  0.00  0.00    +0.000 NA
ATOM     19  C   UNL     1       5.027   5.090  18.628  0.00  0.00    +0.000 A 
ATOM     20  N   UNL     1       4.755   3.928  19.213  0.00  0.00    +0.000 NA
ATOM     21  C   UNL     1       3.479   3.681  19.387  0.00  0.00    +0.000 A 
ATOM     22  C   UNL     1       3.218   2.323  19.341  0.00  0.00    +0.000 A 
ATOM     23  C   UNL     1       1.930   1.832  19.295  0.00  0.00    +0.000 A 
ATOM     24  C   UNL     1       0.889   2.736  19.415  0.00  0.00    +0.000 A 
ATOM     25  C   UNL     1       1.144   4.133  19.509  0.00  0.00    +0.000 A 
ATOM     26  C   UNL     1       2.482   4.679  19.424  0.00  0.00    +0.000 A 
BRANCH  19  27
ATOM     27  C   UNL     1       5.800   4.979  17.304  0.00  0.00    +0.000 C 
ATOM     28 CL   UNL     1       7.530   4.562  17.557  0.00  0.00    +0.000 Cl
ATOM     29 CL   UNL     1       5.035   3.796  16.219  0.00  0.00    +0.000 Cl
ATOM     30 CL   UNL     1       5.816   6.607  16.467  0.00  0.00    +0.000 Cl
ENDBRANCH  19  27
ENDBRANCH  16  17
ENDBRANCH   1  16
TORSDOF 6
ENDMDL
MODEL 8
REMARK VINA RESULT:      -8.4      2.142      3.188
REMARK  Name = 
REMARK  6 active torsions:
REMARK  status: ('A' for Active; 'I' for Inactive)
REMARK    1  A    between atoms: C_2  and  C_3
REMARK    2  A    between atoms: C_8  and  C_9
REMARK    3  A    between atoms: C_12  and  C_13
REMARK    4  A    between atoms: C_13  and  S_14
REMARK    5  A    between atoms: S_14  and  C_15
REMARK    6  A    between atoms: C_17  and  C_18
REMARK                            x       y       z     vdW  Elec       q    Type
REMARK                         _______ _______ _______ _____ _____    ______ ____
ROOT
ATOM      1  C   UNL     1       1.688   7.766  20.983  0.00  0.00    +0.000 C 
ENDROOT
BRANCH   1   5
ATOM      2  C   UNL     1      -0.964  11.140  22.107  0.00  0.00    +0.000 A 
ATOM      3  C   UNL     1      -0.585  10.860  20.783  0.00  0.00    +0.000 A 
ATOM      4  C   UNL     1       0.247   9.771  20.442  0.00  0.00    +0.000 A 
ATOM      5  C   UNL     1       0.725   8.882  21.404  0.00  0.00    +0.000 A 
ATOM      6  C   UNL     1       0.219   9.044  22.704  0.00  0.00    +0.000 A 
ATOM      7  C   UNL     1      -0.590  10.165  23.049  0.00  0.00    +0.000 A 
BRANCH   2  13
ATOM      8  C   UNL     1      -1.075  13.698  22.497  0.00  0.00    +0.000 A 
ATOM      9  C   UNL     1      -1.776  14.857  22.920  0.00  0.00    +0.000 A 
ATOM     10  C   UNL     1      -3.088  14.771  23.362  0.00  0.00    +0.000 A 
ATOM     11  C   UNL     1      -3.708  13.527  23.378  0.00  0.00    +0.000 A 
ATOM     12  C   UNL     1      -3.026  12.381  22.951  0.00  0.00    +0.000 A 
ATOM     13  C   UNL     1      -1.679  12.413  22.497  0.00  0.00    +0.000 A 
BRANCH   8  15
ATOM     14  N   UNL     1       1.352  14.154  21.694  0.00  0.00    +0.000 NA
ATOM     15  C   UNL     1       0.281  13.933  22.083  0.00  0.00    +0.000 C 
ENDBRANCH   8  15
ENDBRANCH   2  13
ENDBRANCH   1   5
BRANCH   1  16
ATOM     16  S   UNL     1       2.041   7.737  19.065  0.00  0.00    +0.000 S 
BRANCH  16  17
ATOM     17  C   UNL     1       3.111   6.295  18.800  0.00  0.00    +0.000 A 
ATOM     18  N   UNL     1       4.347   6.704  18.483  0.00  0.00    +0.000 NA
ATOM     19  C   UNL     1       5.241   5.740  18.185  0.00  0.00    +0.000 A 
ATOM     20  N   UNL     1       5.099   4.483  18.590  0.00  0.00    +0.000 NA
ATOM     21  C   UNL     1       3.863   4.048  18.625  0.00  0.00    +0.000 A 
ATOM     22  C   UNL     1       3.801   2.687  18.383  0.00  0.00    +0.000 A 
ATOM     23  C   UNL     1       2.601   2.042  18.167  0.00  0.00    +0.000 A 
ATOM     24  C   UNL     1       1.436   2.776  18.316  0.00  0.00    +0.000 A 
ATOM     25  C   UNL     1       1.485   4.167  18.610  0.00  0.00    +0.000 A 
ATOM     26  C   UNL     1       2.734   4.891  18.707  0.00  0.00    +0.000 A 
BRANCH  19  27
ATOM     27  C   UNL     1       6.106   5.917  16.926  0.00  0.00    +0.000 C 
ATOM     28 CL   UNL     1       6.920   4.391  16.438  0.00  0.00    +0.000 Cl
ATOM     29 CL   UNL     1       5.141   6.559  15.578  0.00  0.00    +0.000 Cl
ATOM     30 CL   UNL     1       7.464   7.093  17.279  0.00  0.00    +0.000 Cl
ENDBRANCH  19  27
ENDBRANCH  16  17
ENDBRANCH   1  16
TORSDOF 6
ENDMDL
MODEL 9
REMARK VINA RESULT:      -8.3      2.073      3.416
REMARK  Name = 
REMARK  6 active torsions:
REMARK  status: ('A' for Active; 'I' for Inactive)
REMARK    1  A    between atoms: C_2  and  C_3
REMARK    2  A    between atoms: C_8  and  C_9
REMARK    3  A    between atoms: C_12  and  C_13
REMARK    4  A    between atoms: C_13  and  S_14
REMARK    5  A    between atoms: S_14  and  C_15
REMARK    6  A    between atoms: C_17  and  C_18
REMARK                            x       y       z     vdW  Elec       q    Type
REMARK                         _______ _______ _______ _____ _____    ______ ____
ROOT
ATOM      1  C   UNL     1       1.072   7.959  21.213  0.00  0.00    +0.000 C 
ENDROOT
BRANCH   1   5
ATOM      2  C   UNL     1      -1.245  11.629  22.129  0.00  0.00    +0.000 A 
ATOM      3  C   UNL     1      -0.801  10.728  23.111  0.00  0.00    +0.000 A 
ATOM      4  C   UNL     1      -0.049   9.572  22.803  0.00  0.00    +0.000 A 
ATOM      5  C   UNL     1       0.325   9.268  21.495  0.00  0.00    +0.000 A 
ATOM      6  C   UNL     1       0.039  10.242  20.524  0.00  0.00    +0.000 A 
ATOM      7  C   UNL     1      -0.750  11.387  20.836  0.00  0.00    +0.000 A 
BRANCH   2  13
ATOM      8  C   UNL     1      -1.832  14.090  22.685  0.00  0.00    +0.000 A 
ATOM      9  C   UNL     1      -2.780  15.093  23.013  0.00  0.00    +0.000 A 
ATOM     10  C   UNL     1      -4.130  14.791  23.108  0.00  0.00    +0.000 A 
ATOM     11  C   UNL     1      -4.540  13.484  22.869  0.00  0.00    +0.000 A 
ATOM     12  C   UNL     1      -3.612  12.491  22.533  0.00  0.00    +0.000 A 
ATOM     13  C   UNL     1      -2.217  12.747  22.431  0.00  0.00    +0.000 A 
BRANCH   8  15
ATOM     14  N   UNL     1       0.616  14.956  22.648  0.00  0.00    +0.000 NA
ATOM     15  C   UNL     1      -0.468  14.542  22.640  0.00  0.00    +0.000 C 
ENDBRANCH   8  15
ENDBRANCH   2  13
ENDBRANCH   1   5
BRANCH   1  16
ATOM     16  S   UNL     1       1.942   7.931  19.468  0.00  0.00    +0.000 S 
BRANCH  16  17
ATOM     17  C   UNL     1       2.855   6.363  19.417  0.00  0.00    +0.000 A 
ATOM     18  N   UNL     1       3.998   6.529  18.739  0.00  0.00    +0.000 NA
ATOM     19  C   UNL     1       4.754   5.429  18.554  0.00  0.00    +0.000 A 
ATOM     20  N   UNL     1       4.656   4.355  19.330  0.00  0.00    +0.000 NA
ATOM     21  C   UNL     1       3.444   4.086  19.753  0.00  0.00    +0.000 A 
ATOM     22  C   UNL     1       3.267   2.726  19.940  0.00  0.00    +0.000 A 
ATOM     23  C   UNL     1       2.022   2.183  20.184  0.00  0.00    +0.000 A 
ATOM     24  C   UNL     1       0.959   3.054  20.355  0.00  0.00    +0.000 A 
ATOM     25  C   UNL     1       1.137   4.458  20.211  0.00  0.00    +0.000 A 
ATOM     26  C   UNL     1       2.405   5.038  19.823  0.00  0.00    +0.000 A 
BRANCH  19  27
ATOM     27  C   UNL     1       5.305   5.155  17.144  0.00  0.00    +0.000 C 
ATOM     28 CL   UNL     1       5.091   6.559  16.043  0.00  0.00    +0.000 Cl
ATOM     29 CL   UNL     1       7.018   4.683  17.213  0.00  0.00    +0.000 Cl
ATOM     30 CL   UNL     1       4.358   3.792  16.372  0.00  0.00    +0.000 Cl
ENDBRANCH  19  27
ENDBRANCH  16  17
ENDBRANCH   1  16
TORSDOF 6
ENDMDL
