MODEL 1
REMARK VINA RESULT:      -7.8      0.000      0.000
REMARK  Name = 
REMARK  3 active torsions:
REMARK  status: ('A' for Active; 'I' for Inactive)
REMARK    1  A    between atoms: C_1  and  C_2
REMARK    2  A    between atoms: C_6  and  O_7
REMARK    3  A    between atoms: C_9  and  C_10
REMARK                            x       y       z     vdW  Elec       q    Type
REMARK                         _______ _______ _______ _____ _____    ______ ____
ROOT
ATOM      1  C   UNL     1       5.623   3.577  12.632  0.00  0.00    +0.000 C 
ATOM      2  C   UNL     1       5.959   4.047  14.016  0.00  0.00    +0.000 A 
ATOM      3  C   UNL     1       7.134   4.733  14.261  0.00  0.00    +0.000 A 
ATOM      4  C   UNL     1       7.373   5.178  15.551  0.00  0.00    +0.000 A 
ATOM      5  C   UNL     1       6.432   4.927  16.572  0.00  0.00    +0.000 A 
ATOM      6  C   UNL     1       6.572   5.341  17.907  0.00  0.00    +0.000 A 
ATOM      7  C   UNL     1       5.611   5.022  18.850  0.00  0.00    +0.000 A 
ATOM      8  C   UNL     1       4.519   4.271  18.451  0.00  0.00    +0.000 A 
ATOM      9  N   UNL     1       4.348   3.901  17.158  0.00  0.00    +0.000 NA
ATOM     10  C   UNL     1       5.268   4.210  16.239  0.00  0.00    +0.000 A 
ATOM     11  N   UNL     1       5.048   3.797  14.987  0.00  0.00    +0.000 NA
ENDROOT
BRANCH   8  12
ATOM     12  C   UNL     1       3.507   3.777  19.409  0.00  0.00    +0.000 A 
ATOM     13  C   UNL     1       3.809   2.755  20.329  0.00  0.00    +0.000 A 
ATOM     14  C   UNL     1       2.865   2.319  21.266  0.00  0.00    +0.000 A 
ATOM     15  C   UNL     1       1.606   2.905  21.295  0.00  0.00    +0.000 A 
ATOM     16  F   UNL     1       0.709   2.506  22.205  0.00  0.00    +0.000 F 
ATOM     17  C   UNL     1       1.271   3.910  20.401  0.00  0.00    +0.000 A 
ATOM     18  C   UNL     1       2.215   4.342  19.466  0.00  0.00    +0.000 A 
ENDBRANCH   8  12
BRANCH   6  19
ATOM     19  O   UNL     1       7.636   6.058  18.386  0.00  0.00    +0.000 OA
ATOM     20  H   UNL     1       7.377   6.974  18.560  0.00  0.00    +0.000 HD
ENDBRANCH   6  19
TORSDOF 2
ENDMDL
MODEL 2
REMARK VINA RESULT:      -7.7      0.178      1.119
REMARK  Name = 
REMARK  3 active torsions:
REMARK  status: ('A' for Active; 'I' for Inactive)
REMARK    1  A    between atoms: C_1  and  C_2
REMARK    2  A    between atoms: C_6  and  O_7
REMARK    3  A    between atoms: C_9  and  C_10
REMARK                            x       y       z     vdW  Elec       q    Type
REMARK                         _______ _______ _______ _____ _____    ______ ____
ROOT
ATOM      1  C   UNL     1       5.540   3.570  12.798  0.00  0.00    +0.000 C 
ATOM      2  C   UNL     1       5.908   4.060  14.167  0.00  0.00    +0.000 A 
ATOM      3  C   UNL     1       7.098   4.731  14.378  0.00  0.00    +0.000 A 
ATOM      4  C   UNL     1       7.367   5.196  15.655  0.00  0.00    +0.000 A 
ATOM      5  C   UNL     1       6.441   4.979  16.697  0.00  0.00    +0.000 A 
ATOM      6  C   UNL     1       6.611   5.415  18.022  0.00  0.00    +0.000 A 
ATOM      7  C   UNL     1       5.662   5.129  18.987  0.00  0.00    +0.000 A 
ATOM      8  C   UNL     1       4.552   4.389  18.622  0.00  0.00    +0.000 A 
ATOM      9  N   UNL     1       4.352   3.998  17.339  0.00  0.00    +0.000 NA
ATOM     10  C   UNL     1       5.260   4.275  16.398  0.00  0.00    +0.000 A 
ATOM     11  N   UNL     1       5.011   3.843  15.158  0.00  0.00    +0.000 NA
ENDROOT
BRANCH   8  12
ATOM     12  C   UNL     1       3.550   3.929  19.606  0.00  0.00    +0.000 A 
ATOM     13  C   UNL     1       2.277   4.528  19.690  0.00  0.00    +0.000 A 
ATOM     14  C   UNL     1       1.314   4.062  20.591  0.00  0.00    +0.000 A 
ATOM     15  C   UNL     1       1.610   2.987  21.419  0.00  0.00    +0.000 A 
ATOM     16  F   UNL     1       0.682   2.525  22.266  0.00  0.00    +0.000 F 
ATOM     17  C   UNL     1       2.854   2.376  21.370  0.00  0.00    +0.000 A 
ATOM     18  C   UNL     1       3.815   2.845  20.470  0.00  0.00    +0.000 A 
ENDBRANCH   8  12
BRANCH   6  19
ATOM     19  O   UNL     1       7.695   6.123  18.468  0.00  0.00    +0.000 OA
ATOM     20  H   UNL     1       8.039   5.737  19.286  0.00  0.00    +0.000 HD
ENDBRANCH   6  19
TORSDOF 2
ENDMDL
MODEL 3
REMARK VINA RESULT:      -7.6      4.717      7.069
REMARK  Name = 
REMARK  3 active torsions:
REMARK  status: ('A' for Active; 'I' for Inactive)
REMARK    1  A    between atoms: C_1  and  C_2
REMARK    2  A    between atoms: C_6  and  O_7
REMARK    3  A    between atoms: C_9  and  C_10
REMARK                            x       y       z     vdW  Elec       q    Type
REMARK                         _______ _______ _______ _____ _____    ______ ____
ROOT
ATOM      1  C   UNL     1      -0.105   9.640  23.462  0.00  0.00    +0.000 C 
ATOM      2  C   UNL     1       0.386   9.538  22.048  0.00  0.00    +0.000 A 
ATOM      3  C   UNL     1       0.313  10.625  21.198  0.00  0.00    +0.000 A 
ATOM      4  C   UNL     1       0.820  10.485  19.916  0.00  0.00    +0.000 A 
ATOM      5  C   UNL     1       1.389   9.260  19.509  0.00  0.00    +0.000 A 
ATOM      6  C   UNL     1       1.938   9.015  18.239  0.00  0.00    +0.000 A 
ATOM      7  C   UNL     1       2.446   7.769  17.918  0.00  0.00    +0.000 A 
ATOM      8  C   UNL     1       2.386   6.766  18.869  0.00  0.00    +0.000 A 
ATOM      9  N   UNL     1       1.899   6.998  20.113  0.00  0.00    +0.000 NA
ATOM     10  C   UNL     1       1.410   8.200  20.435  0.00  0.00    +0.000 A 
ATOM     11  N   UNL     1       0.927   8.355  21.671  0.00  0.00    +0.000 NA
ENDROOT
BRANCH   8  12
ATOM     12  C   UNL     1       2.788   5.374  18.576  0.00  0.00    +0.000 A 
ATOM     13  C   UNL     1       1.986   4.532  17.781  0.00  0.00    +0.000 A 
ATOM     14  C   UNL     1       2.390   3.230  17.467  0.00  0.00    +0.000 A 
ATOM     15  C   UNL     1       3.605   2.754  17.942  0.00  0.00    +0.000 A 
ATOM     16  F   UNL     1       4.004   1.516  17.624  0.00  0.00    +0.000 F 
ATOM     17  C   UNL     1       4.418   3.552  18.732  0.00  0.00    +0.000 A 
ATOM     18  C   UNL     1       4.012   4.851  19.045  0.00  0.00    +0.000 A 
ENDBRANCH   8  12
BRANCH   6  19
ATOM     19  O   UNL     1       2.005   9.944  17.236  0.00  0.00    +0.000 OA
ATOM     20  H   UNL     1       2.872   9.917  16.806  0.00  0.00    +0.000 HD
ENDBRANCH   6  19
TORSDOF 2
ENDMDL
MODEL 4
REMARK VINA RESULT:      -7.5      3.251      6.619
REMARK  Name = 
REMARK  3 active torsions:
REMARK  status: ('A' for Active; 'I' for Inactive)
REMARK    1  A    between atoms: C_1  and  C_2
REMARK    2  A    between atoms: C_6  and  O_7
REMARK    3  A    between atoms: C_9  and  C_10
REMARK                            x       y       z     vdW  Elec       q    Type
REMARK                         _______ _______ _______ _____ _____    ______ ____
ROOT
ATOM      1  C   UNL     1       0.649   2.411  18.991  0.00  0.00    +0.000 C 
ATOM      2  C   UNL     1       1.997   3.068  18.976  0.00  0.00    +0.000 A 
ATOM      3  C   UNL     1       2.535   3.595  20.136  0.00  0.00    +0.000 A 
ATOM      4  C   UNL     1       3.802   4.153  20.072  0.00  0.00    +0.000 A 
ATOM      5  C   UNL     1       4.505   4.174  18.849  0.00  0.00    +0.000 A 
ATOM      6  C   UNL     1       5.795   4.705  18.677  0.00  0.00    +0.000 A 
ATOM      7  C   UNL     1       6.396   4.711  17.431  0.00  0.00    +0.000 A 
ATOM      8  C   UNL     1       5.692   4.197  16.357  0.00  0.00    +0.000 A 
ATOM      9  N   UNL     1       4.465   3.642  16.514  0.00  0.00    +0.000 NA
ATOM     10  C   UNL     1       3.878   3.627  17.714  0.00  0.00    +0.000 A 
ATOM     11  N   UNL     1       2.660   3.083  17.796  0.00  0.00    +0.000 NA
ENDROOT
BRANCH   8  12
ATOM     12  C   UNL     1       6.200   4.273  14.970  0.00  0.00    +0.000 A 
ATOM     13  C   UNL     1       5.593   3.545  13.928  0.00  0.00    +0.000 A 
ATOM     14  C   UNL     1       6.046   3.653  12.608  0.00  0.00    +0.000 A 
ATOM     15  C   UNL     1       7.110   4.494  12.314  0.00  0.00    +0.000 A 
ATOM     16  F   UNL     1       7.531   4.617  11.048  0.00  0.00    +0.000 F 
ATOM     17  C   UNL     1       7.736   5.222  13.315  0.00  0.00    +0.000 A 
ATOM     18  C   UNL     1       7.283   5.112  14.631  0.00  0.00    +0.000 A 
ENDBRANCH   8  12
BRANCH   6  19
ATOM     19  O   UNL     1       6.542   5.258  19.683  0.00  0.00    +0.000 OA
ATOM     20  H   UNL     1       7.472   5.319  19.420  0.00  0.00    +0.000 HD
ENDBRANCH   6  19
TORSDOF 2
ENDMDL
MODEL 5
REMARK VINA RESULT:      -7.5      0.956      1.572
REMARK  Name = 
REMARK  3 active torsions:
REMARK  status: ('A' for Active; 'I' for Inactive)
REMARK    1  A    between atoms: C_1  and  C_2
REMARK    2  A    between atoms: C_6  and  O_7
REMARK    3  A    between atoms: C_9  and  C_10
REMARK                            x       y       z     vdW  Elec       q    Type
REMARK                         _______ _______ _______ _____ _____    ______ ____
ROOT
ATOM      1  C   UNL     1       5.726   2.954  11.871  0.00  0.00    +0.000 C 
ATOM      2  C   UNL     1       6.051   3.735  13.110  0.00  0.00    +0.000 A 
ATOM      3  C   UNL     1       7.144   4.582  13.140  0.00  0.00    +0.000 A 
ATOM      4  C   UNL     1       7.373   5.309  14.297  0.00  0.00    +0.000 A 
ATOM      5  C   UNL     1       6.505   5.173  15.402  0.00  0.00    +0.000 A 
ATOM      6  C   UNL     1       6.641   5.869  16.616  0.00  0.00    +0.000 A 
ATOM      7  C   UNL     1       5.759   5.648  17.658  0.00  0.00    +0.000 A 
ATOM      8  C   UNL     1       4.752   4.715  17.485  0.00  0.00    +0.000 A 
ATOM      9  N   UNL     1       4.582   4.068  16.305  0.00  0.00    +0.000 NA
ATOM     10  C   UNL     1       5.425   4.279  15.290  0.00  0.00    +0.000 A 
ATOM     11  N   UNL     1       5.212   3.593  14.163  0.00  0.00    +0.000 NA
ENDROOT
BRANCH   8  12
ATOM     12  C   UNL     1       3.841   4.322  18.581  0.00  0.00    +0.000 A 
ATOM     13  C   UNL     1       2.648   5.029  18.830  0.00  0.00    +0.000 A 
ATOM     14  C   UNL     1       1.765   4.629  19.838  0.00  0.00    +0.000 A 
ATOM     15  C   UNL     1       2.062   3.513  20.609  0.00  0.00    +0.000 A 
ATOM     16  F   UNL     1       1.207   3.114  21.560  0.00  0.00    +0.000 F 
ATOM     17  C   UNL     1       3.230   2.796  20.398  0.00  0.00    +0.000 A 
ATOM     18  C   UNL     1       4.111   3.199  19.391  0.00  0.00    +0.000 A 
ENDBRANCH   8  12
BRANCH   6  19
ATOM     19  O   UNL     1       7.628   6.782  16.875  0.00  0.00    +0.000 OA
ATOM     20  H   UNL     1       8.501   6.375  16.776  0.00  0.00    +0.000 HD
ENDBRANCH   6  19
TORSDOF 2
ENDMDL
MODEL 6
REMARK VINA RESULT:      -7.4      3.229      6.592
REMARK  Name = 
REMARK  3 active torsions:
REMARK  status: ('A' for Active; 'I' for Inactive)
REMARK    1  A    between atoms: C_1  and  C_2
REMARK    2  A    between atoms: C_6  and  O_7
REMARK    3  A    between atoms: C_9  and  C_10
REMARK                            x       y       z     vdW  Elec       q    Type
REMARK                         _______ _______ _______ _____ _____    ______ ____
ROOT
ATOM      1  C   UNL     1       0.598   2.499  19.113  0.00  0.00    +0.000 C 
ATOM      2  C   UNL     1       1.960   3.127  19.083  0.00  0.00    +0.000 A 
ATOM      3  C   UNL     1       2.532   3.621  20.241  0.00  0.00    +0.000 A 
ATOM      4  C   UNL     1       3.809   4.153  20.162  0.00  0.00    +0.000 A 
ATOM      5  C   UNL     1       4.489   4.180  18.926  0.00  0.00    +0.000 A 
ATOM      6  C   UNL     1       5.786   4.687  18.737  0.00  0.00    +0.000 A 
ATOM      7  C   UNL     1       6.363   4.702  17.480  0.00  0.00    +0.000 A 
ATOM      8  C   UNL     1       5.627   4.224  16.411  0.00  0.00    +0.000 A 
ATOM      9  N   UNL     1       4.391   3.692  16.582  0.00  0.00    +0.000 NA
ATOM     10  C   UNL     1       3.828   3.668  17.794  0.00  0.00    +0.000 A 
ATOM     11  N   UNL     1       2.600   3.149  17.890  0.00  0.00    +0.000 NA
ENDROOT
BRANCH   8  12
ATOM     12  C   UNL     1       6.109   4.314  15.016  0.00  0.00    +0.000 A 
ATOM     13  C   UNL     1       7.214   5.118  14.675  0.00  0.00    +0.000 A 
ATOM     14  C   UNL     1       7.698   5.167  13.363  0.00  0.00    +0.000 A 
ATOM     15  C   UNL     1       7.083   4.410  12.375  0.00  0.00    +0.000 A 
ATOM     16  F   UNL     1       7.558   4.438  11.123  0.00  0.00    +0.000 F 
ATOM     17  C   UNL     1       5.988   3.612  12.672  0.00  0.00    +0.000 A 
ATOM     18  C   UNL     1       5.507   3.566  13.983  0.00  0.00    +0.000 A 
ENDBRANCH   8  12
BRANCH   6  19
ATOM     19  O   UNL     1       6.564   5.206  19.738  0.00  0.00    +0.000 OA
ATOM     20  H   UNL     1       7.250   4.573  19.996  0.00  0.00    +0.000 HD
ENDBRANCH   6  19
TORSDOF 2
ENDMDL
MODEL 7
REMARK VINA RESULT:      -7.4      1.455      1.697
REMARK  Name = 
REMARK  3 active torsions:
REMARK  status: ('A' for Active; 'I' for Inactive)
REMARK    1  A    between atoms: C_1  and  C_2
REMARK    2  A    between atoms: C_6  and  O_7
REMARK    3  A    between atoms: C_9  and  C_10
REMARK                            x       y       z     vdW  Elec       q    Type
REMARK                         _______ _______ _______ _____ _____    ______ ____
ROOT
ATOM      1  C   UNL     1       5.867   2.801  11.654  0.00  0.00    +0.000 C 
ATOM      2  C   UNL     1       6.147   3.623  12.878  0.00  0.00    +0.000 A 
ATOM      3  C   UNL     1       7.289   4.399  12.958  0.00  0.00    +0.000 A 
ATOM      4  C   UNL     1       7.475   5.169  14.095  0.00  0.00    +0.000 A 
ATOM      5  C   UNL     1       6.517   5.146  15.130  0.00  0.00    +0.000 A 
ATOM      6  C   UNL     1       6.604   5.893  16.317  0.00  0.00    +0.000 A 
ATOM      7  C   UNL     1       5.631   5.784  17.294  0.00  0.00    +0.000 A 
ATOM      8  C   UNL     1       4.580   4.910  17.082  0.00  0.00    +0.000 A 
ATOM      9  N   UNL     1       4.458   4.215  15.924  0.00  0.00    +0.000 NA
ATOM     10  C   UNL     1       5.390   4.318  14.972  0.00  0.00    +0.000 A 
ATOM     11  N   UNL     1       5.220   3.590  13.865  0.00  0.00    +0.000 NA
ENDROOT
BRANCH   8  12
ATOM     12  C   UNL     1       3.561   4.633  18.118  0.00  0.00    +0.000 A 
ATOM     13  C   UNL     1       3.680   5.159  19.419  0.00  0.00    +0.000 A 
ATOM     14  C   UNL     1       2.693   4.935  20.385  0.00  0.00    +0.000 A 
ATOM     15  C   UNL     1       1.572   4.183  20.060  0.00  0.00    +0.000 A 
ATOM     16  F   UNL     1       0.615   3.986  20.976  0.00  0.00    +0.000 F 
ATOM     17  C   UNL     1       1.423   3.644  18.791  0.00  0.00    +0.000 A 
ATOM     18  C   UNL     1       2.411   3.869  17.829  0.00  0.00    +0.000 A 
ENDBRANCH   8  12
BRANCH   6  19
ATOM     19  O   UNL     1       7.628   6.754  16.613  0.00  0.00    +0.000 OA
ATOM     20  H   UNL     1       8.213   6.861  15.849  0.00  0.00    +0.000 HD
ENDBRANCH   6  19
TORSDOF 2
ENDMDL
MODEL 8
REMARK VINA RESULT:      -7.4      5.086      7.339
REMARK  Name = 
REMARK  3 active torsions:
REMARK  status: ('A' for Active; 'I' for Inactive)
REMARK    1  A    between atoms: C_1  and  C_2
REMARK    2  A    between atoms: C_6  and  O_7
REMARK    3  A    between atoms: C_9  and  C_10
REMARK                            x       y       z     vdW  Elec       q    Type
REMARK                         _______ _______ _______ _____ _____    ______ ____
ROOT
ATOM      1  C   UNL     1      -1.156  10.818  23.083  0.00  0.00    +0.000 C 
ATOM      2  C   UNL     1      -0.442  10.449  21.816  0.00  0.00    +0.000 A 
ATOM      3  C   UNL     1      -0.416  11.322  20.744  0.00  0.00    +0.000 A 
ATOM      4  C   UNL     1       0.292  10.946  19.614  0.00  0.00    +0.000 A 
ATOM      5  C   UNL     1       0.961   9.705  19.579  0.00  0.00    +0.000 A 
ATOM      6  C   UNL     1       1.714   9.233  18.490  0.00  0.00    +0.000 A 
ATOM      7  C   UNL     1       2.311   7.985  18.532  0.00  0.00    +0.000 A 
ATOM      8  C   UNL     1       2.135   7.207  19.662  0.00  0.00    +0.000 A 
ATOM      9  N   UNL     1       1.448   7.666  20.738  0.00  0.00    +0.000 NA
ATOM     10  C   UNL     1       0.873   8.872  20.709  0.00  0.00    +0.000 A 
ATOM     11  N   UNL     1       0.194   9.254  21.795  0.00  0.00    +0.000 NA
ENDROOT
BRANCH   8  12
ATOM     12  C   UNL     1       2.628   5.816  19.749  0.00  0.00    +0.000 A 
ATOM     13  C   UNL     1       3.725   5.379  18.981  0.00  0.00    +0.000 A 
ATOM     14  C   UNL     1       4.220   4.076  19.097  0.00  0.00    +0.000 A 
ATOM     15  C   UNL     1       3.624   3.192  19.987  0.00  0.00    +0.000 A 
ATOM     16  F   UNL     1       4.109   1.951  20.117  0.00  0.00    +0.000 F 
ATOM     17  C   UNL     1       2.538   3.584  20.755  0.00  0.00    +0.000 A 
ATOM     18  C   UNL     1       2.046   4.886  20.636  0.00  0.00    +0.000 A 
ENDBRANCH   8  12
BRANCH   6  19
ATOM     19  O   UNL     1       1.908   9.928  17.326  0.00  0.00    +0.000 OA
ATOM     20  H   UNL     1       2.817  10.259  17.276  0.00  0.00    +0.000 HD
ENDBRANCH   6  19
TORSDOF 2
ENDMDL
MODEL 9
REMARK VINA RESULT:      -7.2      3.555      6.881
REMARK  Name = 
REMARK  3 active torsions:
REMARK  status: ('A' for Active; 'I' for Inactive)
REMARK    1  A    between atoms: C_1  and  C_2
REMARK    2  A    between atoms: C_6  and  O_7
REMARK    3  A    between atoms: C_9  and  C_10
REMARK                            x       y       z     vdW  Elec       q    Type
REMARK                         _______ _______ _______ _____ _____    ______ ____
ROOT
ATOM      1  C   UNL     1       1.458   7.460  20.954  0.00  0.00    +0.000 C 
ATOM      2  C   UNL     1       1.849   6.152  20.331  0.00  0.00    +0.000 A 
ATOM      3  C   UNL     1       1.350   4.961  20.825  0.00  0.00    +0.000 A 
ATOM      4  C   UNL     1       1.713   3.787  20.184  0.00  0.00    +0.000 A 
ATOM      5  C   UNL     1       2.568   3.828  19.063  0.00  0.00    +0.000 A 
ATOM      6  C   UNL     1       2.989   2.701  18.337  0.00  0.00    +0.000 A 
ATOM      7  C   UNL     1       3.856   2.833  17.267  0.00  0.00    +0.000 A 
ATOM      8  C   UNL     1       4.312   4.097  16.940  0.00  0.00    +0.000 A 
ATOM      9  N   UNL     1       3.882   5.199  17.603  0.00  0.00    +0.000 NA
ATOM     10  C   UNL     1       3.040   5.082  18.634  0.00  0.00    +0.000 A 
ATOM     11  N   UNL     1       2.672   6.206  19.257  0.00  0.00    +0.000 NA
ENDROOT
BRANCH   8  12
ATOM     12  C   UNL     1       5.334   4.323  15.896  0.00  0.00    +0.000 A 
ATOM     13  C   UNL     1       5.208   3.755  14.613  0.00  0.00    +0.000 A 
ATOM     14  C   UNL     1       6.152   4.006  13.612  0.00  0.00    +0.000 A 
ATOM     15  C   UNL     1       7.235   4.833  13.881  0.00  0.00    +0.000 A 
ATOM     16  F   UNL     1       8.128   5.093  12.917  0.00  0.00    +0.000 F 
ATOM     17  C   UNL     1       7.396   5.404  15.134  0.00  0.00    +0.000 A 
ATOM     18  C   UNL     1       6.452   5.151  16.132  0.00  0.00    +0.000 A 
ENDBRANCH   8  12
BRANCH   6  19
ATOM     19  O   UNL     1       2.607   1.415  18.617  0.00  0.00    +0.000 OA
ATOM     20  H   UNL     1       1.862   1.410  19.235  0.00  0.00    +0.000 HD
ENDBRANCH   6  19
TORSDOF 2
ENDMDL
