MODEL 1
REMARK VINA RESULT:      -9.6      0.000      0.000
REMARK  Name = 
REMARK  5 active torsions:
REMARK  status: ('A' for Active; 'I' for Inactive)
REMARK    1  A    between atoms: C_4  and  C_5
REMARK    2  A    between atoms: N_10  and  C_11
REMARK    3  A    between atoms: N_20  and  C_21
REMARK    4  A    between atoms: C_21  and  C_22
REMARK    5  A    between atoms: C_21  and  C_30
REMARK                            x       y       z     vdW  Elec       q    Type
REMARK                         _______ _______ _______ _____ _____    ______ ____
ROOT
ATOM      1  O   UNL     1       2.183  10.086  17.353  0.00  0.00    +0.000 OA
ATOM      2  C   UNL     1       1.849   9.597  18.426  0.00  0.00    +0.000 A 
ATOM      3  C   UNL     1       2.276   8.210  18.745  0.00  0.00    +0.000 A 
ATOM      4  C   UNL     1       1.886   7.588  19.877  0.00  0.00    +0.000 A 
ATOM      5  C   UNL     1       1.112   8.343  20.839  0.00  0.00    +0.000 A 
ATOM      6  C   UNL     1       0.714   9.587  20.572  0.00  0.00    +0.000 A 
ATOM      7  N   UNL     1       1.045  10.222  19.382  0.00  0.00    +0.000 N 
ENDROOT
BRANCH   4   8
ATOM      8  C   UNL     1       2.191   6.144  20.011  0.00  0.00    +0.000 A 
ATOM      9  C   UNL     1       1.423   5.284  20.763  0.00  0.00    +0.000 A 
ATOM     10  C   UNL     1       1.852   3.979  20.789  0.00  0.00    +0.000 A 
ATOM     11  N   UNL     1       2.958   3.545  20.159  0.00  0.00    +0.000 NA
ATOM     12  C   UNL     1       3.623   4.438  19.421  0.00  0.00    +0.000 A 
ATOM     13  N   UNL     1       4.743   4.005  18.772  0.00  0.00    +0.000 N 
ATOM     14  N   UNL     1       3.261   5.717  19.312  0.00  0.00    +0.000 NA
ATOM     15  H   UNL     1       5.119   3.128  19.099  0.00  0.00    +0.000 HD
BRANCH  13  16
ATOM     16  C   UNL     1       5.306   4.719  17.643  0.00  0.00    +0.000 C 
ATOM     17  C   UNL     1       5.439   3.762  16.455  0.00  0.00    +0.000 C 
ATOM     18  C   UNL     1       6.163   4.437  15.301  0.00  0.00    +0.000 C 
ATOM     19  O   UNL     1       7.429   4.941  15.722  0.00  0.00    +0.000 OA
ATOM     20  C   UNL     1       7.299   5.927  16.747  0.00  0.00    +0.000 C 
ATOM     21  C   UNL     1       6.667   5.323  17.991  0.00  0.00    +0.000 C 
ENDBRANCH  13  16
ENDBRANCH   4   8
BRANCH   7  22
ATOM     22  C   UNL     1       0.431  11.521  18.993  0.00  0.00    +0.000 C 
BRANCH  22  23
ATOM     23  C   UNL     1      -1.062  11.345  18.686  0.00  0.00    +0.000 A 
ATOM     24  C   UNL     1      -2.008  12.129  19.373  0.00  0.00    +0.000 A 
ATOM     25  C   UNL     1      -3.379  11.961  19.154  0.00  0.00    +0.000 A 
ATOM     26  C   UNL     1      -3.820  11.015  18.232  0.00  0.00    +0.000 A 
ATOM     27 CL   UNL     1      -5.508  10.803  17.973  0.00  0.00    +0.000 Cl
ATOM     28  C   UNL     1      -2.892  10.246  17.535  0.00  0.00    +0.000 A 
ATOM     29  F   UNL     1      -3.292   9.328  16.644  0.00  0.00    +0.000 F 
ATOM     30  C   UNL     1      -1.525  10.401  17.759  0.00  0.00    +0.000 A 
ENDBRANCH  22  23
BRANCH  22  31
ATOM     31  C   UNL     1       0.680  12.723  19.967  0.00  0.00    +0.000 C 
ATOM     32  C   UNL     1       0.841  14.053  19.232  0.00  0.00    +0.000 C 
ATOM     33  C   UNL     1       1.666  14.904  20.171  0.00  0.00    +0.000 C 
ATOM     34  C   UNL     1       2.498  13.914  20.963  0.00  0.00    +0.000 C 
ATOM     35  N   UNL     1       1.941  12.586  20.718  0.00  0.00    +0.000 NA
ATOM     36  H   UNL     1       1.802  12.072  21.586  0.00  0.00    +0.000 HD
ENDBRANCH  22  31
ENDBRANCH   7  22
TORSDOF 5
ENDMDL
MODEL 2
REMARK VINA RESULT:      -9.5      0.807      1.155
REMARK  Name = 
REMARK  5 active torsions:
REMARK  status: ('A' for Active; 'I' for Inactive)
REMARK    1  A    between atoms: C_4  and  C_5
REMARK    2  A    between atoms: N_10  and  C_11
REMARK    3  A    between atoms: N_20  and  C_21
REMARK    4  A    between atoms: C_21  and  C_22
REMARK    5  A    between atoms: C_21  and  C_30
REMARK                            x       y       z     vdW  Elec       q    Type
REMARK                         _______ _______ _______ _____ _____    ______ ____
ROOT
ATOM      1  O   UNL     1       2.161  10.027  17.315  0.00  0.00    +0.000 OA
ATOM      2  C   UNL     1       1.830   9.549  18.394  0.00  0.00    +0.000 A 
ATOM      3  C   UNL     1       2.274   8.171  18.732  0.00  0.00    +0.000 A 
ATOM      4  C   UNL     1       1.888   7.559  19.871  0.00  0.00    +0.000 A 
ATOM      5  C   UNL     1       1.103   8.317  20.822  0.00  0.00    +0.000 A 
ATOM      6  C   UNL     1       0.690   9.553  20.538  0.00  0.00    +0.000 A 
ATOM      7  N   UNL     1       1.016  10.176  19.340  0.00  0.00    +0.000 N 
ENDROOT
BRANCH   4   8
ATOM      8  C   UNL     1       2.211   6.121  20.025  0.00  0.00    +0.000 A 
ATOM      9  C   UNL     1       1.458   5.264  20.794  0.00  0.00    +0.000 A 
ATOM     10  C   UNL     1       1.902   3.964  20.837  0.00  0.00    +0.000 A 
ATOM     11  N   UNL     1       3.009   3.533  20.206  0.00  0.00    +0.000 NA
ATOM     12  C   UNL     1       3.659   4.423  19.451  0.00  0.00    +0.000 A 
ATOM     13  N   UNL     1       4.781   3.993  18.802  0.00  0.00    +0.000 N 
ATOM     14  N   UNL     1       3.282   5.696  19.325  0.00  0.00    +0.000 NA
ATOM     15  H   UNL     1       5.169   3.126  19.139  0.00  0.00    +0.000 HD
BRANCH  13  16
ATOM     16  C   UNL     1       5.328   4.697  17.659  0.00  0.00    +0.000 C 
ATOM     17  C   UNL     1       5.422   3.735  16.471  0.00  0.00    +0.000 C 
ATOM     18  C   UNL     1       6.130   4.398  15.299  0.00  0.00    +0.000 C 
ATOM     19  O   UNL     1       7.411   4.886  15.691  0.00  0.00    +0.000 OA
ATOM     20  C   UNL     1       7.317   5.875  16.716  0.00  0.00    +0.000 C 
ATOM     21  C   UNL     1       6.705   5.283  17.975  0.00  0.00    +0.000 C 
ENDBRANCH  13  16
ENDBRANCH   4   8
BRANCH   7  22
ATOM     22  C   UNL     1       0.387  11.462  18.932  0.00  0.00    +0.000 C 
BRANCH  22  23
ATOM     23  C   UNL     1      -1.119  11.280  18.701  0.00  0.00    +0.000 A 
ATOM     24  C   UNL     1      -1.567  10.304  17.790  0.00  0.00    +0.000 A 
ATOM     25  C   UNL     1      -2.930  10.145  17.518  0.00  0.00    +0.000 A 
ATOM     26  C   UNL     1      -3.862  10.949  18.167  0.00  0.00    +0.000 A 
ATOM     27 CL   UNL     1      -5.537  10.757  17.821  0.00  0.00    +0.000 Cl
ATOM     28  C   UNL     1      -3.431  11.905  19.082  0.00  0.00    +0.000 A 
ATOM     29  F   UNL     1      -4.310  12.692  19.718  0.00  0.00    +0.000 F 
ATOM     30  C   UNL     1      -2.073  12.078  19.347  0.00  0.00    +0.000 A 
ENDBRANCH  22  23
BRANCH  22  31
ATOM     31  C   UNL     1       0.682  12.697  19.851  0.00  0.00    +0.000 C 
ATOM     32  C   UNL     1       0.994  13.963  19.052  0.00  0.00    +0.000 C 
ATOM     33  C   UNL     1       1.835  14.800  19.990  0.00  0.00    +0.000 C 
ATOM     34  C   UNL     1       2.536  13.797  20.885  0.00  0.00    +0.000 C 
ATOM     35  N   UNL     1       1.884  12.505  20.682  0.00  0.00    +0.000 NA
ATOM     36  H   UNL     1       1.654  12.058  21.568  0.00  0.00    +0.000 HD
ENDBRANCH  22  31
ENDBRANCH   7  22
TORSDOF 5
ENDMDL
MODEL 3
REMARK VINA RESULT:      -9.2      1.409      1.654
REMARK  Name = 
REMARK  5 active torsions:
REMARK  status: ('A' for Active; 'I' for Inactive)
REMARK    1  A    between atoms: C_4  and  C_5
REMARK    2  A    between atoms: N_10  and  C_11
REMARK    3  A    between atoms: N_20  and  C_21
REMARK    4  A    between atoms: C_21  and  C_22
REMARK    5  A    between atoms: C_21  and  C_30
REMARK                            x       y       z     vdW  Elec       q    Type
REMARK                         _______ _______ _______ _____ _____    ______ ____
ROOT
ATOM      1  O   UNL     1       2.103   9.698  17.774  0.00  0.00    +0.000 OA
ATOM      2  C   UNL     1       1.900   9.003  18.763  0.00  0.00    +0.000 A 
ATOM      3  C   UNL     1       2.264   7.563  18.713  0.00  0.00    +0.000 A 
ATOM      4  C   UNL     1       2.004   6.728  19.741  0.00  0.00    +0.000 A 
ATOM      5  C   UNL     1       1.447   7.288  20.953  0.00  0.00    +0.000 A 
ATOM      6  C   UNL     1       1.110   8.577  21.019  0.00  0.00    +0.000 A 
ATOM      7  N   UNL     1       1.302   9.439  19.948  0.00  0.00    +0.000 N 
ENDROOT
BRANCH   4   8
ATOM      8  C   UNL     1       2.215   5.277  19.521  0.00  0.00    +0.000 A 
ATOM      9  C   UNL     1       1.367   4.315  20.019  0.00  0.00    +0.000 A 
ATOM     10  C   UNL     1       1.713   3.017  19.732  0.00  0.00    +0.000 A 
ATOM     11  N   UNL     1       2.815   2.674  19.039  0.00  0.00    +0.000 NA
ATOM     12  C   UNL     1       3.562   3.673  18.560  0.00  0.00    +0.000 A 
ATOM     13  N   UNL     1       4.678   3.336  17.851  0.00  0.00    +0.000 N 
ATOM     14  N   UNL     1       3.284   4.962  18.763  0.00  0.00    +0.000 NA
ATOM     15  H   UNL     1       4.987   2.382  17.959  0.00  0.00    +0.000 HD
BRANCH  13  16
ATOM     16  C   UNL     1       5.328   4.265  16.947  0.00  0.00    +0.000 C 
ATOM     17  C   UNL     1       5.681   3.539  15.645  0.00  0.00    +0.000 C 
ATOM     18  C   UNL     1       6.496   4.442  14.732  0.00  0.00    +0.000 C 
ATOM     19  O   UNL     1       7.657   4.925  15.403  0.00  0.00    +0.000 OA
ATOM     20  C   UNL     1       7.327   5.707  16.551  0.00  0.00    +0.000 C 
ATOM     21  C   UNL     1       6.586   4.863  17.576  0.00  0.00    +0.000 C 
ENDBRANCH  13  16
ENDBRANCH   4   8
BRANCH   7  22
ATOM     22  C   UNL     1       0.737  10.817  19.943  0.00  0.00    +0.000 C 
BRANCH  22  23
ATOM     23  C   UNL     1      -0.473  10.903  19.003  0.00  0.00    +0.000 A 
ATOM     24  C   UNL     1      -0.692  12.079  18.261  0.00  0.00    +0.000 A 
ATOM     25  C   UNL     1      -1.811  12.211  17.433  0.00  0.00    +0.000 A 
ATOM     26  C   UNL     1      -2.717  11.159  17.325  0.00  0.00    +0.000 A 
ATOM     27 CL   UNL     1      -4.099  11.329  16.313  0.00  0.00    +0.000 Cl
ATOM     28  C   UNL     1      -2.501   9.986  18.041  0.00  0.00    +0.000 A 
ATOM     29  F   UNL     1      -3.360   8.960  17.954  0.00  0.00    +0.000 F 
ATOM     30  C   UNL     1      -1.395   9.854  18.878  0.00  0.00    +0.000 A 
ENDBRANCH  22  23
BRANCH  22  31
ATOM     31  C   UNL     1       0.421  11.439  21.345  0.00  0.00    +0.000 C 
ATOM     32  C   UNL     1      -1.060  11.340  21.713  0.00  0.00    +0.000 C 
ATOM     33  C   UNL     1      -1.281  12.476  22.686  0.00  0.00    +0.000 C 
ATOM     34  C   UNL     1      -0.254  13.524  22.303  0.00  0.00    +0.000 C 
ATOM     35  N   UNL     1       0.695  12.887  21.392  0.00  0.00    +0.000 NA
ATOM     36  H   UNL     1       1.658  13.074  21.664  0.00  0.00    +0.000 HD
ENDBRANCH  22  31
ENDBRANCH   7  22
TORSDOF 5
ENDMDL
MODEL 4
REMARK VINA RESULT:      -9.1      0.708      1.057
REMARK  Name = 
REMARK  5 active torsions:
REMARK  status: ('A' for Active; 'I' for Inactive)
REMARK    1  A    between atoms: C_4  and  C_5
REMARK    2  A    between atoms: N_10  and  C_11
REMARK    3  A    between atoms: N_20  and  C_21
REMARK    4  A    between atoms: C_21  and  C_22
REMARK    5  A    between atoms: C_21  and  C_30
REMARK                            x       y       z     vdW  Elec       q    Type
REMARK                         _______ _______ _______ _____ _____    ______ ____
ROOT
ATOM      1  O   UNL     1       2.267   9.907  17.292  0.00  0.00    +0.000 OA
ATOM      2  C   UNL     1       1.935   9.438  18.375  0.00  0.00    +0.000 A 
ATOM      3  C   UNL     1       2.342   8.048  18.708  0.00  0.00    +0.000 A 
ATOM      4  C   UNL     1       1.953   7.448  19.852  0.00  0.00    +0.000 A 
ATOM      5  C   UNL     1       1.203   8.229  20.812  0.00  0.00    +0.000 A 
ATOM      6  C   UNL     1       0.824   9.477  20.533  0.00  0.00    +0.000 A 
ATOM      7  N   UNL     1       1.153  10.090  19.331  0.00  0.00    +0.000 N 
ENDROOT
BRANCH   4   8
ATOM      8  C   UNL     1       2.233   6.001  20.002  0.00  0.00    +0.000 A 
ATOM      9  C   UNL     1       1.383   5.138  20.654  0.00  0.00    +0.000 A 
ATOM     10  C   UNL     1       1.799   3.830  20.712  0.00  0.00    +0.000 A 
ATOM     11  N   UNL     1       2.966   3.395  20.203  0.00  0.00    +0.000 NA
ATOM     12  C   UNL     1       3.713   4.293  19.554  0.00  0.00    +0.000 A 
ATOM     13  N   UNL     1       4.897   3.859  19.029  0.00  0.00    +0.000 N 
ATOM     14  N   UNL     1       3.373   5.575  19.421  0.00  0.00    +0.000 NA
ATOM     15  H   UNL     1       5.230   2.976  19.385  0.00  0.00    +0.000 HD
BRANCH  13  16
ATOM     16  C   UNL     1       5.585   4.583  17.978  0.00  0.00    +0.000 C 
ATOM     17  C   UNL     1       6.449   5.682  18.604  0.00  0.00    +0.000 C 
ATOM     18  C   UNL     1       7.068   6.557  17.525  0.00  0.00    +0.000 C 
ATOM     19  O   UNL     1       6.062   7.094  16.670  0.00  0.00    +0.000 OA
ATOM     20  C   UNL     1       5.335   6.071  15.989  0.00  0.00    +0.000 C 
ATOM     21  C   UNL     1       4.595   5.191  16.984  0.00  0.00    +0.000 C 
ENDBRANCH  13  16
ENDBRANCH   4   8
BRANCH   7  22
ATOM     22  C   UNL     1       0.558  11.395  18.931  0.00  0.00    +0.000 C 
BRANCH  22  23
ATOM     23  C   UNL     1      -0.936  11.237  18.621  0.00  0.00    +0.000 A 
ATOM     24  C   UNL     1      -1.875  12.030  19.308  0.00  0.00    +0.000 A 
ATOM     25  C   UNL     1      -3.247  11.877  19.086  0.00  0.00    +0.000 A 
ATOM     26  C   UNL     1      -3.697  10.940  18.159  0.00  0.00    +0.000 A 
ATOM     27 CL   UNL     1      -5.386  10.748  17.897  0.00  0.00    +0.000 Cl
ATOM     28  C   UNL     1      -2.776  10.163  17.462  0.00  0.00    +0.000 A 
ATOM     29  F   UNL     1      -3.185   9.252  16.567  0.00  0.00    +0.000 F 
ATOM     30  C   UNL     1      -1.408  10.301  17.690  0.00  0.00    +0.000 A 
ENDBRANCH  22  23
BRANCH  22  31
ATOM     31  C   UNL     1       0.820  12.599  19.898  0.00  0.00    +0.000 C 
ATOM     32  C   UNL     1       0.980  13.926  19.155  0.00  0.00    +0.000 C 
ATOM     33  C   UNL     1       1.817  14.777  20.084  0.00  0.00    +0.000 C 
ATOM     34  C   UNL     1       2.651  13.787  20.874  0.00  0.00    +0.000 C 
ATOM     35  N   UNL     1       2.087  12.461  20.639  0.00  0.00    +0.000 NA
ATOM     36  H   UNL     1       1.953  11.950  21.510  0.00  0.00    +0.000 HD
ENDBRANCH  22  31
ENDBRANCH   7  22
TORSDOF 5
ENDMDL
MODEL 5
REMARK VINA RESULT:      -9.1      1.061      1.554
REMARK  Name = 
REMARK  5 active torsions:
REMARK  status: ('A' for Active; 'I' for Inactive)
REMARK    1  A    between atoms: C_4  and  C_5
REMARK    2  A    between atoms: N_10  and  C_11
REMARK    3  A    between atoms: N_20  and  C_21
REMARK    4  A    between atoms: C_21  and  C_22
REMARK    5  A    between atoms: C_21  and  C_30
REMARK                            x       y       z     vdW  Elec       q    Type
REMARK                         _______ _______ _______ _____ _____    ______ ____
ROOT
ATOM      1  O   UNL     1       2.244   9.859  17.272  0.00  0.00    +0.000 OA
ATOM      2  C   UNL     1       1.919   9.398  18.360  0.00  0.00    +0.000 A 
ATOM      3  C   UNL     1       2.341   8.017  18.708  0.00  0.00    +0.000 A 
ATOM      4  C   UNL     1       1.960   7.425  19.858  0.00  0.00    +0.000 A 
ATOM      5  C   UNL     1       1.202   8.207  20.811  0.00  0.00    +0.000 A 
ATOM      6  C   UNL     1       0.808   9.447  20.518  0.00  0.00    +0.000 A 
ATOM      7  N   UNL     1       1.129  10.051  19.310  0.00  0.00    +0.000 N 
ENDROOT
BRANCH   4   8
ATOM      8  C   UNL     1       2.258   5.982  20.023  0.00  0.00    +0.000 A 
ATOM      9  C   UNL     1       1.422   5.118  20.694  0.00  0.00    +0.000 A 
ATOM     10  C   UNL     1       1.853   3.816  20.764  0.00  0.00    +0.000 A 
ATOM     11  N   UNL     1       3.020   3.387  20.250  0.00  0.00    +0.000 NA
ATOM     12  C   UNL     1       3.751   4.284  19.582  0.00  0.00    +0.000 A 
ATOM     13  N   UNL     1       4.935   3.857  19.051  0.00  0.00    +0.000 N 
ATOM     14  N   UNL     1       3.396   5.561  19.437  0.00  0.00    +0.000 NA
ATOM     15  H   UNL     1       5.280   2.982  19.414  0.00  0.00    +0.000 HD
BRANCH  13  16
ATOM     16  C   UNL     1       5.604   4.575  17.985  0.00  0.00    +0.000 C 
ATOM     17  C   UNL     1       6.514   5.647  18.592  0.00  0.00    +0.000 C 
ATOM     18  C   UNL     1       7.118   6.518  17.501  0.00  0.00    +0.000 C 
ATOM     19  O   UNL     1       6.097   7.087  16.684  0.00  0.00    +0.000 OA
ATOM     20  C   UNL     1       5.325   6.088  16.018  0.00  0.00    +0.000 C 
ATOM     21  C   UNL     1       4.597   5.215  17.029  0.00  0.00    +0.000 C 
ENDBRANCH  13  16
ENDBRANCH   4   8
BRANCH   7  22
ATOM     22  C   UNL     1       0.519  11.345  18.897  0.00  0.00    +0.000 C 
BRANCH  22  23
ATOM     23  C   UNL     1      -0.987  11.180  18.654  0.00  0.00    +0.000 A 
ATOM     24  C   UNL     1      -1.440  10.217  17.733  0.00  0.00    +0.000 A 
ATOM     25  C   UNL     1      -2.803  10.074  17.451  0.00  0.00    +0.000 A 
ATOM     26  C   UNL     1      -3.731  10.884  18.101  0.00  0.00    +0.000 A 
ATOM     27 CL   UNL     1      -5.405  10.712  17.744  0.00  0.00    +0.000 Cl
ATOM     28  C   UNL     1      -3.294  11.827  19.026  0.00  0.00    +0.000 A 
ATOM     29  F   UNL     1      -4.169  12.618  19.663  0.00  0.00    +0.000 F 
ATOM     30  C   UNL     1      -1.937  11.983  19.301  0.00  0.00    +0.000 A 
ENDBRANCH  22  23
BRANCH  22  31
ATOM     31  C   UNL     1       0.822  12.577  19.816  0.00  0.00    +0.000 C 
ATOM     32  C   UNL     1       1.117  13.847  19.018  0.00  0.00    +0.000 C 
ATOM     33  C   UNL     1       1.968  14.684  19.946  0.00  0.00    +0.000 C 
ATOM     34  C   UNL     1       2.686  13.680  20.827  0.00  0.00    +0.000 C 
ATOM     35  N   UNL     1       2.037  12.387  20.628  0.00  0.00    +0.000 NA
ATOM     36  H   UNL     1       1.823  11.935  21.515  0.00  0.00    +0.000 HD
ENDBRANCH  22  31
ENDBRANCH   7  22
TORSDOF 5
ENDMDL
MODEL 6
REMARK VINA RESULT:      -9.0      2.541      3.907
REMARK  Name = 
REMARK  5 active torsions:
REMARK  status: ('A' for Active; 'I' for Inactive)
REMARK    1  A    between atoms: C_4  and  C_5
REMARK    2  A    between atoms: N_10  and  C_11
REMARK    3  A    between atoms: N_20  and  C_21
REMARK    4  A    between atoms: C_21  and  C_22
REMARK    5  A    between atoms: C_21  and  C_30
REMARK                            x       y       z     vdW  Elec       q    Type
REMARK                         _______ _______ _______ _____ _____    ______ ____
ROOT
ATOM      1  O   UNL     1       1.928   9.644  17.483  0.00  0.00    +0.000 OA
ATOM      2  C   UNL     1       1.752   9.115  18.574  0.00  0.00    +0.000 A 
ATOM      3  C   UNL     1       2.283   7.745  18.800  0.00  0.00    +0.000 A 
ATOM      4  C   UNL     1       2.064   7.079  19.952  0.00  0.00    +0.000 A 
ATOM      5  C   UNL     1       1.378   7.770  21.022  0.00  0.00    +0.000 A 
ATOM      6  C   UNL     1       0.890   8.998  20.841  0.00  0.00    +0.000 A 
ATOM      7  N   UNL     1       1.041   9.675  19.638  0.00  0.00    +0.000 N 
ENDROOT
BRANCH   4   8
ATOM      8  C   UNL     1       2.454   5.649  20.007  0.00  0.00    +0.000 A 
ATOM      9  C   UNL     1       1.778   4.719  20.763  0.00  0.00    +0.000 A 
ATOM     10  C   UNL     1       2.277   3.440  20.709  0.00  0.00    +0.000 A 
ATOM     11  N   UNL     1       3.367   3.093  20.000  0.00  0.00    +0.000 NA
ATOM     12  C   UNL     1       3.939   4.052  19.265  0.00  0.00    +0.000 A 
ATOM     13  N   UNL     1       5.042   3.708  18.537  0.00  0.00    +0.000 N 
ATOM     14  N   UNL     1       3.503   5.312  19.232  0.00  0.00    +0.000 NA
ATOM     15  H   UNL     1       5.482   2.841  18.804  0.00  0.00    +0.000 HD
BRANCH  13  16
ATOM     16  C   UNL     1       5.498   4.497  17.410  0.00  0.00    +0.000 C 
ATOM     17  C   UNL     1       5.657   3.588  16.188  0.00  0.00    +0.000 C 
ATOM     18  C   UNL     1       6.277   4.352  15.028  0.00  0.00    +0.000 C 
ATOM     19  O   UNL     1       7.515   4.944  15.416  0.00  0.00    +0.000 OA
ATOM     20  C   UNL     1       7.351   5.886  16.475  0.00  0.00    +0.000 C 
ATOM     21  C   UNL     1       6.821   5.198  17.724  0.00  0.00    +0.000 C 
ENDBRANCH  13  16
ENDBRANCH   4   8
BRANCH   7  22
ATOM     22  C   UNL     1       0.322  10.949  19.363  0.00  0.00    +0.000 C 
BRANCH  22  23
ATOM     23  C   UNL     1       1.276  12.146  19.473  0.00  0.00    +0.000 A 
ATOM     24  C   UNL     1       1.664  12.609  20.745  0.00  0.00    +0.000 A 
ATOM     25  C   UNL     1       2.493  13.727  20.883  0.00  0.00    +0.000 A 
ATOM     26  C   UNL     1       2.959  14.385  19.748  0.00  0.00    +0.000 A 
ATOM     27 CL   UNL     1       3.970  15.766  19.922  0.00  0.00    +0.000 Cl
ATOM     28  C   UNL     1       2.595  13.925  18.486  0.00  0.00    +0.000 A 
ATOM     29  F   UNL     1       3.030  14.544  17.379  0.00  0.00    +0.000 F 
ATOM     30  C   UNL     1       1.758  12.820  18.343  0.00  0.00    +0.000 A 
ENDBRANCH  22  23
BRANCH  22  31
ATOM     31  C   UNL     1      -0.513  11.000  18.038  0.00  0.00    +0.000 C 
ATOM     32  C   UNL     1      -1.719  11.934  18.139  0.00  0.00    +0.000 C 
ATOM     33  C   UNL     1      -2.695  11.397  17.116  0.00  0.00    +0.000 C 
ATOM     34  C   UNL     1      -2.386   9.916  17.022  0.00  0.00    +0.000 C 
ATOM     35  N   UNL     1      -1.110   9.696  17.700  0.00  0.00    +0.000 NA
ATOM     36  H   UNL     1      -0.477   9.134  17.134  0.00  0.00    +0.000 HD
ENDBRANCH  22  31
ENDBRANCH   7  22
TORSDOF 5
ENDMDL
MODEL 7
REMARK VINA RESULT:      -8.9      2.682      4.056
REMARK  Name = 
REMARK  5 active torsions:
REMARK  status: ('A' for Active; 'I' for Inactive)
REMARK    1  A    between atoms: C_4  and  C_5
REMARK    2  A    between atoms: N_10  and  C_11
REMARK    3  A    between atoms: N_20  and  C_21
REMARK    4  A    between atoms: C_21  and  C_22
REMARK    5  A    between atoms: C_21  and  C_30
REMARK                            x       y       z     vdW  Elec       q    Type
REMARK                         _______ _______ _______ _____ _____    ______ ____
ROOT
ATOM      1  O   UNL     1       1.850   9.588  17.476  0.00  0.00    +0.000 OA
ATOM      2  C   UNL     1       1.718   9.080  18.583  0.00  0.00    +0.000 A 
ATOM      3  C   UNL     1       2.256   7.714  18.813  0.00  0.00    +0.000 A 
ATOM      4  C   UNL     1       2.084   7.070  19.986  0.00  0.00    +0.000 A 
ATOM      5  C   UNL     1       1.442   7.782  21.069  0.00  0.00    +0.000 A 
ATOM      6  C   UNL     1       0.948   9.007  20.884  0.00  0.00    +0.000 A 
ATOM      7  N   UNL     1       1.051   9.662  19.664  0.00  0.00    +0.000 N 
ENDROOT
BRANCH   4   8
ATOM      8  C   UNL     1       2.475   5.641  20.052  0.00  0.00    +0.000 A 
ATOM      9  C   UNL     1       1.800   4.716  20.814  0.00  0.00    +0.000 A 
ATOM     10  C   UNL     1       2.300   3.438  20.771  0.00  0.00    +0.000 A 
ATOM     11  N   UNL     1       3.389   3.086  20.065  0.00  0.00    +0.000 NA
ATOM     12  C   UNL     1       3.961   4.039  19.323  0.00  0.00    +0.000 A 
ATOM     13  N   UNL     1       5.065   3.690  18.598  0.00  0.00    +0.000 N 
ATOM     14  N   UNL     1       3.525   5.299  19.279  0.00  0.00    +0.000 NA
ATOM     15  H   UNL     1       5.506   2.826  18.872  0.00  0.00    +0.000 HD
BRANCH  13  16
ATOM     16  C   UNL     1       5.521   4.471  17.466  0.00  0.00    +0.000 C 
ATOM     17  C   UNL     1       5.572   3.577  16.223  0.00  0.00    +0.000 C 
ATOM     18  C   UNL     1       6.188   4.323  15.050  0.00  0.00    +0.000 C 
ATOM     19  O   UNL     1       7.476   4.831  15.393  0.00  0.00    +0.000 OA
ATOM     20  C   UNL     1       7.415   5.761  16.474  0.00  0.00    +0.000 C 
ATOM     21  C   UNL     1       6.897   5.083  17.732  0.00  0.00    +0.000 C 
ENDBRANCH  13  16
ENDBRANCH   4   8
BRANCH   7  22
ATOM     22  C   UNL     1       0.322  10.931  19.394  0.00  0.00    +0.000 C 
BRANCH  22  23
ATOM     23  C   UNL     1       1.278  12.130  19.460  0.00  0.00    +0.000 A 
ATOM     24  C   UNL     1       1.841  12.633  18.272  0.00  0.00    +0.000 A 
ATOM     25  C   UNL     1       2.754  13.692  18.299  0.00  0.00    +0.000 A 
ATOM     26  C   UNL     1       3.102  14.272  19.517  0.00  0.00    +0.000 A 
ATOM     27 CL   UNL     1       4.234  15.568  19.548  0.00  0.00    +0.000 Cl
ATOM     28  C   UNL     1       2.537  13.793  20.695  0.00  0.00    +0.000 A 
ATOM     29  F   UNL     1       2.858  14.335  21.879  0.00  0.00    +0.000 F 
ATOM     30  C   UNL     1       1.638  12.729  20.675  0.00  0.00    +0.000 A 
ENDBRANCH  22  23
BRANCH  22  31
ATOM     31  C   UNL     1      -0.553  10.964  18.094  0.00  0.00    +0.000 C 
ATOM     32  C   UNL     1      -1.707  11.963  18.187  0.00  0.00    +0.000 C 
ATOM     33  C   UNL     1      -2.741  11.430  17.221  0.00  0.00    +0.000 C 
ATOM     34  C   UNL     1      -2.510   9.932  17.189  0.00  0.00    +0.000 C 
ATOM     35  N   UNL     1      -1.226   9.678  17.837  0.00  0.00    +0.000 NA
ATOM     36  H   UNL     1      -0.640   9.059  17.279  0.00  0.00    +0.000 HD
ENDBRANCH  22  31
ENDBRANCH   7  22
TORSDOF 5
ENDMDL
MODEL 8
REMARK VINA RESULT:      -8.8      2.763      4.178
REMARK  Name = 
REMARK  5 active torsions:
REMARK  status: ('A' for Active; 'I' for Inactive)
REMARK    1  A    between atoms: C_4  and  C_5
REMARK    2  A    between atoms: N_10  and  C_11
REMARK    3  A    between atoms: N_20  and  C_21
REMARK    4  A    between atoms: C_21  and  C_22
REMARK    5  A    between atoms: C_21  and  C_30
REMARK                            x       y       z     vdW  Elec       q    Type
REMARK                         _______ _______ _______ _____ _____    ______ ____
ROOT
ATOM      1  O   UNL     1       1.888   9.426  17.365  0.00  0.00    +0.000 OA
ATOM      2  C   UNL     1       1.786   8.928  18.480  0.00  0.00    +0.000 A 
ATOM      3  C   UNL     1       2.344   7.571  18.712  0.00  0.00    +0.000 A 
ATOM      4  C   UNL     1       2.205   6.937  19.895  0.00  0.00    +0.000 A 
ATOM      5  C   UNL     1       1.581   7.655  20.985  0.00  0.00    +0.000 A 
ATOM      6  C   UNL     1       1.070   8.873  20.799  0.00  0.00    +0.000 A 
ATOM      7  N   UNL     1       1.138   9.515  19.570  0.00  0.00    +0.000 N 
ENDROOT
BRANCH   4   8
ATOM      8  C   UNL     1       2.612   5.514  19.968  0.00  0.00    +0.000 A 
ATOM      9  C   UNL     1       1.862   4.554  20.608  0.00  0.00    +0.000 A 
ATOM     10  C   UNL     1       2.388   3.285  20.591  0.00  0.00    +0.000 A 
ATOM     11  N   UNL     1       3.567   2.974  20.021  0.00  0.00    +0.000 NA
ATOM     12  C   UNL     1       4.211   3.959  19.389  0.00  0.00    +0.000 A 
ATOM     13  N   UNL     1       5.405   3.651  18.803  0.00  0.00    +0.000 N 
ATOM     14  N   UNL     1       3.759   5.212  19.328  0.00  0.00    +0.000 NA
ATOM     15  H   UNL     1       5.824   2.785  19.105  0.00  0.00    +0.000 HD
BRANCH  13  16
ATOM     16  C   UNL     1       5.989   4.476  17.763  0.00  0.00    +0.000 C 
ATOM     17  C   UNL     1       6.698   5.672  18.407  0.00  0.00    +0.000 C 
ATOM     18  C   UNL     1       7.194   6.637  17.341  0.00  0.00    +0.000 C 
ATOM     19  O   UNL     1       6.124   7.048  16.493  0.00  0.00    +0.000 OA
ATOM     20  C   UNL     1       5.540   5.947  15.796  0.00  0.00    +0.000 C 
ATOM     21  C   UNL     1       4.925   4.961  16.777  0.00  0.00    +0.000 C 
ENDBRANCH  13  16
ENDBRANCH   4   8
BRANCH   7  22
ATOM     22  C   UNL     1       0.390  10.774  19.303  0.00  0.00    +0.000 C 
BRANCH  22  23
ATOM     23  C   UNL     1       1.322  11.989  19.403  0.00  0.00    +0.000 A 
ATOM     24  C   UNL     1       2.006  12.435  18.257  0.00  0.00    +0.000 A 
ATOM     25  C   UNL     1       2.901  13.508  18.323  0.00  0.00    +0.000 A 
ATOM     26  C   UNL     1       3.108  14.160  19.536  0.00  0.00    +0.000 A 
ATOM     27 CL   UNL     1       4.217  15.474  19.615  0.00  0.00    +0.000 Cl
ATOM     28  C   UNL     1       2.423  13.739  20.672  0.00  0.00    +0.000 A 
ATOM     29  F   UNL     1       2.608  14.350  21.850  0.00  0.00    +0.000 F 
ATOM     30  C   UNL     1       1.541  12.661  20.615  0.00  0.00    +0.000 A 
ENDBRANCH  22  23
BRANCH  22  31
ATOM     31  C   UNL     1      -0.459  10.809  17.987  0.00  0.00    +0.000 C 
ATOM     32  C   UNL     1      -1.518  11.912  17.999  0.00  0.00    +0.000 C 
ATOM     33  C   UNL     1      -2.584  11.419  17.047  0.00  0.00    +0.000 C 
ATOM     34  C   UNL     1      -2.491   9.906  17.107  0.00  0.00    +0.000 C 
ATOM     35  N   UNL     1      -1.244   9.576  17.793  0.00  0.00    +0.000 NA
ATOM     36  H   UNL     1      -0.711   8.874  17.283  0.00  0.00    +0.000 HD
ENDBRANCH  22  31
ENDBRANCH   7  22
TORSDOF 5
ENDMDL
MODEL 9
REMARK VINA RESULT:      -8.8      2.652      4.036
REMARK  Name = 
REMARK  5 active torsions:
REMARK  status: ('A' for Active; 'I' for Inactive)
REMARK    1  A    between atoms: C_4  and  C_5
REMARK    2  A    between atoms: N_10  and  C_11
REMARK    3  A    between atoms: N_20  and  C_21
REMARK    4  A    between atoms: C_21  and  C_22
REMARK    5  A    between atoms: C_21  and  C_30
REMARK                            x       y       z     vdW  Elec       q    Type
REMARK                         _______ _______ _______ _____ _____    ______ ____
ROOT
ATOM      1  O   UNL     1       1.954   9.468  17.413  0.00  0.00    +0.000 OA
ATOM      2  C   UNL     1       1.812   8.953  18.516  0.00  0.00    +0.000 A 
ATOM      3  C   UNL     1       2.368   7.595  18.749  0.00  0.00    +0.000 A 
ATOM      4  C   UNL     1       2.188   6.943  19.917  0.00  0.00    +0.000 A 
ATOM      5  C   UNL     1       1.519   7.642  20.993  0.00  0.00    +0.000 A 
ATOM      6  C   UNL     1       1.009   8.860  20.805  0.00  0.00    +0.000 A 
ATOM      7  N   UNL     1       1.121   9.521  19.589  0.00  0.00    +0.000 N 
ENDROOT
BRANCH   4   8
ATOM      8  C   UNL     1       2.598   5.520  19.983  0.00  0.00    +0.000 A 
ATOM      9  C   UNL     1       1.846   4.554  20.610  0.00  0.00    +0.000 A 
ATOM     10  C   UNL     1       2.376   3.287  20.589  0.00  0.00    +0.000 A 
ATOM     11  N   UNL     1       3.561   2.983  20.029  0.00  0.00    +0.000 NA
ATOM     12  C   UNL     1       4.207   3.975  19.409  0.00  0.00    +0.000 A 
ATOM     13  N   UNL     1       5.408   3.675  18.832  0.00  0.00    +0.000 N 
ATOM     14  N   UNL     1       3.752   5.227  19.352  0.00  0.00    +0.000 NA
ATOM     15  H   UNL     1       5.827   2.808  19.132  0.00  0.00    +0.000 HD
BRANCH  13  16
ATOM     16  C   UNL     1       5.998   4.508  17.803  0.00  0.00    +0.000 C 
ATOM     17  C   UNL     1       6.673   5.717  18.459  0.00  0.00    +0.000 C 
ATOM     18  C   UNL     1       7.174   6.690  17.402  0.00  0.00    +0.000 C 
ATOM     19  O   UNL     1       6.114   7.080  16.531  0.00  0.00    +0.000 OA
ATOM     20  C   UNL     1       5.565   5.968  15.824  0.00  0.00    +0.000 C 
ATOM     21  C   UNL     1       4.947   4.973  16.794  0.00  0.00    +0.000 C 
ENDBRANCH  13  16
ENDBRANCH   4   8
BRANCH   7  22
ATOM     22  C   UNL     1       0.377  10.780  19.313  0.00  0.00    +0.000 C 
BRANCH  22  23
ATOM     23  C   UNL     1       1.294  11.999  19.481  0.00  0.00    +0.000 A 
ATOM     24  C   UNL     1       1.477  12.558  20.760  0.00  0.00    +0.000 A 
ATOM     25  C   UNL     1       2.266  13.698  20.943  0.00  0.00    +0.000 A 
ATOM     26  C   UNL     1       2.896  14.284  19.848  0.00  0.00    +0.000 A 
ATOM     27 CL   UNL     1       3.858  15.692  20.075  0.00  0.00    +0.000 Cl
ATOM     28  C   UNL     1       2.736  13.729  18.582  0.00  0.00    +0.000 A 
ATOM     29  F   UNL     1       3.332  14.276  17.513  0.00  0.00    +0.000 F 
ATOM     30  C   UNL     1       1.940  12.601  18.392  0.00  0.00    +0.000 A 
ENDBRANCH  22  23
BRANCH  22  31
ATOM     31  C   UNL     1      -0.410  10.836  17.959  0.00  0.00    +0.000 C 
ATOM     32  C   UNL     1      -1.525  11.882  17.970  0.00  0.00    +0.000 C 
ATOM     33  C   UNL     1      -2.517  11.383  16.943  0.00  0.00    +0.000 C 
ATOM     34  C   UNL     1      -2.346   9.877  16.937  0.00  0.00    +0.000 C 
ATOM     35  N   UNL     1      -1.118   9.577  17.668  0.00  0.00    +0.000 NA
ATOM     36  H   UNL     1      -0.524   8.928  17.153  0.00  0.00    +0.000 HD
ENDBRANCH  22  31
ENDBRANCH   7  22
TORSDOF 5
ENDMDL
