MODEL 1
REMARK VINA RESULT:      -6.8      0.000      0.000
REMARK  Name = 
REMARK  8 active torsions:
REMARK  status: ('A' for Active; 'I' for Inactive)
REMARK    1  A    between atoms: C_1  and  C_2
REMARK    2  A    between atoms: C_2  and  C_3
REMARK    3  A    between atoms: C_3  and  C_4
REMARK    4  A    between atoms: C_3  and  N_5
REMARK    5  A    between atoms: C_14  and  C_15
REMARK    6  A    between atoms: C_16  and  C_17
REMARK    7  A    between atoms: C_27  and  O_28
REMARK    8  A    between atoms: O_28  and  C_29
REMARK                            x       y       z     vdW  Elec       q    Type
REMARK                         _______ _______ _______ _____ _____    ______ ____
ROOT
ATOM      1  N   UNL     1       0.665  13.510  19.613  0.00  0.00    +0.000 N 
ATOM      2  C   UNL     1      -0.614  13.000  19.734  0.00  0.00    +0.000 C 
ATOM      3  O   UNL     1      -1.510  13.081  18.908  0.00  0.00    +0.000 OA
ATOM      4  C   UNL     1      -0.672  12.328  21.105  0.00  0.00    +0.000 C 
ATOM      5  N   UNL     1       0.760  12.460  21.579  0.00  0.00    +0.000 NA
ATOM      6  C   UNL     1       1.399  13.038  20.632  0.00  0.00    +0.000 C 
ATOM      7  N   UNL     1       2.747  13.118  20.762  0.00  0.00    +0.000 N 
ATOM      8  C   UNL     1      -0.838  10.815  21.188  0.00  0.00    +0.000 A 
ATOM      9  C   UNL     1      -0.183   9.954  20.302  0.00  0.00    +0.000 A 
ATOM     10  C   UNL     1       0.639   8.959  20.841  0.00  0.00    +0.000 A 
ATOM     11  C   UNL     1       0.664   8.754  22.234  0.00  0.00    +0.000 A 
ATOM     12  C   UNL     1      -0.148   9.513  23.099  0.00  0.00    +0.000 A 
ATOM     13  C   UNL     1      -0.913  10.544  22.568  0.00  0.00    +0.000 A 
ATOM     14  C   UNL     1      -1.427  11.750  23.343  0.00  0.00    +0.000 C 
ATOM     15  C   UNL     1      -1.566  12.898  22.263  0.00  0.00    +0.000 C 
ATOM     16  C   UNL     1      -3.086  13.114  21.997  0.00  0.00    +0.000 C 
ATOM     17  C   UNL     1      -3.470  14.349  21.171  0.00  0.00    +0.000 C 
ATOM     18  C   UNL     1      -2.782  15.642  21.628  0.00  0.00    +0.000 C 
ATOM     19  C   UNL     1      -1.287  15.410  21.805  0.00  0.00    +0.000 C 
ATOM     20  C   UNL     1      -1.010  14.257  22.781  0.00  0.00    +0.000 C 
ATOM     21  H   UNL     1       3.000  12.464  21.501  0.00  0.00    +0.000 HD
ATOM     22  H   UNL     1       3.032  14.020  21.122  0.00  0.00    +0.000 HD
ENDROOT
BRANCH   1  23
ATOM     23  C   UNL     1       1.111  14.460  18.596  0.00  0.00    +0.000 C 
ATOM     24  C   UNL     1       2.499  14.096  18.074  0.00  0.00    +0.000 C 
BRANCH  23  26
ATOM     25  C   UNL     1      -0.081  16.772  18.643  0.00  0.00    +0.000 C 
ATOM     26  C   UNL     1       1.027  15.891  19.179  0.00  0.00    +0.000 C 
ENDBRANCH  23  26
ENDBRANCH   1  23
BRANCH  10  27
ATOM     27  C   UNL     1       1.579   8.293  19.972  0.00  0.00    +0.000 C 
ATOM     28  C   UNL     1       2.292   7.665  19.241  0.00  0.00    +0.000 C 
BRANCH  28  29
ATOM     29  C   UNL     1       3.125   6.892  18.360  0.00  0.00    +0.000 C 
ATOM     30  C   UNL     1       3.884   5.739  18.960  0.00  0.00    +0.000 C 
ATOM     31  C   UNL     1       2.741   5.473  18.025  0.00  0.00    +0.000 C 
ENDBRANCH  28  29
ENDBRANCH  10  27
BRANCH  18  32
ATOM     32  O   UNL     1      -3.240  16.119  22.894  0.00  0.00    +0.000 OA
ATOM     33  C   UNL     1      -4.624  16.411  22.950  0.00  0.00    +0.000 C 
ENDBRANCH  18  32
TORSDOF 5
ENDMDL
MODEL 2
REMARK VINA RESULT:      -6.3      7.540      9.969
REMARK  Name = 
REMARK  8 active torsions:
REMARK  status: ('A' for Active; 'I' for Inactive)
REMARK    1  A    between atoms: C_1  and  C_2
REMARK    2  A    between atoms: C_2  and  C_3
REMARK    3  A    between atoms: C_3  and  C_4
REMARK    4  A    between atoms: C_3  and  N_5
REMARK    5  A    between atoms: C_14  and  C_15
REMARK    6  A    between atoms: C_16  and  C_17
REMARK    7  A    between atoms: C_27  and  O_28
REMARK    8  A    between atoms: O_28  and  C_29
REMARK                            x       y       z     vdW  Elec       q    Type
REMARK                         _______ _______ _______ _____ _____    ______ ____
ROOT
ATOM      1  N   UNL     1       7.040  14.695  19.820  0.00  0.00    +0.000 N 
ATOM      2  C   UNL     1       7.904  14.370  20.848  0.00  0.00    +0.000 C 
ATOM      3  O   UNL     1       7.611  14.215  22.023  0.00  0.00    +0.000 OA
ATOM      4  C   UNL     1       9.289  14.252  20.212  0.00  0.00    +0.000 C 
ATOM      5  N   UNL     1       8.975  14.433  18.742  0.00  0.00    +0.000 NA
ATOM      6  C   UNL     1       7.705  14.571  18.661  0.00  0.00    +0.000 C 
ATOM      7  N   UNL     1       7.167  14.583  17.417  0.00  0.00    +0.000 N 
ATOM      8  C   UNL     1       9.978  12.893  20.170  0.00  0.00    +0.000 A 
ATOM      9  C   UNL     1       9.269  11.718  19.903  0.00  0.00    +0.000 A 
ATOM     10  C   UNL     1       9.692  10.926  18.830  0.00  0.00    +0.000 A 
ATOM     11  C   UNL     1      10.888  11.243  18.158  0.00  0.00    +0.000 A 
ATOM     12  C   UNL     1      11.689  12.329  18.564  0.00  0.00    +0.000 A 
ATOM     13  C   UNL     1      11.233  13.153  19.586  0.00  0.00    +0.000 A 
ATOM     14  C   UNL     1      11.663  14.596  19.813  0.00  0.00    +0.000 C 
ATOM     15  C   UNL     1      10.433  15.277  20.540  0.00  0.00    +0.000 C 
ATOM     16  C   UNL     1      10.832  15.503  22.029  0.00  0.00    +0.000 C 
ATOM     17  C   UNL     1       9.889  16.377  22.867  0.00  0.00    +0.000 C 
ATOM     18  C   UNL     1       9.481  17.687  22.181  0.00  0.00    +0.000 C 
ATOM     19  C   UNL     1       9.028  17.416  20.752  0.00  0.00    +0.000 C 
ATOM     20  C   UNL     1      10.112  16.681  19.950  0.00  0.00    +0.000 C 
ATOM     21  H   UNL     1       7.890  14.226  16.792  0.00  0.00    +0.000 HD
ATOM     22  H   UNL     1       7.006  15.528  17.092  0.00  0.00    +0.000 HD
ENDROOT
BRANCH   1  23
ATOM     23  C   UNL     1       5.666  15.168  19.980  0.00  0.00    +0.000 C 
ATOM     24  C   UNL     1       5.599  16.692  19.923  0.00  0.00    +0.000 C 
BRANCH  23  26
ATOM     25  C   UNL     1       3.667  14.980  21.634  0.00  0.00    +0.000 C 
ATOM     26  C   UNL     1       5.082  14.573  21.284  0.00  0.00    +0.000 C 
ENDBRANCH  23  26
ENDBRANCH   1  23
BRANCH  10  27
ATOM     27  C   UNL     1       8.797   9.914  18.322  0.00  0.00    +0.000 C 
ATOM     28  C   UNL     1       8.064   9.026  17.988  0.00  0.00    +0.000 C 
BRANCH  28  29
ATOM     29  C   UNL     1       7.187   7.949  17.616  0.00  0.00    +0.000 C 
ATOM     30  C   UNL     1       7.756   6.868  16.736  0.00  0.00    +0.000 C 
ATOM     31  C   UNL     1       7.428   6.567  18.169  0.00  0.00    +0.000 C 
ENDBRANCH  28  29
ENDBRANCH  10  27
BRANCH  18  32
ATOM     32  O   UNL     1      10.548  18.630  22.063  0.00  0.00    +0.000 OA
ATOM     33  C   UNL     1      11.457  18.631  23.148  0.00  0.00    +0.000 C 
ENDBRANCH  18  32
TORSDOF 5
ENDMDL
MODEL 3
REMARK VINA RESULT:      -6.3      2.533      6.921
REMARK  Name = 
REMARK  8 active torsions:
REMARK  status: ('A' for Active; 'I' for Inactive)
REMARK    1  A    between atoms: C_1  and  C_2
REMARK    2  A    between atoms: C_2  and  C_3
REMARK    3  A    between atoms: C_3  and  C_4
REMARK    4  A    between atoms: C_3  and  N_5
REMARK    5  A    between atoms: C_14  and  C_15
REMARK    6  A    between atoms: C_16  and  C_17
REMARK    7  A    between atoms: C_27  and  O_28
REMARK    8  A    between atoms: O_28  and  C_29
REMARK                            x       y       z     vdW  Elec       q    Type
REMARK                         _______ _______ _______ _____ _____    ______ ____
ROOT
ATOM      1  N   UNL     1      -0.671  11.585  20.226  0.00  0.00    +0.000 N 
ATOM      2  C   UNL     1      -0.734  12.904  19.819  0.00  0.00    +0.000 C 
ATOM      3  O   UNL     1      -1.103  13.311  18.728  0.00  0.00    +0.000 OA
ATOM      4  C   UNL     1      -0.246  13.735  21.004  0.00  0.00    +0.000 C 
ATOM      5  N   UNL     1      -0.060  12.678  22.072  0.00  0.00    +0.000 NA
ATOM      6  C   UNL     1      -0.416  11.567  21.544  0.00  0.00    +0.000 C 
ATOM      7  N   UNL     1      -0.492  10.493  22.367  0.00  0.00    +0.000 N 
ATOM      8  C   UNL     1      -1.223  14.662  21.719  0.00  0.00    +0.000 A 
ATOM      9  C   UNL     1      -2.549  14.289  21.958  0.00  0.00    +0.000 A 
ATOM     10  C   UNL     1      -3.009  14.311  23.279  0.00  0.00    +0.000 A 
ATOM     11  C   UNL     1      -2.191  14.846  24.292  0.00  0.00    +0.000 A 
ATOM     12  C   UNL     1      -0.926  15.390  24.000  0.00  0.00    +0.000 A 
ATOM     13  C   UNL     1      -0.444  15.306  22.699  0.00  0.00    +0.000 A 
ATOM     14  C   UNL     1       1.024  15.356  22.298  0.00  0.00    +0.000 C 
ATOM     15  C   UNL     1       1.104  14.535  20.947  0.00  0.00    +0.000 C 
ATOM     16  C   UNL     1       1.321  15.553  19.788  0.00  0.00    +0.000 C 
ATOM     17  C   UNL     1       1.678  14.967  18.416  0.00  0.00    +0.000 C 
ATOM     18  C   UNL     1       2.789  13.909  18.461  0.00  0.00    +0.000 C 
ATOM     19  C   UNL     1       2.503  12.890  19.557  0.00  0.00    +0.000 C 
ATOM     20  C   UNL     1       2.325  13.570  20.923  0.00  0.00    +0.000 C 
ATOM     21  H   UNL     1      -0.480  10.862  23.317  0.00  0.00    +0.000 HD
ATOM     22  H   UNL     1       0.344   9.925  22.313  0.00  0.00    +0.000 HD
ENDROOT
BRANCH   1  23
ATOM     23  C   UNL     1      -0.782  10.418  19.354  0.00  0.00    +0.000 C 
ATOM     24  C   UNL     1       0.488  10.223  18.530  0.00  0.00    +0.000 C 
BRANCH  23  26
ATOM     25  C   UNL     1      -2.007   9.955  17.106  0.00  0.00    +0.000 C 
ATOM     26  C   UNL     1      -2.060  10.558  18.493  0.00  0.00    +0.000 C 
ENDBRANCH  23  26
ENDBRANCH   1  23
BRANCH  10  27
ATOM     27  C   UNL     1      -4.233  13.617  23.597  0.00  0.00    +0.000 C 
ATOM     28  C   UNL     1      -5.298  13.130  23.858  0.00  0.00    +0.000 C 
BRANCH  28  29
ATOM     29  C   UNL     1      -6.586  12.572  24.166  0.00  0.00    +0.000 C 
ATOM     30  C   UNL     1      -7.750  13.524  24.246  0.00  0.00    +0.000 C 
ATOM     31  C   UNL     1      -7.661  12.550  23.108  0.00  0.00    +0.000 C 
ENDBRANCH  28  29
ENDBRANCH  10  27
BRANCH  18  32
ATOM     32  O   UNL     1       4.077  14.443  18.773  0.00  0.00    +0.000 OA
ATOM     33  C   UNL     1       4.613  15.306  17.788  0.00  0.00    +0.000 C 
ENDBRANCH  18  32
TORSDOF 5
ENDMDL
MODEL 4
REMARK VINA RESULT:      -6.3      3.982      5.941
REMARK  Name = 
REMARK  8 active torsions:
REMARK  status: ('A' for Active; 'I' for Inactive)
REMARK    1  A    between atoms: C_1  and  C_2
REMARK    2  A    between atoms: C_2  and  C_3
REMARK    3  A    between atoms: C_3  and  C_4
REMARK    4  A    between atoms: C_3  and  N_5
REMARK    5  A    between atoms: C_14  and  C_15
REMARK    6  A    between atoms: C_16  and  C_17
REMARK    7  A    between atoms: C_27  and  O_28
REMARK    8  A    between atoms: O_28  and  C_29
REMARK                            x       y       z     vdW  Elec       q    Type
REMARK                         _______ _______ _______ _____ _____    ______ ____
ROOT
ATOM      1  N   UNL     1      -5.486  13.406  21.253  0.00  0.00    +0.000 N 
ATOM      2  C   UNL     1      -4.422  13.055  22.062  0.00  0.00    +0.000 C 
ATOM      3  O   UNL     1      -4.448  12.271  22.998  0.00  0.00    +0.000 OA
ATOM      4  C   UNL     1      -3.222  13.850  21.548  0.00  0.00    +0.000 C 
ATOM      5  N   UNL     1      -3.798  14.527  20.322  0.00  0.00    +0.000 NA
ATOM      6  C   UNL     1      -5.009  14.125  20.226  0.00  0.00    +0.000 C 
ATOM      7  N   UNL     1      -5.683  14.473  19.102  0.00  0.00    +0.000 N 
ATOM      8  C   UNL     1      -2.051  13.108  20.914  0.00  0.00    +0.000 A 
ATOM      9  C   UNL     1      -2.247  12.010  20.071  0.00  0.00    +0.000 A 
ATOM     10  C   UNL     1      -1.701  12.066  18.784  0.00  0.00    +0.000 A 
ATOM     11  C   UNL     1      -0.855  13.134  18.432  0.00  0.00    +0.000 A 
ATOM     12  C   UNL     1      -0.520  14.138  19.360  0.00  0.00    +0.000 A 
ATOM     13  C   UNL     1      -1.115  14.117  20.616  0.00  0.00    +0.000 A 
ATOM     14  C   UNL     1      -1.286  15.321  21.532  0.00  0.00    +0.000 C 
ATOM     15  C   UNL     1      -2.564  14.990  22.405  0.00  0.00    +0.000 C 
ATOM     16  C   UNL     1      -2.077  14.656  23.846  0.00  0.00    +0.000 C 
ATOM     17  C   UNL     1      -3.158  14.548  24.929  0.00  0.00    +0.000 C 
ATOM     18  C   UNL     1      -4.165  15.706  24.921  0.00  0.00    +0.000 C 
ATOM     19  C   UNL     1      -4.674  15.953  23.507  0.00  0.00    +0.000 C 
ATOM     20  C   UNL     1      -3.517  16.214  22.531  0.00  0.00    +0.000 C 
ATOM     21  H   UNL     1      -4.979  14.791  18.436  0.00  0.00    +0.000 HD
ATOM     22  H   UNL     1      -6.264  15.287  19.255  0.00  0.00    +0.000 HD
ENDROOT
BRANCH   1  23
ATOM     23  C   UNL     1      -6.892  13.110  21.520  0.00  0.00    +0.000 C 
ATOM     24  C   UNL     1      -7.279  13.511  22.942  0.00  0.00    +0.000 C 
BRANCH  23  26
ATOM     25  C   UNL     1      -6.718  11.128  19.844  0.00  0.00    +0.000 C 
ATOM     26  C   UNL     1      -7.157  11.618  21.207  0.00  0.00    +0.000 C 
ENDBRANCH  23  26
ENDBRANCH   1  23
BRANCH  10  27
ATOM     27  C   UNL     1      -2.168  11.125  17.793  0.00  0.00    +0.000 C 
ATOM     28  C   UNL     1      -2.527  10.411  16.900  0.00  0.00    +0.000 C 
BRANCH  28  29
ATOM     29  C   UNL     1      -2.945   9.573  15.809  0.00  0.00    +0.000 C 
ATOM     30  C   UNL     1      -4.063  10.081  14.937  0.00  0.00    +0.000 C 
ATOM     31  C   UNL     1      -2.668  10.003  14.391  0.00  0.00    +0.000 C 
ENDBRANCH  28  29
ENDBRANCH  10  27
BRANCH  18  32
ATOM     32  O   UNL     1      -3.609  16.953  25.342  0.00  0.00    +0.000 OA
ATOM     33  C   UNL     1      -4.543  18.010  25.449  0.00  0.00    +0.000 C 
ENDBRANCH  18  32
TORSDOF 5
ENDMDL
MODEL 5
REMARK VINA RESULT:      -6.3      0.755      1.189
REMARK  Name = 
REMARK  8 active torsions:
REMARK  status: ('A' for Active; 'I' for Inactive)
REMARK    1  A    between atoms: C_1  and  C_2
REMARK    2  A    between atoms: C_2  and  C_3
REMARK    3  A    between atoms: C_3  and  C_4
REMARK    4  A    between atoms: C_3  and  N_5
REMARK    5  A    between atoms: C_14  and  C_15
REMARK    6  A    between atoms: C_16  and  C_17
REMARK    7  A    between atoms: C_27  and  O_28
REMARK    8  A    between atoms: O_28  and  C_29
REMARK                            x       y       z     vdW  Elec       q    Type
REMARK                         _______ _______ _______ _____ _____    ______ ____
ROOT
ATOM      1  N   UNL     1       0.853  13.799  19.893  0.00  0.00    +0.000 N 
ATOM      2  C   UNL     1      -0.427  13.277  19.880  0.00  0.00    +0.000 C 
ATOM      3  O   UNL     1      -1.308  13.530  19.073  0.00  0.00    +0.000 OA
ATOM      4  C   UNL     1      -0.508  12.331  21.077  0.00  0.00    +0.000 C 
ATOM      5  N   UNL     1       0.915  12.360  21.596  0.00  0.00    +0.000 NA
ATOM      6  C   UNL     1       1.569  13.124  20.804  0.00  0.00    +0.000 C 
ATOM      7  N   UNL     1       2.914  13.174  20.972  0.00  0.00    +0.000 N 
ATOM      8  C   UNL     1      -0.670  10.834  20.837  0.00  0.00    +0.000 A 
ATOM      9  C   UNL     1       0.003  10.179  19.802  0.00  0.00    +0.000 A 
ATOM     10  C   UNL     1       0.819   9.092  20.135  0.00  0.00    +0.000 A 
ATOM     11  C   UNL     1       0.819   8.599  21.454  0.00  0.00    +0.000 A 
ATOM     12  C   UNL     1      -0.011   9.159  22.444  0.00  0.00    +0.000 A 
ATOM     13  C   UNL     1      -0.770  10.279  22.128  0.00  0.00    +0.000 A 
ATOM     14  C   UNL     1      -1.302  11.295  23.130  0.00  0.00    +0.000 C 
ATOM     15  C   UNL     1      -1.425  12.645  22.312  0.00  0.00    +0.000 C 
ATOM     16  C   UNL     1      -2.940  12.913  22.070  0.00  0.00    +0.000 C 
ATOM     17  C   UNL     1      -3.314  14.294  21.515  0.00  0.00    +0.000 C 
ATOM     18  C   UNL     1      -2.638  15.462  22.246  0.00  0.00    +0.000 C 
ATOM     19  C   UNL     1      -1.146  15.197  22.399  0.00  0.00    +0.000 C 
ATOM     20  C   UNL     1      -0.883  13.864  23.115  0.00  0.00    +0.000 C 
ATOM     21  H   UNL     1       3.156  12.378  21.562  0.00  0.00    +0.000 HD
ATOM     22  H   UNL     1       3.189  13.979  21.520  0.00  0.00    +0.000 HD
ENDROOT
BRANCH   1  23
ATOM     23  C   UNL     1       1.314  14.942  19.107  0.00  0.00    +0.000 C 
ATOM     24  C   UNL     1       0.140  15.807  18.653  0.00  0.00    +0.000 C 
BRANCH  23  26
ATOM     25  C   UNL     1       3.402  15.256  17.588  0.00  0.00    +0.000 C 
ATOM     26  C   UNL     1       2.187  14.424  17.939  0.00  0.00    +0.000 C 
ENDBRANCH  23  26
ENDBRANCH   1  23
BRANCH  10  27
ATOM     27  C   UNL     1       1.777   8.623  19.163  0.00  0.00    +0.000 C 
ATOM     28  C   UNL     1       2.550   8.139  18.384  0.00  0.00    +0.000 C 
BRANCH  28  29
ATOM     29  C   UNL     1       3.467   7.533  17.459  0.00  0.00    +0.000 C 
ATOM     30  C   UNL     1       4.701   6.886  18.031  0.00  0.00    +0.000 C 
ATOM     31  C   UNL     1       3.620   6.032  17.436  0.00  0.00    +0.000 C 
ENDBRANCH  28  29
ENDBRANCH  10  27
BRANCH  18  32
ATOM     32  O   UNL     1      -3.121  15.662  23.576  0.00  0.00    +0.000 OA
ATOM     33  C   UNL     1      -4.502  15.958  23.664  0.00  0.00    +0.000 C 
ENDBRANCH  18  32
TORSDOF 5
ENDMDL
MODEL 6
REMARK VINA RESULT:      -6.2      3.886      5.838
REMARK  Name = 
REMARK  8 active torsions:
REMARK  status: ('A' for Active; 'I' for Inactive)
REMARK    1  A    between atoms: C_1  and  C_2
REMARK    2  A    between atoms: C_2  and  C_3
REMARK    3  A    between atoms: C_3  and  C_4
REMARK    4  A    between atoms: C_3  and  N_5
REMARK    5  A    between atoms: C_14  and  C_15
REMARK    6  A    between atoms: C_16  and  C_17
REMARK    7  A    between atoms: C_27  and  O_28
REMARK    8  A    between atoms: O_28  and  C_29
REMARK                            x       y       z     vdW  Elec       q    Type
REMARK                         _______ _______ _______ _____ _____    ______ ____
ROOT
ATOM      1  N   UNL     1      -5.046  13.379  21.577  0.00  0.00    +0.000 N 
ATOM      2  C   UNL     1      -3.890  13.081  22.274  0.00  0.00    +0.000 C 
ATOM      3  O   UNL     1      -3.784  12.299  23.205  0.00  0.00    +0.000 OA
ATOM      4  C   UNL     1      -2.788  13.933  21.645  0.00  0.00    +0.000 C 
ATOM      5  N   UNL     1      -3.516  14.580  20.485  0.00  0.00    +0.000 NA
ATOM      6  C   UNL     1      -4.710  14.119  20.510  0.00  0.00    +0.000 C 
ATOM      7  N   UNL     1      -5.509  14.431  19.460  0.00  0.00    +0.000 N 
ATOM      8  C   UNL     1      -1.652  13.248  20.894  0.00  0.00    +0.000 A 
ATOM      9  C   UNL     1      -1.878  12.140  20.071  0.00  0.00    +0.000 A 
ATOM     10  C   UNL     1      -1.467  12.220  18.736  0.00  0.00    +0.000 A 
ATOM     11  C   UNL     1      -0.714  13.328  18.304  0.00  0.00    +0.000 A 
ATOM     12  C   UNL     1      -0.336  14.349  19.198  0.00  0.00    +0.000 A 
ATOM     13  C   UNL     1      -0.801  14.301  20.507  0.00  0.00    +0.000 A 
ATOM     14  C   UNL     1      -0.937  15.497  21.439  0.00  0.00    +0.000 C 
ATOM     15  C   UNL     1      -2.104  15.105  22.435  0.00  0.00    +0.000 C 
ATOM     16  C   UNL     1      -1.459  14.798  23.819  0.00  0.00    +0.000 C 
ATOM     17  C   UNL     1      -2.419  14.638  25.005  0.00  0.00    +0.000 C 
ATOM     18  C   UNL     1      -3.477  15.746  25.101  0.00  0.00    +0.000 C 
ATOM     19  C   UNL     1      -4.137  15.966  23.746  0.00  0.00    +0.000 C 
ATOM     20  C   UNL     1      -3.097  16.281  22.661  0.00  0.00    +0.000 C 
ATOM     21  H   UNL     1      -4.892  14.783  18.728  0.00  0.00    +0.000 HD
ATOM     22  H   UNL     1      -6.111  15.217  19.673  0.00  0.00    +0.000 HD
ENDROOT
BRANCH   1  23
ATOM     23  C   UNL     1      -6.402  13.015  21.982  0.00  0.00    +0.000 C 
ATOM     24  C   UNL     1      -7.084  12.160  20.917  0.00  0.00    +0.000 C 
BRANCH  23  26
ATOM     25  C   UNL     1      -7.596  14.474  23.776  0.00  0.00    +0.000 C 
ATOM     26  C   UNL     1      -7.182  14.306  22.329  0.00  0.00    +0.000 C 
ENDBRANCH  23  26
ENDBRANCH   1  23
BRANCH  10  27
ATOM     27  C   UNL     1      -1.985  11.257  17.794  0.00  0.00    +0.000 C 
ATOM     28  C   UNL     1      -2.355  10.499  16.942  0.00  0.00    +0.000 C 
BRANCH  28  29
ATOM     29  C   UNL     1      -2.779   9.602  15.902  0.00  0.00    +0.000 C 
ATOM     30  C   UNL     1      -4.055   9.937  15.177  0.00  0.00    +0.000 C 
ATOM     31  C   UNL     1      -2.740  10.056  14.464  0.00  0.00    +0.000 C 
ENDBRANCH  28  29
ENDBRANCH  10  27
BRANCH  18  32
ATOM     32  O   UNL     1      -2.942  17.019  25.469  0.00  0.00    +0.000 OA
ATOM     33  C   UNL     1      -3.886  18.074  25.485  0.00  0.00    +0.000 C 
ENDBRANCH  18  32
TORSDOF 5
ENDMDL
MODEL 7
REMARK VINA RESULT:      -6.0      0.995      1.463
REMARK  Name = 
REMARK  8 active torsions:
REMARK  status: ('A' for Active; 'I' for Inactive)
REMARK    1  A    between atoms: C_1  and  C_2
REMARK    2  A    between atoms: C_2  and  C_3
REMARK    3  A    between atoms: C_3  and  C_4
REMARK    4  A    between atoms: C_3  and  N_5
REMARK    5  A    between atoms: C_14  and  C_15
REMARK    6  A    between atoms: C_16  and  C_17
REMARK    7  A    between atoms: C_27  and  O_28
REMARK    8  A    between atoms: O_28  and  C_29
REMARK                            x       y       z     vdW  Elec       q    Type
REMARK                         _______ _______ _______ _____ _____    ______ ____
ROOT
ATOM      1  N   UNL     1       1.143  14.157  20.009  0.00  0.00    +0.000 N 
ATOM      2  C   UNL     1      -0.201  13.844  19.927  0.00  0.00    +0.000 C 
ATOM      3  O   UNL     1      -0.957  14.117  19.008  0.00  0.00    +0.000 OA
ATOM      4  C   UNL     1      -0.539  13.097  21.218  0.00  0.00    +0.000 C 
ATOM      5  N   UNL     1       0.821  12.975  21.873  0.00  0.00    +0.000 NA
ATOM      6  C   UNL     1       1.658  13.510  21.066  0.00  0.00    +0.000 C 
ATOM      7  N   UNL     1       2.973  13.372  21.366  0.00  0.00    +0.000 N 
ATOM      8  C   UNL     1      -0.931  11.626  21.148  0.00  0.00    +0.000 A 
ATOM      9  C   UNL     1      -0.294  10.736  20.277  0.00  0.00    +0.000 A 
ATOM     10  C   UNL     1       0.296   9.592  20.824  0.00  0.00    +0.000 A 
ATOM     11  C   UNL     1       0.104   9.292  22.186  0.00  0.00    +0.000 A 
ATOM     12  C   UNL     1      -0.699  10.107  23.008  0.00  0.00    +0.000 A 
ATOM     13  C   UNL     1      -1.229  11.278  22.480  0.00  0.00    +0.000 A 
ATOM     14  C   UNL     1      -1.663  12.493  23.288  0.00  0.00    +0.000 C 
ATOM     15  C   UNL     1      -1.488  13.720  22.302  0.00  0.00    +0.000 C 
ATOM     16  C   UNL     1      -2.911  14.185  21.872  0.00  0.00    +0.000 C 
ATOM     17  C   UNL     1      -3.000  15.517  21.116  0.00  0.00    +0.000 C 
ATOM     18  C   UNL     1      -2.199  16.654  21.764  0.00  0.00    +0.000 C 
ATOM     19  C   UNL     1      -0.791  16.183  22.102  0.00  0.00    +0.000 C 
ATOM     20  C   UNL     1      -0.817  14.937  23.001  0.00  0.00    +0.000 C 
ATOM     21  H   UNL     1       3.028  12.638  22.071  0.00  0.00    +0.000 HD
ATOM     22  H   UNL     1       3.334  14.192  21.836  0.00  0.00    +0.000 HD
ENDROOT
BRANCH   1  23
ATOM     23  C   UNL     1       1.854  15.093  19.141  0.00  0.00    +0.000 C 
ATOM     24  C   UNL     1       0.905  16.147  18.575  0.00  0.00    +0.000 C 
BRANCH  23  26
ATOM     25  C   UNL     1       4.115  14.396  18.060  0.00  0.00    +0.000 C 
ATOM     26  C   UNL     1       2.605  14.291  18.051  0.00  0.00    +0.000 C 
ENDBRANCH  23  26
ENDBRANCH   1  23
BRANCH  10  27
ATOM     27  C   UNL     1       1.238   8.849  20.022  0.00  0.00    +0.000 C 
ATOM     28  C   UNL     1       1.942   8.198  19.302  0.00  0.00    +0.000 C 
BRANCH  28  29
ATOM     29  C   UNL     1       2.761   7.411  18.423  0.00  0.00    +0.000 C 
ATOM     30  C   UNL     1       3.440   6.201  19.008  0.00  0.00    +0.000 C 
ATOM     31  C   UNL     1       2.316   6.024  18.030  0.00  0.00    +0.000 C 
ENDBRANCH  28  29
ENDBRANCH  10  27
BRANCH  18  32
ATOM     32  O   UNL     1      -2.749  17.110  23.002  0.00  0.00    +0.000 OA
ATOM     33  C   UNL     1      -2.433  18.449  23.331  0.00  0.00    +0.000 C 
ENDBRANCH  18  32
TORSDOF 5
ENDMDL
MODEL 8
REMARK VINA RESULT:      -6.0      2.648      5.477
REMARK  Name = 
REMARK  8 active torsions:
REMARK  status: ('A' for Active; 'I' for Inactive)
REMARK    1  A    between atoms: C_1  and  C_2
REMARK    2  A    between atoms: C_2  and  C_3
REMARK    3  A    between atoms: C_3  and  C_4
REMARK    4  A    between atoms: C_3  and  N_5
REMARK    5  A    between atoms: C_14  and  C_15
REMARK    6  A    between atoms: C_16  and  C_17
REMARK    7  A    between atoms: C_27  and  O_28
REMARK    8  A    between atoms: O_28  and  C_29
REMARK                            x       y       z     vdW  Elec       q    Type
REMARK                         _______ _______ _______ _____ _____    ______ ____
ROOT
ATOM      1  N   UNL     1      -0.237  11.939  19.663  0.00  0.00    +0.000 N 
ATOM      2  C   UNL     1       0.016  12.299  20.973  0.00  0.00    +0.000 C 
ATOM      3  O   UNL     1       0.344  11.554  21.882  0.00  0.00    +0.000 OA
ATOM      4  C   UNL     1      -0.206  13.810  21.044  0.00  0.00    +0.000 C 
ATOM      5  N   UNL     1      -0.471  14.156  19.594  0.00  0.00    +0.000 NA
ATOM      6  C   UNL     1      -0.365  13.061  18.939  0.00  0.00    +0.000 C 
ATOM      7  N   UNL     1      -0.399  13.150  17.586  0.00  0.00    +0.000 N 
ATOM      8  C   UNL     1       0.980  14.726  21.321  0.00  0.00    +0.000 A 
ATOM      9  C   UNL     1       2.238  14.491  20.757  0.00  0.00    +0.000 A 
ATOM     10  C   UNL     1       2.818  15.513  19.998  0.00  0.00    +0.000 A 
ATOM     11  C   UNL     1       2.206  16.780  19.951  0.00  0.00    +0.000 A 
ATOM     12  C   UNL     1       1.031  17.052  20.679  0.00  0.00    +0.000 A 
ATOM     13  C   UNL     1       0.421  16.018  21.379  0.00  0.00    +0.000 A 
ATOM     14  C   UNL     1      -1.047  15.970  21.779  0.00  0.00    +0.000 C 
ATOM     15  C   UNL     1      -1.396  14.428  21.861  0.00  0.00    +0.000 C 
ATOM     16  C   UNL     1      -1.542  14.057  23.366  0.00  0.00    +0.000 C 
ATOM     17  C   UNL     1      -2.124  12.672  23.680  0.00  0.00    +0.000 C 
ATOM     18  C   UNL     1      -3.392  12.336  22.883  0.00  0.00    +0.000 C 
ATOM     19  C   UNL     1      -3.185  12.643  21.406  0.00  0.00    +0.000 C 
ATOM     20  C   UNL     1      -2.762  14.103  21.190  0.00  0.00    +0.000 C 
ATOM     21  H   UNL     1      -0.256  14.134  17.362  0.00  0.00    +0.000 HD
ATOM     22  H   UNL     1      -1.322  12.946  17.224  0.00  0.00    +0.000 HD
ENDROOT
BRANCH   1  23
ATOM     23  C   UNL     1      -0.413  10.573  19.175  0.00  0.00    +0.000 C 
ATOM     24  C   UNL     1       0.744  10.159  18.268  0.00  0.00    +0.000 C 
BRANCH  23  26
ATOM     25  C   UNL     1      -1.814   9.919  17.082  0.00  0.00    +0.000 C 
ATOM     26  C   UNL     1      -1.799  10.460  18.496  0.00  0.00    +0.000 C 
ENDBRANCH  23  26
ENDBRANCH   1  23
BRANCH  10  27
ATOM     27  C   UNL     1       3.928  15.188  19.135  0.00  0.00    +0.000 C 
ATOM     28  C   UNL     1       4.902  14.893  18.501  0.00  0.00    +0.000 C 
BRANCH  28  29
ATOM     29  C   UNL     1       6.082  14.529  17.766  0.00  0.00    +0.000 C 
ATOM     30  C   UNL     1       7.221  15.514  17.755  0.00  0.00    +0.000 C 
ATOM     31  C   UNL     1       7.359  14.225  18.509  0.00  0.00    +0.000 C 
ENDBRANCH  28  29
ENDBRANCH  10  27
BRANCH  18  32
ATOM     32  O   UNL     1      -4.533  13.105  23.270  0.00  0.00    +0.000 OA
ATOM     33  C   UNL     1      -5.113  12.722  24.502  0.00  0.00    +0.000 C 
ENDBRANCH  18  32
TORSDOF 5
ENDMDL
MODEL 9
REMARK VINA RESULT:      -5.9      1.374      1.584
REMARK  Name = 
REMARK  8 active torsions:
REMARK  status: ('A' for Active; 'I' for Inactive)
REMARK    1  A    between atoms: C_1  and  C_2
REMARK    2  A    between atoms: C_2  and  C_3
REMARK    3  A    between atoms: C_3  and  C_4
REMARK    4  A    between atoms: C_3  and  N_5
REMARK    5  A    between atoms: C_14  and  C_15
REMARK    6  A    between atoms: C_16  and  C_17
REMARK    7  A    between atoms: C_27  and  O_28
REMARK    8  A    between atoms: O_28  and  C_29
REMARK                            x       y       z     vdW  Elec       q    Type
REMARK                         _______ _______ _______ _____ _____    ______ ____
ROOT
ATOM      1  N   UNL     1       1.235  14.721  19.933  0.00  0.00    +0.000 N 
ATOM      2  C   UNL     1      -0.128  14.493  19.935  0.00  0.00    +0.000 C 
ATOM      3  O   UNL     1      -0.935  14.901  19.115  0.00  0.00    +0.000 OA
ATOM      4  C   UNL     1      -0.410  13.638  21.171  0.00  0.00    +0.000 C 
ATOM      5  N   UNL     1       0.987  13.374  21.693  0.00  0.00    +0.000 NA
ATOM      6  C   UNL     1       1.790  13.942  20.874  0.00  0.00    +0.000 C 
ATOM      7  N   UNL     1       3.113  13.702  21.046  0.00  0.00    +0.000 N 
ATOM      8  C   UNL     1      -0.899  12.206  20.991  0.00  0.00    +0.000 A 
ATOM      9  C   UNL     1      -0.391  11.376  19.987  0.00  0.00    +0.000 A 
ATOM     10  C   UNL     1       0.167  10.151  20.368  0.00  0.00    +0.000 A 
ATOM     11  C   UNL     1       0.064   9.724  21.705  0.00  0.00    +0.000 A 
ATOM     12  C   UNL     1      -0.617  10.493  22.668  0.00  0.00    +0.000 A 
ATOM     13  C   UNL     1      -1.112  11.740  22.303  0.00  0.00    +0.000 A 
ATOM     14  C   UNL     1      -1.403  12.888  23.260  0.00  0.00    +0.000 C 
ATOM     15  C   UNL     1      -1.229  14.198  22.387  0.00  0.00    +0.000 C 
ATOM     16  C   UNL     1      -2.649  14.782  22.128  0.00  0.00    +0.000 C 
ATOM     17  C   UNL     1      -2.712  16.188  21.515  0.00  0.00    +0.000 C 
ATOM     18  C   UNL     1      -1.792  17.207  22.200  0.00  0.00    +0.000 C 
ATOM     19  C   UNL     1      -0.395  16.626  22.370  0.00  0.00    +0.000 C 
ATOM     20  C   UNL     1      -0.428  15.299  23.142  0.00  0.00    +0.000 C 
ATOM     21  H   UNL     1       3.177  12.897  21.669  0.00  0.00    +0.000 HD
ATOM     22  H   UNL     1       3.562  14.449  21.561  0.00  0.00    +0.000 HD
ENDROOT
BRANCH   1  23
ATOM     23  C   UNL     1       1.933  15.701  19.103  0.00  0.00    +0.000 C 
ATOM     24  C   UNL     1       2.966  15.025  18.205  0.00  0.00    +0.000 C 
BRANCH  23  26
ATOM     25  C   UNL     1       1.849  18.144  19.993  0.00  0.00    +0.000 C 
ATOM     26  C   UNL     1       2.533  16.794  20.019  0.00  0.00    +0.000 C 
ENDBRANCH  23  26
ENDBRANCH   1  23
BRANCH  10  27
ATOM     27  C   UNL     1       0.994   9.443  19.420  0.00  0.00    +0.000 C 
ATOM     28  C   UNL     1       1.610   8.782  18.632  0.00  0.00    +0.000 C 
BRANCH  28  29
ATOM     29  C   UNL     1       2.327   7.971  17.687  0.00  0.00    +0.000 C 
ATOM     30  C   UNL     1       3.659   7.418  18.119  0.00  0.00    +0.000 C 
ATOM     31  C   UNL     1       2.490   6.494  17.945  0.00  0.00    +0.000 C 
ENDBRANCH  28  29
ENDBRANCH  10  27
BRANCH  18  32
ATOM     32  O   UNL     1      -2.213  17.563  23.519  0.00  0.00    +0.000 OA
ATOM     33  C   UNL     1      -3.144  18.628  23.574  0.00  0.00    +0.000 C 
ENDBRANCH  18  32
TORSDOF 5
ENDMDL
