MODEL 1
REMARK VINA RESULT:      -7.2      0.000      0.000
REMARK  Name = 
REMARK  3 active torsions:
REMARK  status: ('A' for Active; 'I' for Inactive)
REMARK    1  A    between atoms: C_1  and  N_2
REMARK    2  A    between atoms: N_2  and  C_3
REMARK    3  A    between atoms: C_6  and  C_7
REMARK                            x       y       z     vdW  Elec       q    Type
REMARK                         _______ _______ _______ _____ _____    ______ ____
ROOT
ATOM      1  C   UNL     1       2.835   2.239  17.828  0.00  0.00    +0.000 C 
ATOM      2  N   UNL     1       3.521   3.330  18.507  0.00  0.00    +0.000 N 
ATOM      3  C   UNL     1       3.384   3.412  19.955  0.00  0.00    +0.000 C 
ATOM      4  C   UNL     1       4.736   3.785  17.982  0.00  0.00    +0.000 A 
ATOM      5  C   UNL     1       4.954   3.775  16.619  0.00  0.00    +0.000 A 
ATOM      6  C   UNL     1       6.150   4.267  16.134  0.00  0.00    +0.000 A 
ATOM      7  N   UNL     1       7.110   4.720  16.960  0.00  0.00    +0.000 NA
ATOM      8  C   UNL     1       6.823   4.721  18.263  0.00  0.00    +0.000 A 
ATOM      9  N   UNL     1       7.805   5.172  19.122  0.00  0.00    +0.000 N 
ATOM     10  N   UNL     1       5.682   4.270  18.804  0.00  0.00    +0.000 NA
ATOM     11  H   UNL     1       8.706   5.083  18.674  0.00  0.00    +0.000 HD
ATOM     12  H   UNL     1       7.689   4.736  20.026  0.00  0.00    +0.000 HD
ENDROOT
BRANCH   6  13
ATOM     13  C   UNL     1       6.437   4.306  14.686  0.00  0.00    +0.000 A 
ATOM     14  C   UNL     1       5.748   3.476  13.779  0.00  0.00    +0.000 A 
ATOM     15  C   UNL     1       6.060   3.460  12.418  0.00  0.00    +0.000 A 
ATOM     16  C   UNL     1       7.062   4.289  11.927  0.00  0.00    +0.000 A 
ATOM     17  C   UNL     1       7.738   5.144  12.795  0.00  0.00    +0.000 A 
ATOM     18  C   UNL     1       7.426   5.154  14.158  0.00  0.00    +0.000 A 
ENDBRANCH   6  13
TORSDOF 1
ENDMDL
MODEL 2
REMARK VINA RESULT:      -7.1      1.774      5.478
REMARK  Name = 
REMARK  3 active torsions:
REMARK  status: ('A' for Active; 'I' for Inactive)
REMARK    1  A    between atoms: C_1  and  N_2
REMARK    2  A    between atoms: N_2  and  C_3
REMARK    3  A    between atoms: C_6  and  C_7
REMARK                            x       y       z     vdW  Elec       q    Type
REMARK                         _______ _______ _______ _____ _____    ______ ____
ROOT
ATOM      1  C   UNL     1       5.862   3.586  12.715  0.00  0.00    +0.000 C 
ATOM      2  N   UNL     1       6.737   4.267  13.659  0.00  0.00    +0.000 N 
ATOM      3  C   UNL     1       7.836   5.051  13.111  0.00  0.00    +0.000 C 
ATOM      4  C   UNL     1       6.189   4.739  14.858  0.00  0.00    +0.000 A 
ATOM      5  C   UNL     1       5.161   4.052  15.472  0.00  0.00    +0.000 A 
ATOM      6  C   UNL     1       4.671   4.527  16.673  0.00  0.00    +0.000 A 
ATOM      7  N   UNL     1       5.149   5.653  17.231  0.00  0.00    +0.000 NA
ATOM      8  C   UNL     1       6.155   6.252  16.595  0.00  0.00    +0.000 A 
ATOM      9  N   UNL     1       6.647   7.416  17.152  0.00  0.00    +0.000 N 
ATOM     10  N   UNL     1       6.689   5.845  15.434  0.00  0.00    +0.000 NA
ATOM     11  H   UNL     1       5.938   7.829  17.741  0.00  0.00    +0.000 HD
ATOM     12  H   UNL     1       7.045   7.996  16.426  0.00  0.00    +0.000 HD
ENDROOT
BRANCH   6  13
ATOM     13  C   UNL     1       3.588   3.827  17.394  0.00  0.00    +0.000 A 
ATOM     14  C   UNL     1       2.376   4.476  17.705  0.00  0.00    +0.000 A 
ATOM     15  C   UNL     1       1.375   3.842  18.443  0.00  0.00    +0.000 A 
ATOM     16  C   UNL     1       1.555   2.534  18.875  0.00  0.00    +0.000 A 
ATOM     17  C   UNL     1       2.729   1.856  18.553  0.00  0.00    +0.000 A 
ATOM     18  C   UNL     1       3.732   2.495  17.818  0.00  0.00    +0.000 A 
ENDBRANCH   6  13
TORSDOF 1
ENDMDL
MODEL 3
REMARK VINA RESULT:      -7.1      1.525      5.447
REMARK  Name = 
REMARK  3 active torsions:
REMARK  status: ('A' for Active; 'I' for Inactive)
REMARK    1  A    between atoms: C_1  and  N_2
REMARK    2  A    between atoms: N_2  and  C_3
REMARK    3  A    between atoms: C_6  and  C_7
REMARK                            x       y       z     vdW  Elec       q    Type
REMARK                         _______ _______ _______ _____ _____    ______ ____
ROOT
ATOM      1  C   UNL     1       5.829   3.692  12.762  0.00  0.00    +0.000 C 
ATOM      2  N   UNL     1       6.860   4.299  13.594  0.00  0.00    +0.000 N 
ATOM      3  C   UNL     1       7.891   5.080  12.924  0.00  0.00    +0.000 C 
ATOM      4  C   UNL     1       6.514   4.721  14.883  0.00  0.00    +0.000 A 
ATOM      5  C   UNL     1       5.567   4.032  15.612  0.00  0.00    +0.000 A 
ATOM      6  C   UNL     1       5.279   4.455  16.895  0.00  0.00    +0.000 A 
ATOM      7  N   UNL     1       5.874   5.537  17.428  0.00  0.00    +0.000 NA
ATOM      8  C   UNL     1       6.795   6.142  16.676  0.00  0.00    +0.000 A 
ATOM      9  N   UNL     1       7.405   7.261  17.207  0.00  0.00    +0.000 N 
ATOM     10  N   UNL     1       7.134   5.782  15.430  0.00  0.00    +0.000 NA
ATOM     11  H   UNL     1       6.807   7.661  17.916  0.00  0.00    +0.000 HD
ATOM     12  H   UNL     1       7.709   7.866  16.459  0.00  0.00    +0.000 HD
ENDROOT
BRANCH   6  13
ATOM     13  C   UNL     1       4.292   3.749  17.737  0.00  0.00    +0.000 A 
ATOM     14  C   UNL     1       4.589   3.385  19.066  0.00  0.00    +0.000 A 
ATOM     15  C   UNL     1       3.687   2.660  19.846  0.00  0.00    +0.000 A 
ATOM     16  C   UNL     1       2.454   2.294  19.319  0.00  0.00    +0.000 A 
ATOM     17  C   UNL     1       2.119   2.669  18.019  0.00  0.00    +0.000 A 
ATOM     18  C   UNL     1       3.028   3.391  17.239  0.00  0.00    +0.000 A 
ENDBRANCH   6  13
TORSDOF 1
ENDMDL
MODEL 4
REMARK VINA RESULT:      -7.1      0.760      1.421
REMARK  Name = 
REMARK  3 active torsions:
REMARK  status: ('A' for Active; 'I' for Inactive)
REMARK    1  A    between atoms: C_1  and  N_2
REMARK    2  A    between atoms: N_2  and  C_3
REMARK    3  A    between atoms: C_6  and  C_7
REMARK                            x       y       z     vdW  Elec       q    Type
REMARK                         _______ _______ _______ _____ _____    ______ ____
ROOT
ATOM      1  C   UNL     1       2.462   3.807  17.686  0.00  0.00    +0.000 C 
ATOM      2  N   UNL     1       3.444   4.672  18.326  0.00  0.00    +0.000 N 
ATOM      3  C   UNL     1       3.320   4.882  19.762  0.00  0.00    +0.000 C 
ATOM      4  C   UNL     1       4.747   4.696  17.815  0.00  0.00    +0.000 A 
ATOM      5  C   UNL     1       4.969   4.533  16.463  0.00  0.00    +0.000 A 
ATOM      6  C   UNL     1       6.265   4.600  15.991  0.00  0.00    +0.000 A 
ATOM      7  N   UNL     1       7.307   4.783  16.821  0.00  0.00    +0.000 NA
ATOM      8  C   UNL     1       7.018   4.954  18.111  0.00  0.00    +0.000 A 
ATOM      9  N   UNL     1       8.080   5.131  18.976  0.00  0.00    +0.000 N 
ATOM     10  N   UNL     1       5.786   4.914  18.640  0.00  0.00    +0.000 NA
ATOM     11  H   UNL     1       8.914   4.740  18.562  0.00  0.00    +0.000 HD
ATOM     12  H   UNL     1       7.822   4.809  19.897  0.00  0.00    +0.000 HD
ENDROOT
BRANCH   6  13
ATOM     13  C   UNL     1       6.570   4.457  14.552  0.00  0.00    +0.000 A 
ATOM     14  C   UNL     1       7.592   5.212  13.941  0.00  0.00    +0.000 A 
ATOM     15  C   UNL     1       7.841   5.131  12.570  0.00  0.00    +0.000 A 
ATOM     16  C   UNL     1       7.083   4.278  11.777  0.00  0.00    +0.000 A 
ATOM     17  C   UNL     1       6.089   3.495  12.359  0.00  0.00    +0.000 A 
ATOM     18  C   UNL     1       5.838   3.582  13.732  0.00  0.00    +0.000 A 
ENDBRANCH   6  13
TORSDOF 1
ENDMDL
MODEL 5
REMARK VINA RESULT:      -6.8      1.911      5.532
REMARK  Name = 
REMARK  3 active torsions:
REMARK  status: ('A' for Active; 'I' for Inactive)
REMARK    1  A    between atoms: C_1  and  N_2
REMARK    2  A    between atoms: N_2  and  C_3
REMARK    3  A    between atoms: C_6  and  C_7
REMARK                            x       y       z     vdW  Elec       q    Type
REMARK                         _______ _______ _______ _____ _____    ______ ____
ROOT
ATOM      1  C   UNL     1       5.415   3.860  13.304  0.00  0.00    +0.000 C 
ATOM      2  N   UNL     1       6.510   4.372  14.115  0.00  0.00    +0.000 N 
ATOM      3  C   UNL     1       7.698   4.847  13.417  0.00  0.00    +0.000 C 
ATOM      4  C   UNL     1       6.204   5.026  15.315  0.00  0.00    +0.000 A 
ATOM      5  C   UNL     1       5.114   4.632  16.064  0.00  0.00    +0.000 A 
ATOM      6  C   UNL     1       4.866   5.275  17.261  0.00  0.00    +0.000 A 
ATOM      7  N   UNL     1       5.638   6.290  17.688  0.00  0.00    +0.000 NA
ATOM      8  C   UNL     1       6.686   6.603  16.924  0.00  0.00    +0.000 A 
ATOM      9  N   UNL     1       7.480   7.651  17.346  0.00  0.00    +0.000 N 
ATOM     10  N   UNL     1       6.996   6.017  15.759  0.00  0.00    +0.000 NA
ATOM     11  H   UNL     1       6.944   8.249  17.958  0.00  0.00    +0.000 HD
ATOM     12  H   UNL     1       7.924   8.080  16.546  0.00  0.00    +0.000 HD
ENDROOT
BRANCH   6  13
ATOM     13  C   UNL     1       3.730   4.888  18.122  0.00  0.00    +0.000 A 
ATOM     14  C   UNL     1       2.672   4.097  17.630  0.00  0.00    +0.000 A 
ATOM     15  C   UNL     1       1.564   3.782  18.418  0.00  0.00    +0.000 A 
ATOM     16  C   UNL     1       1.494   4.239  19.729  0.00  0.00    +0.000 A 
ATOM     17  C   UNL     1       2.540   4.995  20.254  0.00  0.00    +0.000 A 
ATOM     18  C   UNL     1       3.646   5.313  19.459  0.00  0.00    +0.000 A 
ENDBRANCH   6  13
TORSDOF 1
ENDMDL
MODEL 6
REMARK VINA RESULT:      -6.8      1.931      5.619
REMARK  Name = 
REMARK  3 active torsions:
REMARK  status: ('A' for Active; 'I' for Inactive)
REMARK    1  A    between atoms: C_1  and  N_2
REMARK    2  A    between atoms: N_2  and  C_3
REMARK    3  A    between atoms: C_6  and  C_7
REMARK                            x       y       z     vdW  Elec       q    Type
REMARK                         _______ _______ _______ _____ _____    ______ ____
ROOT
ATOM      1  C   UNL     1       5.465   3.894  13.218  0.00  0.00    +0.000 C 
ATOM      2  N   UNL     1       6.541   4.390  14.065  0.00  0.00    +0.000 N 
ATOM      3  C   UNL     1       7.756   4.850  13.406  0.00  0.00    +0.000 C 
ATOM      4  C   UNL     1       6.207   5.044  15.256  0.00  0.00    +0.000 A 
ATOM      5  C   UNL     1       5.089   4.664  15.970  0.00  0.00    +0.000 A 
ATOM      6  C   UNL     1       4.811   5.307  17.161  0.00  0.00    +0.000 A 
ATOM      7  N   UNL     1       5.583   6.310  17.614  0.00  0.00    +0.000 NA
ATOM      8  C   UNL     1       6.658   6.611  16.885  0.00  0.00    +0.000 A 
ATOM      9  N   UNL     1       7.453   7.647  17.334  0.00  0.00    +0.000 N 
ATOM     10  N   UNL     1       6.997   6.024  15.728  0.00  0.00    +0.000 NA
ATOM     11  H   UNL     1       6.906   8.251  17.930  0.00  0.00    +0.000 HD
ATOM     12  H   UNL     1       7.927   8.072  16.550  0.00  0.00    +0.000 HD
ENDROOT
BRANCH   6  13
ATOM     13  C   UNL     1       3.644   4.933  17.985  0.00  0.00    +0.000 A 
ATOM     14  C   UNL     1       3.440   5.489  19.264  0.00  0.00    +0.000 A 
ATOM     15  C   UNL     1       2.376   5.092  20.075  0.00  0.00    +0.000 A 
ATOM     16  C   UNL     1       1.476   4.137  19.618  0.00  0.00    +0.000 A 
ATOM     17  C   UNL     1       1.632   3.594  18.345  0.00  0.00    +0.000 A 
ATOM     18  C   UNL     1       2.703   3.990  17.537  0.00  0.00    +0.000 A 
ENDBRANCH   6  13
TORSDOF 1
ENDMDL
MODEL 7
REMARK VINA RESULT:      -6.8      1.760      5.864
REMARK  Name = 
REMARK  3 active torsions:
REMARK  status: ('A' for Active; 'I' for Inactive)
REMARK    1  A    between atoms: C_1  and  N_2
REMARK    2  A    between atoms: N_2  and  C_3
REMARK    3  A    between atoms: C_6  and  C_7
REMARK                            x       y       z     vdW  Elec       q    Type
REMARK                         _______ _______ _______ _____ _____    ______ ____
ROOT
ATOM      1  C   UNL     1       5.068   4.734  14.701  0.00  0.00    +0.000 C 
ATOM      2  N   UNL     1       6.243   4.507  15.532  0.00  0.00    +0.000 N 
ATOM      3  C   UNL     1       7.543   4.838  14.964  0.00  0.00    +0.000 C 
ATOM      4  C   UNL     1       6.122   4.669  16.918  0.00  0.00    +0.000 A 
ATOM      5  C   UNL     1       4.939   4.356  17.556  0.00  0.00    +0.000 A 
ATOM      6  C   UNL     1       4.870   4.493  18.929  0.00  0.00    +0.000 A 
ATOM      7  N   UNL     1       5.912   4.954  19.643  0.00  0.00    +0.000 NA
ATOM      8  C   UNL     1       7.029   5.216  18.964  0.00  0.00    +0.000 A 
ATOM      9  N   UNL     1       8.103   5.700  19.685  0.00  0.00    +0.000 N 
ATOM     10  N   UNL     1       7.175   5.096  17.637  0.00  0.00    +0.000 NA
ATOM     11  H   UNL     1       7.767   6.127  20.536  0.00  0.00    +0.000 HD
ATOM     12  H   UNL     1       8.688   6.261  19.082  0.00  0.00    +0.000 HD
ENDROOT
BRANCH   6  13
ATOM     13  C   UNL     1       3.641   4.154  19.676  0.00  0.00    +0.000 A 
ATOM     14  C   UNL     1       3.408   2.847  20.150  0.00  0.00    +0.000 A 
ATOM     15  C   UNL     1       2.221   2.504  20.799  0.00  0.00    +0.000 A 
ATOM     16  C   UNL     1       1.241   3.468  21.005  0.00  0.00    +0.000 A 
ATOM     17  C   UNL     1       1.457   4.776  20.577  0.00  0.00    +0.000 A 
ATOM     18  C   UNL     1       2.645   5.115  19.923  0.00  0.00    +0.000 A 
ENDBRANCH   6  13
TORSDOF 1
ENDMDL
MODEL 8
REMARK VINA RESULT:      -6.7      1.516      5.843
REMARK  Name = 
REMARK  3 active torsions:
REMARK  status: ('A' for Active; 'I' for Inactive)
REMARK    1  A    between atoms: C_1  and  N_2
REMARK    2  A    between atoms: N_2  and  C_3
REMARK    3  A    between atoms: C_6  and  C_7
REMARK                            x       y       z     vdW  Elec       q    Type
REMARK                         _______ _______ _______ _____ _____    ______ ____
ROOT
ATOM      1  C   UNL     1       5.133   4.533  14.449  0.00  0.00    +0.000 C 
ATOM      2  N   UNL     1       6.276   4.378  15.338  0.00  0.00    +0.000 N 
ATOM      3  C   UNL     1       7.578   4.803  14.839  0.00  0.00    +0.000 C 
ATOM      4  C   UNL     1       6.075   4.518  16.716  0.00  0.00    +0.000 A 
ATOM      5  C   UNL     1       4.885   4.119  17.291  0.00  0.00    +0.000 A 
ATOM      6  C   UNL     1       4.736   4.238  18.658  0.00  0.00    +0.000 A 
ATOM      7  N   UNL     1       5.706   4.762  19.428  0.00  0.00    +0.000 NA
ATOM      8  C   UNL     1       6.837   5.106  18.810  0.00  0.00    +0.000 A 
ATOM      9  N   UNL     1       7.836   5.656  19.587  0.00  0.00    +0.000 N 
ATOM     10  N   UNL     1       7.057   5.010  17.491  0.00  0.00    +0.000 NA
ATOM     11  H   UNL     1       7.429   6.050  20.423  0.00  0.00    +0.000 HD
ATOM     12  H   UNL     1       8.411   6.261  19.019  0.00  0.00    +0.000 HD
ENDROOT
BRANCH   6  13
ATOM     13  C   UNL     1       3.497   3.809  19.339  0.00  0.00    +0.000 A 
ATOM     14  C   UNL     1       2.943   4.559  20.396  0.00  0.00    +0.000 A 
ATOM     15  C   UNL     1       1.811   4.126  21.087  0.00  0.00    +0.000 A 
ATOM     16  C   UNL     1       1.192   2.935  20.726  0.00  0.00    +0.000 A 
ATOM     17  C   UNL     1       1.697   2.189  19.663  0.00  0.00    +0.000 A 
ATOM     18  C   UNL     1       2.836   2.623  18.977  0.00  0.00    +0.000 A 
ENDBRANCH   6  13
TORSDOF 1
ENDMDL
MODEL 9
REMARK VINA RESULT:      -6.7      3.420      4.232
REMARK  Name = 
REMARK  3 active torsions:
REMARK  status: ('A' for Active; 'I' for Inactive)
REMARK    1  A    between atoms: C_1  and  N_2
REMARK    2  A    between atoms: N_2  and  C_3
REMARK    3  A    between atoms: C_6  and  C_7
REMARK                            x       y       z     vdW  Elec       q    Type
REMARK                         _______ _______ _______ _____ _____    ______ ____
ROOT
ATOM      1  C   UNL     1       1.053   4.373  17.443  0.00  0.00    +0.000 C 
ATOM      2  N   UNL     1       1.493   3.719  18.668  0.00  0.00    +0.000 N 
ATOM      3  C   UNL     1       0.682   2.618  19.170  0.00  0.00    +0.000 C 
ATOM      4  C   UNL     1       2.867   3.633  18.923  0.00  0.00    +0.000 A 
ATOM      5  C   UNL     1       3.717   4.639  18.512  0.00  0.00    +0.000 A 
ATOM      6  C   UNL     1       5.061   4.537  18.814  0.00  0.00    +0.000 A 
ATOM      7  N   UNL     1       5.556   3.469  19.464  0.00  0.00    +0.000 NA
ATOM      8  C   UNL     1       4.675   2.546  19.851  0.00  0.00    +0.000 A 
ATOM      9  N   UNL     1       5.172   1.439  20.509  0.00  0.00    +0.000 N 
ATOM     10  N   UNL     1       3.357   2.582  19.604  0.00  0.00    +0.000 NA
ATOM     11  H   UNL     1       6.147   1.321  20.273  0.00  0.00    +0.000 HD
ATOM     12  H   UNL     1       4.557   0.652  20.357  0.00  0.00    +0.000 HD
ENDROOT
BRANCH   6  13
ATOM     13  C   UNL     1       6.021   5.589  18.423  0.00  0.00    +0.000 A 
ATOM     14  C   UNL     1       7.264   5.727  19.074  0.00  0.00    +0.000 A 
ATOM     15  C   UNL     1       8.147   6.759  18.755  0.00  0.00    +0.000 A 
ATOM     16  C   UNL     1       7.816   7.673  17.761  0.00  0.00    +0.000 A 
ATOM     17  C   UNL     1       6.609   7.542  17.078  0.00  0.00    +0.000 A 
ATOM     18  C   UNL     1       5.723   6.510  17.404  0.00  0.00    +0.000 A 
ENDBRANCH   6  13
TORSDOF 1
ENDMDL
