MODEL 1
REMARK VINA RESULT:      -7.8      0.000      0.000
REMARK  Name = 
REMARK  7 active torsions:
REMARK  status: ('A' for Active; 'I' for Inactive)
REMARK    1  A    between atoms: C_1  and  C_2
REMARK    2  A    between atoms: C_2  and  C_16
REMARK    3  A    between atoms: N_3  and  N_4
REMARK    4  A    between atoms: C_5  and  C_7
REMARK    5  A    between atoms: C_7  and  O_8
REMARK    6  A    between atoms: O_8  and  C_9
REMARK    7  A    between atoms: C_19  and  N_20
REMARK                            x       y       z     vdW  Elec       q    Type
REMARK                         _______ _______ _______ _____ _____    ______ ____
ROOT
ATOM      1  C   UNL     1       2.156   5.405  17.551  0.00  0.00    +0.000 C 
ATOM      2  C   UNL     1       2.940   6.615  18.010  0.00  0.00    +0.000 C 
ATOM      3  N   UNL     1       4.210   6.851  17.804  0.00  0.00    +0.000 NA
ENDROOT
BRANCH   2   4
ATOM      4  C   UNL     1       2.161   7.607  18.781  0.00  0.00    +0.000 A 
ATOM      5  C   UNL     1       1.709   8.776  18.163  0.00  0.00    +0.000 A 
ATOM      6  C   UNL     1       1.074   9.761  18.918  0.00  0.00    +0.000 A 
ATOM      7  C   UNL     1       0.887   9.581  20.295  0.00  0.00    +0.000 A 
ATOM      8  C   UNL     1       1.293   8.370  20.890  0.00  0.00    +0.000 A 
ATOM      9  C   UNL     1       1.921   7.384  20.132  0.00  0.00    +0.000 A 
BRANCH   7  10
ATOM     10  N   UNL     1       0.305  10.620  21.082  0.00  0.00    +0.000 N 
ATOM     11  C   UNL     1       0.437  11.989  20.878  0.00  0.00    +0.000 A 
ATOM     12  C   UNL     1      -0.261  12.657  21.861  0.00  0.00    +0.000 A 
ATOM     13  C   UNL     1      -0.840  11.689  22.699  0.00  0.00    +0.000 A 
ATOM     14  C   UNL     1      -0.482  10.457  22.207  0.00  0.00    +0.000 A 
ENDBRANCH   7  10
ENDBRANCH   2   4
BRANCH   3  15
ATOM     15  N   UNL     1       5.000   5.909  17.204  0.00  0.00    +0.000 N 
ATOM     16  C   UNL     1       5.794   5.006  17.906  0.00  0.00    +0.000 C 
ATOM     17  O   UNL     1       6.718   4.422  17.327  0.00  0.00    +0.000 OA
ATOM     18  H   UNL     1       5.486   6.243  16.372  0.00  0.00    +0.000 HD
BRANCH  16  19
ATOM     19  C   UNL     1       5.393   4.722  19.346  0.00  0.00    +0.000 C 
BRANCH  19  20
ATOM     20  O   UNL     1       4.893   3.445  19.655  0.00  0.00    +0.000 OA
BRANCH  20  21
ATOM     21  C   UNL     1       3.563   3.290  19.915  0.00  0.00    +0.000 A 
ATOM     22  C   UNL     1       2.808   4.005  20.853  0.00  0.00    +0.000 A 
ATOM     23  C   UNL     1       1.426   3.829  20.940  0.00  0.00    +0.000 A 
ATOM     24  C   UNL     1       0.787   2.918  20.109  0.00  0.00    +0.000 A 
ATOM     25  C   UNL     1       1.533   2.146  19.231  0.00  0.00    +0.000 A 
ATOM     26  C   UNL     1       2.918   2.311  19.148  0.00  0.00    +0.000 A 
ATOM     27 CL   UNL     1       3.813   1.283  18.080  0.00  0.00    +0.000 Cl
ENDBRANCH  20  21
ENDBRANCH  19  20
ENDBRANCH  16  19
ENDBRANCH   3  15
TORSDOF 6
ENDMDL
MODEL 2
REMARK VINA RESULT:      -7.7      0.779      1.131
REMARK  Name = 
REMARK  7 active torsions:
REMARK  status: ('A' for Active; 'I' for Inactive)
REMARK    1  A    between atoms: C_1  and  C_2
REMARK    2  A    between atoms: C_2  and  C_16
REMARK    3  A    between atoms: N_3  and  N_4
REMARK    4  A    between atoms: C_5  and  C_7
REMARK    5  A    between atoms: C_7  and  O_8
REMARK    6  A    between atoms: O_8  and  C_9
REMARK    7  A    between atoms: C_19  and  N_20
REMARK                            x       y       z     vdW  Elec       q    Type
REMARK                         _______ _______ _______ _____ _____    ______ ____
ROOT
ATOM      1  C   UNL     1       4.294   7.797  17.094  0.00  0.00    +0.000 C 
ATOM      2  C   UNL     1       3.290   6.989  17.888  0.00  0.00    +0.000 C 
ATOM      3  N   UNL     1       3.188   5.685  17.926  0.00  0.00    +0.000 NA
ENDROOT
BRANCH   2   4
ATOM      4  C   UNL     1       2.332   7.788  18.680  0.00  0.00    +0.000 A 
ATOM      5  C   UNL     1       1.734   8.921  18.121  0.00  0.00    +0.000 A 
ATOM      6  C   UNL     1       0.920   9.736  18.905  0.00  0.00    +0.000 A 
ATOM      7  C   UNL     1       0.698   9.422  20.252  0.00  0.00    +0.000 A 
ATOM      8  C   UNL     1       1.258   8.243  20.783  0.00  0.00    +0.000 A 
ATOM      9  C   UNL     1       2.065   7.426  19.996  0.00  0.00    +0.000 A 
BRANCH   7  10
ATOM     10  N   UNL     1      -0.074  10.298  21.075  0.00  0.00    +0.000 N 
ATOM     11  C   UNL     1      -0.308  10.164  22.438  0.00  0.00    +0.000 A 
ATOM     12  C   UNL     1      -1.112  11.203  22.857  0.00  0.00    +0.000 A 
ATOM     13  C   UNL     1      -1.388  12.002  21.736  0.00  0.00    +0.000 A 
ATOM     14  C   UNL     1      -0.748  11.432  20.661  0.00  0.00    +0.000 A 
ENDBRANCH   7  10
ENDBRANCH   2   4
BRANCH   3  15
ATOM     15  N   UNL     1       3.970   4.906  17.118  0.00  0.00    +0.000 N 
ATOM     16  C   UNL     1       5.205   4.390  17.504  0.00  0.00    +0.000 C 
ATOM     17  O   UNL     1       5.999   3.990  16.644  0.00  0.00    +0.000 OA
ATOM     18  H   UNL     1       3.996   5.210  16.146  0.00  0.00    +0.000 HD
BRANCH  16  19
ATOM     19  C   UNL     1       5.454   4.263  19.000  0.00  0.00    +0.000 C 
BRANCH  19  20
ATOM     20  O   UNL     1       4.903   3.157  19.670  0.00  0.00    +0.000 OA
BRANCH  20  21
ATOM     21  C   UNL     1       3.561   3.121  19.916  0.00  0.00    +0.000 A 
ATOM     22  C   UNL     1       2.869   3.872  20.876  0.00  0.00    +0.000 A 
ATOM     23  C   UNL     1       1.476   3.826  20.948  0.00  0.00    +0.000 A 
ATOM     24  C   UNL     1       0.760   3.013  20.079  0.00  0.00    +0.000 A 
ATOM     25  C   UNL     1       1.437   2.205  19.177  0.00  0.00    +0.000 A 
ATOM     26  C   UNL     1       2.833   2.239  19.109  0.00  0.00    +0.000 A 
ATOM     27 CL   UNL     1       3.635   1.168  18.009  0.00  0.00    +0.000 Cl
ENDBRANCH  20  21
ENDBRANCH  19  20
ENDBRANCH  16  19
ENDBRANCH   3  15
TORSDOF 6
ENDMDL
MODEL 3
REMARK VINA RESULT:      -7.5      0.813      1.252
REMARK  Name = 
REMARK  7 active torsions:
REMARK  status: ('A' for Active; 'I' for Inactive)
REMARK    1  A    between atoms: C_1  and  C_2
REMARK    2  A    between atoms: C_2  and  C_16
REMARK    3  A    between atoms: N_3  and  N_4
REMARK    4  A    between atoms: C_5  and  C_7
REMARK    5  A    between atoms: C_7  and  O_8
REMARK    6  A    between atoms: O_8  and  C_9
REMARK    7  A    between atoms: C_19  and  N_20
REMARK                            x       y       z     vdW  Elec       q    Type
REMARK                         _______ _______ _______ _____ _____    ______ ____
ROOT
ATOM      1  C   UNL     1       2.572   5.421  17.420  0.00  0.00    +0.000 C 
ATOM      2  C   UNL     1       3.365   6.628  17.874  0.00  0.00    +0.000 C 
ATOM      3  N   UNL     1       4.658   6.799  17.772  0.00  0.00    +0.000 NA
ENDROOT
BRANCH   2   4
ATOM      4  C   UNL     1       2.565   7.697  18.507  0.00  0.00    +0.000 A 
ATOM      5  C   UNL     1       2.132   7.558  19.829  0.00  0.00    +0.000 A 
ATOM      6  C   UNL     1       1.284   8.514  20.387  0.00  0.00    +0.000 A 
ATOM      7  C   UNL     1       0.867   9.614  19.626  0.00  0.00    +0.000 A 
ATOM      8  C   UNL     1       1.363   9.771  18.316  0.00  0.00    +0.000 A 
ATOM      9  C   UNL     1       2.216   8.818  17.764  0.00  0.00    +0.000 A 
BRANCH   7  10
ATOM     10  N   UNL     1      -0.061  10.552  20.170  0.00  0.00    +0.000 N 
ATOM     11  C   UNL     1      -1.184  11.073  19.538  0.00  0.00    +0.000 A 
ATOM     12  C   UNL     1      -1.808  11.958  20.391  0.00  0.00    +0.000 A 
ATOM     13  C   UNL     1      -1.062  11.994  21.581  0.00  0.00    +0.000 A 
ATOM     14  C   UNL     1      -0.003  11.133  21.424  0.00  0.00    +0.000 A 
ENDBRANCH   7  10
ENDBRANCH   2   4
BRANCH   3  15
ATOM     15  N   UNL     1       5.456   5.790  17.306  0.00  0.00    +0.000 N 
ATOM     16  C   UNL     1       6.076   4.854  18.130  0.00  0.00    +0.000 C 
ATOM     17  O   UNL     1       7.029   4.193  17.699  0.00  0.00    +0.000 OA
ATOM     18  H   UNL     1       6.076   6.068  16.547  0.00  0.00    +0.000 HD
BRANCH  16  19
ATOM     19  C   UNL     1       5.456   4.637  19.502  0.00  0.00    +0.000 C 
BRANCH  19  20
ATOM     20  O   UNL     1       4.875   3.386  19.776  0.00  0.00    +0.000 OA
BRANCH  20  21
ATOM     21  C   UNL     1       3.526   3.299  19.963  0.00  0.00    +0.000 A 
ATOM     22  C   UNL     1       2.744   4.121  20.783  0.00  0.00    +0.000 A 
ATOM     23  C   UNL     1       1.354   3.999  20.797  0.00  0.00    +0.000 A 
ATOM     24  C   UNL     1       0.732   3.038  20.010  0.00  0.00    +0.000 A 
ATOM     25  C   UNL     1       1.499   2.165  19.254  0.00  0.00    +0.000 A 
ATOM     26  C   UNL     1       2.893   2.277  19.246  0.00  0.00    +0.000 A 
ATOM     27 CL   UNL     1       3.811   1.126  18.333  0.00  0.00    +0.000 Cl
ENDBRANCH  20  21
ENDBRANCH  19  20
ENDBRANCH  16  19
ENDBRANCH   3  15
TORSDOF 6
ENDMDL
MODEL 4
REMARK VINA RESULT:      -7.5      2.149      4.093
REMARK  Name = 
REMARK  7 active torsions:
REMARK  status: ('A' for Active; 'I' for Inactive)
REMARK    1  A    between atoms: C_1  and  C_2
REMARK    2  A    between atoms: C_2  and  C_16
REMARK    3  A    between atoms: N_3  and  N_4
REMARK    4  A    between atoms: C_5  and  C_7
REMARK    5  A    between atoms: C_7  and  O_8
REMARK    6  A    between atoms: O_8  and  C_9
REMARK    7  A    between atoms: C_19  and  N_20
REMARK                            x       y       z     vdW  Elec       q    Type
REMARK                         _______ _______ _______ _____ _____    ______ ____
ROOT
ATOM      1  C   UNL     1       1.300   4.928  20.477  0.00  0.00    +0.000 C 
ATOM      2  C   UNL     1       2.378   5.837  19.928  0.00  0.00    +0.000 C 
ATOM      3  N   UNL     1       3.589   5.491  19.572  0.00  0.00    +0.000 NA
ENDROOT
BRANCH   2   4
ATOM      4  C   UNL     1       1.995   7.259  19.809  0.00  0.00    +0.000 A 
ATOM      5  C   UNL     1       1.402   7.918  20.890  0.00  0.00    +0.000 A 
ATOM      6  C   UNL     1       0.938   9.224  20.739  0.00  0.00    +0.000 A 
ATOM      7  C   UNL     1       1.066   9.878  19.506  0.00  0.00    +0.000 A 
ATOM      8  C   UNL     1       1.720   9.221  18.445  0.00  0.00    +0.000 A 
ATOM      9  C   UNL     1       2.190   7.919  18.601  0.00  0.00    +0.000 A 
BRANCH   7  10
ATOM     10  N   UNL     1       0.522  11.186  19.329  0.00  0.00    +0.000 N 
ATOM     11  C   UNL     1      -0.518  11.546  18.480  0.00  0.00    +0.000 A 
ATOM     12  C   UNL     1      -0.733  12.904  18.587  0.00  0.00    +0.000 A 
ATOM     13  C   UNL     1       0.191  13.405  19.519  0.00  0.00    +0.000 A 
ATOM     14  C   UNL     1       0.946  12.343  19.957  0.00  0.00    +0.000 A 
ENDBRANCH   7  10
ENDBRANCH   2   4
BRANCH   3  15
ATOM     15  N   UNL     1       4.032   4.213  19.778  0.00  0.00    +0.000 N 
ATOM     16  C   UNL     1       4.200   3.281  18.757  0.00  0.00    +0.000 C 
ATOM     17  O   UNL     1       4.274   2.077  19.031  0.00  0.00    +0.000 OA
ATOM     18  H   UNL     1       3.648   3.768  20.610  0.00  0.00    +0.000 HD
BRANCH  16  19
ATOM     19  C   UNL     1       4.384   3.835  17.352  0.00  0.00    +0.000 C 
BRANCH  19  20
ATOM     20  O   UNL     1       5.694   4.080  16.903  0.00  0.00    +0.000 OA
BRANCH  20  21
ATOM     21  C   UNL     1       6.412   5.102  17.455  0.00  0.00    +0.000 A 
ATOM     22  C   UNL     1       7.286   5.011  18.546  0.00  0.00    +0.000 A 
ATOM     23  C   UNL     1       8.049   6.111  18.940  0.00  0.00    +0.000 A 
ATOM     24  C   UNL     1       7.930   7.319  18.265  0.00  0.00    +0.000 A 
ATOM     25  C   UNL     1       7.010   7.445  17.235  0.00  0.00    +0.000 A 
ATOM     26  C   UNL     1       6.235   6.349  16.844  0.00  0.00    +0.000 A 
ATOM     27 CL   UNL     1       5.059   6.571  15.592  0.00  0.00    +0.000 Cl
ENDBRANCH  20  21
ENDBRANCH  19  20
ENDBRANCH  16  19
ENDBRANCH   3  15
TORSDOF 6
ENDMDL
MODEL 5
REMARK VINA RESULT:      -7.3      0.928      1.546
REMARK  Name = 
REMARK  7 active torsions:
REMARK  status: ('A' for Active; 'I' for Inactive)
REMARK    1  A    between atoms: C_1  and  C_2
REMARK    2  A    between atoms: C_2  and  C_16
REMARK    3  A    between atoms: N_3  and  N_4
REMARK    4  A    between atoms: C_5  and  C_7
REMARK    5  A    between atoms: C_7  and  O_8
REMARK    6  A    between atoms: O_8  and  C_9
REMARK    7  A    between atoms: C_19  and  N_20
REMARK                            x       y       z     vdW  Elec       q    Type
REMARK                         _______ _______ _______ _____ _____    ______ ____
ROOT
ATOM      1  C   UNL     1       3.828   7.727  16.860  0.00  0.00    +0.000 C 
ATOM      2  C   UNL     1       3.057   7.015  17.951  0.00  0.00    +0.000 C 
ATOM      3  N   UNL     1       2.980   5.723  18.140  0.00  0.00    +0.000 NA
ENDROOT
BRANCH   2   4
ATOM      4  C   UNL     1       2.315   7.902  18.870  0.00  0.00    +0.000 A 
ATOM      5  C   UNL     1       2.051   7.490  20.180  0.00  0.00    +0.000 A 
ATOM      6  C   UNL     1       1.254   8.278  21.009  0.00  0.00    +0.000 A 
ATOM      7  C   UNL     1       0.719   9.482  20.534  0.00  0.00    +0.000 A 
ATOM      8  C   UNL     1       1.046   9.913  19.232  0.00  0.00    +0.000 A 
ATOM      9  C   UNL     1       1.848   9.128  18.408  0.00  0.00    +0.000 A 
BRANCH   7  10
ATOM     10  N   UNL     1      -0.159  10.251  21.357  0.00  0.00    +0.000 N 
ATOM     11  C   UNL     1      -0.486  10.000  22.683  0.00  0.00    +0.000 A 
ATOM     12  C   UNL     1      -1.376  10.962  23.114  0.00  0.00    +0.000 A 
ATOM     13  C   UNL     1      -1.611  11.832  22.037  0.00  0.00    +0.000 A 
ATOM     14  C   UNL     1      -0.862  11.380  20.977  0.00  0.00    +0.000 A 
ENDBRANCH   7  10
ENDBRANCH   2   4
BRANCH   3  15
ATOM     15  N   UNL     1       3.548   4.857  17.246  0.00  0.00    +0.000 N 
ATOM     16  C   UNL     1       4.815   4.301  17.408  0.00  0.00    +0.000 C 
ATOM     17  O   UNL     1       5.398   3.809  16.434  0.00  0.00    +0.000 OA
ATOM     18  H   UNL     1       3.385   5.100  16.270  0.00  0.00    +0.000 HD
BRANCH  16  19
ATOM     19  C   UNL     1       5.361   4.250  18.827  0.00  0.00    +0.000 C 
BRANCH  19  20
ATOM     20  O   UNL     1       4.928   3.208  19.666  0.00  0.00    +0.000 OA
BRANCH  20  21
ATOM     21  C   UNL     1       3.610   3.125  20.007  0.00  0.00    +0.000 A 
ATOM     22  C   UNL     1       2.947   3.900  20.968  0.00  0.00    +0.000 A 
ATOM     23  C   UNL     1       1.566   3.794  21.141  0.00  0.00    +0.000 A 
ATOM     24  C   UNL     1       0.836   2.895  20.375  0.00  0.00    +0.000 A 
ATOM     25  C   UNL     1       1.490   2.065  19.477  0.00  0.00    +0.000 A 
ATOM     26  C   UNL     1       2.875   2.160  19.308  0.00  0.00    +0.000 A 
ATOM     27 CL   UNL     1       3.654   1.062  18.219  0.00  0.00    +0.000 Cl
ENDBRANCH  20  21
ENDBRANCH  19  20
ENDBRANCH  16  19
ENDBRANCH   3  15
TORSDOF 6
ENDMDL
MODEL 6
REMARK VINA RESULT:      -7.3      1.546      2.163
REMARK  Name = 
REMARK  7 active torsions:
REMARK  status: ('A' for Active; 'I' for Inactive)
REMARK    1  A    between atoms: C_1  and  C_2
REMARK    2  A    between atoms: C_2  and  C_16
REMARK    3  A    between atoms: N_3  and  N_4
REMARK    4  A    between atoms: C_5  and  C_7
REMARK    5  A    between atoms: C_7  and  O_8
REMARK    6  A    between atoms: O_8  and  C_9
REMARK    7  A    between atoms: C_19  and  N_20
REMARK                            x       y       z     vdW  Elec       q    Type
REMARK                         _______ _______ _______ _____ _____    ______ ____
ROOT
ATOM      1  C   UNL     1       4.252   5.763  19.461  0.00  0.00    +0.000 C 
ATOM      2  C   UNL     1       3.619   6.498  18.299  0.00  0.00    +0.000 C 
ATOM      3  N   UNL     1       3.819   6.271  17.026  0.00  0.00    +0.000 NA
ENDROOT
BRANCH   2   4
ATOM      4  C   UNL     1       2.696   7.587  18.678  0.00  0.00    +0.000 A 
ATOM      5  C   UNL     1       2.126   7.610  19.954  0.00  0.00    +0.000 A 
ATOM      6  C   UNL     1       1.170   8.574  20.271  0.00  0.00    +0.000 A 
ATOM      7  C   UNL     1       0.779   9.520  19.315  0.00  0.00    +0.000 A 
ATOM      8  C   UNL     1       1.409   9.521  18.054  0.00  0.00    +0.000 A 
ATOM      9  C   UNL     1       2.369   8.562  17.741  0.00  0.00    +0.000 A 
BRANCH   7  10
ATOM     10  N   UNL     1      -0.255  10.458  19.614  0.00  0.00    +0.000 N 
ATOM     11  C   UNL     1      -0.445  11.129  20.816  0.00  0.00    +0.000 A 
ATOM     12  C   UNL     1      -1.561  11.932  20.708  0.00  0.00    +0.000 A 
ATOM     13  C   UNL     1      -2.081  11.760  19.414  0.00  0.00    +0.000 A 
ATOM     14  C   UNL     1      -1.272  10.857  18.766  0.00  0.00    +0.000 A 
ENDBRANCH   7  10
ENDBRANCH   2   4
BRANCH   3  15
ATOM     15  N   UNL     1       4.754   5.357  16.624  0.00  0.00    +0.000 N 
ATOM     16  C   UNL     1       4.546   3.980  16.642  0.00  0.00    +0.000 C 
ATOM     17  O   UNL     1       5.514   3.212  16.592  0.00  0.00    +0.000 OA
ATOM     18  H   UNL     1       5.705   5.580  16.915  0.00  0.00    +0.000 HD
BRANCH  16  19
ATOM     19  C   UNL     1       3.099   3.509  16.621  0.00  0.00    +0.000 C 
BRANCH  19  20
ATOM     20  O   UNL     1       2.705   2.538  17.557  0.00  0.00    +0.000 OA
BRANCH  20  21
ATOM     21  C   UNL     1       2.301   2.929  18.800  0.00  0.00    +0.000 A 
ATOM     22  C   UNL     1       1.199   3.740  19.102  0.00  0.00    +0.000 A 
ATOM     23  C   UNL     1       0.826   3.972  20.427  0.00  0.00    +0.000 A 
ATOM     24  C   UNL     1       1.563   3.417  21.464  0.00  0.00    +0.000 A 
ATOM     25  C   UNL     1       2.702   2.678  21.182  0.00  0.00    +0.000 A 
ATOM     26  C   UNL     1       3.086   2.452  19.857  0.00  0.00    +0.000 A 
ATOM     27 CL   UNL     1       4.549   1.575  19.556  0.00  0.00    +0.000 Cl
ENDBRANCH  20  21
ENDBRANCH  19  20
ENDBRANCH  16  19
ENDBRANCH   3  15
TORSDOF 6
ENDMDL
MODEL 7
REMARK VINA RESULT:      -7.3      4.407      8.642
REMARK  Name = 
REMARK  7 active torsions:
REMARK  status: ('A' for Active; 'I' for Inactive)
REMARK    1  A    between atoms: C_1  and  C_2
REMARK    2  A    between atoms: C_2  and  C_16
REMARK    3  A    between atoms: N_3  and  N_4
REMARK    4  A    between atoms: C_5  and  C_7
REMARK    5  A    between atoms: C_7  and  O_8
REMARK    6  A    between atoms: O_8  and  C_9
REMARK    7  A    between atoms: C_19  and  N_20
REMARK                            x       y       z     vdW  Elec       q    Type
REMARK                         _______ _______ _______ _____ _____    ______ ____
ROOT
ATOM      1  C   UNL     1       2.578   4.779  20.542  0.00  0.00    +0.000 C 
ATOM      2  C   UNL     1       2.736   5.963  19.612  0.00  0.00    +0.000 C 
ATOM      3  N   UNL     1       2.321   7.185  19.823  0.00  0.00    +0.000 NA
ENDROOT
BRANCH   2   4
ATOM      4  C   UNL     1       3.422   5.668  18.337  0.00  0.00    +0.000 A 
ATOM      5  C   UNL     1       3.448   4.361  17.842  0.00  0.00    +0.000 A 
ATOM      6  C   UNL     1       4.190   4.065  16.699  0.00  0.00    +0.000 A 
ATOM      7  C   UNL     1       4.908   5.074  16.046  0.00  0.00    +0.000 A 
ATOM      8  C   UNL     1       4.821   6.398  16.522  0.00  0.00    +0.000 A 
ATOM      9  C   UNL     1       4.073   6.692  17.659  0.00  0.00    +0.000 A 
BRANCH   7  10
ATOM     10  N   UNL     1       5.729   4.757  14.922  0.00  0.00    +0.000 N 
ATOM     11  C   UNL     1       5.397   3.926  13.859  0.00  0.00    +0.000 A 
ATOM     12  C   UNL     1       6.465   3.866  12.988  0.00  0.00    +0.000 A 
ATOM     13  C   UNL     1       7.486   4.673  13.515  0.00  0.00    +0.000 A 
ATOM     14  C   UNL     1       7.018   5.205  14.693  0.00  0.00    +0.000 A 
ENDBRANCH   7  10
ENDBRANCH   2   4
BRANCH   3  15
ATOM     15  N   UNL     1       1.575   7.482  20.931  0.00  0.00    +0.000 N 
ATOM     16  C   UNL     1       1.088   8.755  21.215  0.00  0.00    +0.000 C 
ATOM     17  O   UNL     1       0.722   9.030  22.365  0.00  0.00    +0.000 OA
ATOM     18  H   UNL     1       1.894   7.021  21.783  0.00  0.00    +0.000 HD
BRANCH  16  19
ATOM     19  C   UNL     1       0.945   9.709  20.038  0.00  0.00    +0.000 C 
BRANCH  19  20
ATOM     20  O   UNL     1      -0.092  10.656  20.076  0.00  0.00    +0.000 OA
BRANCH  20  21
ATOM     21  C   UNL     1      -1.003  10.696  19.060  0.00  0.00    +0.000 A 
ATOM     22  C   UNL     1      -0.958   9.956  17.872  0.00  0.00    +0.000 A 
ATOM     23  C   UNL     1      -2.016  10.003  16.962  0.00  0.00    +0.000 A 
ATOM     24  C   UNL     1      -3.118  10.809  17.218  0.00  0.00    +0.000 A 
ATOM     25  C   UNL     1      -3.139  11.608  18.352  0.00  0.00    +0.000 A 
ATOM     26  C   UNL     1      -2.077  11.572  19.260  0.00  0.00    +0.000 A 
ATOM     27 CL   UNL     1      -2.122  12.631  20.630  0.00  0.00    +0.000 Cl
ENDBRANCH  20  21
ENDBRANCH  19  20
ENDBRANCH  16  19
ENDBRANCH   3  15
TORSDOF 6
ENDMDL
MODEL 8
REMARK VINA RESULT:      -7.2      2.229      4.135
REMARK  Name = 
REMARK  7 active torsions:
REMARK  status: ('A' for Active; 'I' for Inactive)
REMARK    1  A    between atoms: C_1  and  C_2
REMARK    2  A    between atoms: C_2  and  C_16
REMARK    3  A    between atoms: N_3  and  N_4
REMARK    4  A    between atoms: C_5  and  C_7
REMARK    5  A    between atoms: C_7  and  O_8
REMARK    6  A    between atoms: O_8  and  C_9
REMARK    7  A    between atoms: C_19  and  N_20
REMARK                            x       y       z     vdW  Elec       q    Type
REMARK                         _______ _______ _______ _____ _____    ______ ____
ROOT
ATOM      1  C   UNL     1       2.113   4.598  21.120  0.00  0.00    +0.000 C 
ATOM      2  C   UNL     1       2.061   5.185  19.726  0.00  0.00    +0.000 C 
ATOM      3  N   UNL     1       2.134   4.529  18.597  0.00  0.00    +0.000 NA
ENDROOT
BRANCH   2   4
ATOM      4  C   UNL     1       1.927   6.656  19.673  0.00  0.00    +0.000 A 
ATOM      5  C   UNL     1       1.368   7.347  20.751  0.00  0.00    +0.000 A 
ATOM      6  C   UNL     1       1.139   8.719  20.654  0.00  0.00    +0.000 A 
ATOM      7  C   UNL     1       1.470   9.406  19.478  0.00  0.00    +0.000 A 
ATOM      8  C   UNL     1       2.090   8.705  18.425  0.00  0.00    +0.000 A 
ATOM      9  C   UNL     1       2.324   7.336  18.527  0.00  0.00    +0.000 A 
BRANCH   7  10
ATOM     10  N   UNL     1       1.165  10.795  19.350  0.00  0.00    +0.000 N 
ATOM     11  C   UNL     1       1.762  11.699  18.479  0.00  0.00    +0.000 A 
ATOM     12  C   UNL     1       1.201  12.943  18.673  0.00  0.00    +0.000 A 
ATOM     13  C   UNL     1       0.236  12.818  19.686  0.00  0.00    +0.000 A 
ATOM     14  C   UNL     1       0.232  11.503  20.084  0.00  0.00    +0.000 A 
ENDBRANCH   7  10
ENDBRANCH   2   4
BRANCH   3  15
ATOM     15  N   UNL     1       2.380   3.183  18.592  0.00  0.00    +0.000 N 
ATOM     16  C   UNL     1       3.647   2.631  18.421  0.00  0.00    +0.000 C 
ATOM     17  O   UNL     1       3.760   1.443  18.094  0.00  0.00    +0.000 OA
ATOM     18  H   UNL     1       1.679   2.634  18.097  0.00  0.00    +0.000 HD
BRANCH  16  19
ATOM     19  C   UNL     1       4.832   3.526  18.754  0.00  0.00    +0.000 C 
BRANCH  19  20
ATOM     20  O   UNL     1       5.483   4.183  17.696  0.00  0.00    +0.000 OA
BRANCH  20  21
ATOM     21  C   UNL     1       6.306   5.238  17.966  0.00  0.00    +0.000 A 
ATOM     22  C   UNL     1       7.298   5.289  18.953  0.00  0.00    +0.000 A 
ATOM     23  C   UNL     1       8.151   6.390  19.050  0.00  0.00    +0.000 A 
ATOM     24  C   UNL     1       8.005   7.462  18.179  0.00  0.00    +0.000 A 
ATOM     25  C   UNL     1       6.976   7.459  17.249  0.00  0.00    +0.000 A 
ATOM     26  C   UNL     1       6.113   6.363  17.156  0.00  0.00    +0.000 A 
ATOM     27 CL   UNL     1       4.807   6.432  16.020  0.00  0.00    +0.000 Cl
ENDBRANCH  20  21
ENDBRANCH  19  20
ENDBRANCH  16  19
ENDBRANCH   3  15
TORSDOF 6
ENDMDL
MODEL 9
REMARK VINA RESULT:      -7.1      1.497      1.921
REMARK  Name = 
REMARK  7 active torsions:
REMARK  status: ('A' for Active; 'I' for Inactive)
REMARK    1  A    between atoms: C_1  and  C_2
REMARK    2  A    between atoms: C_2  and  C_16
REMARK    3  A    between atoms: N_3  and  N_4
REMARK    4  A    between atoms: C_5  and  C_7
REMARK    5  A    between atoms: C_7  and  O_8
REMARK    6  A    between atoms: O_8  and  C_9
REMARK    7  A    between atoms: C_19  and  N_20
REMARK                            x       y       z     vdW  Elec       q    Type
REMARK                         _______ _______ _______ _____ _____    ______ ____
ROOT
ATOM      1  C   UNL     1       5.473   5.969  18.829  0.00  0.00    +0.000 C 
ATOM      2  C   UNL     1       4.474   6.461  17.803  0.00  0.00    +0.000 C 
ATOM      3  N   UNL     1       4.522   6.271  16.509  0.00  0.00    +0.000 NA
ENDROOT
BRANCH   2   4
ATOM      4  C   UNL     1       3.349   7.245  18.353  0.00  0.00    +0.000 A 
ATOM      5  C   UNL     1       2.887   8.377  17.675  0.00  0.00    +0.000 A 
ATOM      6  C   UNL     1       1.903   9.179  18.251  0.00  0.00    +0.000 A 
ATOM      7  C   UNL     1       1.376   8.852  19.507  0.00  0.00    +0.000 A 
ATOM      8  C   UNL     1       1.808   7.674  20.148  0.00  0.00    +0.000 A 
ATOM      9  C   UNL     1       2.786   6.870  19.567  0.00  0.00    +0.000 A 
BRANCH   7  10
ATOM     10  N   UNL     1       0.424   9.714  20.132  0.00  0.00    +0.000 N 
ATOM     11  C   UNL     1      -0.435  10.602  19.496  0.00  0.00    +0.000 A 
ATOM     12  C   UNL     1      -1.183  11.261  20.449  0.00  0.00    +0.000 A 
ATOM     13  C   UNL     1      -0.784  10.778  21.706  0.00  0.00    +0.000 A 
ATOM     14  C   UNL     1       0.196   9.839  21.490  0.00  0.00    +0.000 A 
ENDBRANCH   7  10
ENDBRANCH   2   4
BRANCH   3  15
ATOM     15  N   UNL     1       5.604   5.657  15.939  0.00  0.00    +0.000 N 
ATOM     16  C   UNL     1       5.827   4.284  15.987  0.00  0.00    +0.000 C 
ATOM     17  O   UNL     1       6.957   3.837  15.758  0.00  0.00    +0.000 OA
ATOM     18  H   UNL     1       6.479   6.167  16.053  0.00  0.00    +0.000 HD
BRANCH  16  19
ATOM     19  C   UNL     1       4.609   3.403  16.226  0.00  0.00    +0.000 C 
BRANCH  19  20
ATOM     20  O   UNL     1       4.431   2.853  17.507  0.00  0.00    +0.000 OA
BRANCH  20  21
ATOM     21  C   UNL     1       3.265   3.080  18.179  0.00  0.00    +0.000 A 
ATOM     22  C   UNL     1       2.112   3.688  17.666  0.00  0.00    +0.000 A 
ATOM     23  C   UNL     1       0.944   3.757  18.426  0.00  0.00    +0.000 A 
ATOM     24  C   UNL     1       0.921   3.241  19.715  0.00  0.00    +0.000 A 
ATOM     25  C   UNL     1       2.077   2.708  20.264  0.00  0.00    +0.000 A 
ATOM     26  C   UNL     1       3.253   2.647  19.510  0.00  0.00    +0.000 A 
ATOM     27 CL   UNL     1       4.687   2.028  20.259  0.00  0.00    +0.000 Cl
ENDBRANCH  20  21
ENDBRANCH  19  20
ENDBRANCH  16  19
ENDBRANCH   3  15
TORSDOF 6
ENDMDL
