MODEL 1
REMARK VINA RESULT:      -8.0      0.000      0.000
REMARK  Name = 
REMARK  10 active torsions:
REMARK  status: ('A' for Active; 'I' for Inactive)
REMARK    1  A    between atoms: C_1  and  C_2
REMARK    2  A    between atoms: C_2  and  C_3
REMARK    3  A    between atoms: C_3  and  C_4
REMARK    4  A    between atoms: C_4  and  S_5
REMARK    5  A    between atoms: S_5  and  C_8
REMARK    6  A    between atoms: C_8  and  S_18
REMARK    7  A    between atoms: S_18  and  C_21
REMARK    8  A    between atoms: C_21  and  C_22
REMARK    9  A    between atoms: C_22  and  C_23
REMARK   10  A    between atoms: C_23  and  C_24
REMARK                            x       y       z     vdW  Elec       q    Type
REMARK                         _______ _______ _______ _____ _____    ______ ____
ROOT
ATOM      1  C   UNL     1       5.971   5.047  17.392  0.00  0.00    +0.000 C 
ATOM      2  C   UNL     1       4.823   4.628  17.973  0.00  0.00    +0.000 C 
ATOM      3  N   UNL     1       3.587   4.411  17.322  0.00  0.00    +0.000 N 
ATOM      4  C   UNL     1       2.733   3.754  18.222  0.00  0.00    +0.000 A 
ATOM      5  C   UNL     1       1.441   3.327  18.088  0.00  0.00    +0.000 A 
ATOM      6  C   UNL     1       0.816   2.774  19.218  0.00  0.00    +0.000 A 
ATOM      7  C   UNL     1       1.491   2.692  20.455  0.00  0.00    +0.000 A 
ATOM      8  C   UNL     1       2.796   3.169  20.591  0.00  0.00    +0.000 A 
ATOM      9  C   UNL     1       3.394   3.682  19.462  0.00  0.00    +0.000 A 
ATOM     10  N   UNL     1       4.647   4.303  19.327  0.00  0.00    +0.000 N 
ATOM     11  H   UNL     1       3.555   4.236  16.320  0.00  0.00    +0.000 HD
ATOM     12  H   UNL     1       5.388   3.991  19.929  0.00  0.00    +0.000 HD
ENDROOT
BRANCH   1  13
ATOM     13  S   UNL     1       6.013   5.376  15.687  0.00  0.00    +0.000 S 
ATOM     14  O   UNL     1       7.388   5.590  15.257  0.00  0.00    +0.000 OA
ATOM     15  O   UNL     1       5.048   6.412  15.367  0.00  0.00    +0.000 OA
BRANCH  13  16
ATOM     16  C   UNL     1       5.480   3.833  14.935  0.00  0.00    +0.000 C 
BRANCH  16  17
ATOM     17  C   UNL     1       5.157   3.999  13.442  0.00  0.00    +0.000 C 
BRANCH  17  19
ATOM     18  C   UNL     1       5.729   2.322  11.622  0.00  0.00    +0.000 C 
ATOM     19  C   UNL     1       6.255   3.418  12.545  0.00  0.00    +0.000 C 
ENDBRANCH  17  19
ENDBRANCH  16  17
ENDBRANCH  13  16
ENDBRANCH   1  13
BRANCH   1  20
ATOM     20  S   UNL     1       7.364   5.382  18.363  0.00  0.00    +0.000 S 
ATOM     21  O   UNL     1       6.984   5.599  19.750  0.00  0.00    +0.000 OA
ATOM     22  O   UNL     1       8.387   4.392  18.089  0.00  0.00    +0.000 OA
BRANCH  20  23
ATOM     23  C   UNL     1       7.983   6.946  17.736  0.00  0.00    +0.000 C 
BRANCH  23  24
ATOM     24  C   UNL     1       8.388   7.912  18.853  0.00  0.00    +0.000 C 
BRANCH  24  25
ATOM     25  C   UNL     1       8.466   9.348  18.321  0.00  0.00    +0.000 C 
ATOM     26  C   UNL     1       9.305  10.257  19.207  0.00  0.00    +0.000 C 
ENDBRANCH  24  25
ENDBRANCH  23  24
ENDBRANCH  20  23
ENDBRANCH   1  20
TORSDOF 8
ENDMDL
MODEL 2
REMARK VINA RESULT:      -7.8      1.943      6.627
REMARK  Name = 
REMARK  10 active torsions:
REMARK  status: ('A' for Active; 'I' for Inactive)
REMARK    1  A    between atoms: C_1  and  C_2
REMARK    2  A    between atoms: C_2  and  C_3
REMARK    3  A    between atoms: C_3  and  C_4
REMARK    4  A    between atoms: C_4  and  S_5
REMARK    5  A    between atoms: S_5  and  C_8
REMARK    6  A    between atoms: C_8  and  S_18
REMARK    7  A    between atoms: S_18  and  C_21
REMARK    8  A    between atoms: C_21  and  C_22
REMARK    9  A    between atoms: C_22  and  C_23
REMARK   10  A    between atoms: C_23  and  C_24
REMARK                            x       y       z     vdW  Elec       q    Type
REMARK                         _______ _______ _______ _____ _____    ______ ____
ROOT
ATOM      1  C   UNL     1       5.966   4.518  17.566  0.00  0.00    +0.000 C 
ATOM      2  C   UNL     1       6.104   4.530  16.219  0.00  0.00    +0.000 C 
ATOM      3  N   UNL     1       7.143   5.152  15.491  0.00  0.00    +0.000 N 
ATOM      4  C   UNL     1       7.053   4.725  14.157  0.00  0.00    +0.000 A 
ATOM      5  C   UNL     1       7.810   5.034  13.061  0.00  0.00    +0.000 A 
ATOM      6  C   UNL     1       7.408   4.507  11.822  0.00  0.00    +0.000 A 
ATOM      7  C   UNL     1       6.246   3.712  11.712  0.00  0.00    +0.000 A 
ATOM      8  C   UNL     1       5.458   3.438  12.831  0.00  0.00    +0.000 A 
ATOM      9  C   UNL     1       5.888   3.945  14.036  0.00  0.00    +0.000 A 
ATOM     10  N   UNL     1       5.258   3.902  15.292  0.00  0.00    +0.000 N 
ATOM     11  H   UNL     1       8.036   5.354  15.936  0.00  0.00    +0.000 HD
ATOM     12  H   UNL     1       4.695   3.098  15.502  0.00  0.00    +0.000 HD
ENDROOT
BRANCH   1  13
ATOM     13  S   UNL     1       7.131   5.327  18.567  0.00  0.00    +0.000 S 
ATOM     14  O   UNL     1       8.451   4.748  18.360  0.00  0.00    +0.000 OA
ATOM     15  O   UNL     1       6.639   5.392  19.932  0.00  0.00    +0.000 OA
BRANCH  13  16
ATOM     16  C   UNL     1       7.198   6.994  17.894  0.00  0.00    +0.000 C 
BRANCH  16  17
ATOM     17  C   UNL     1       8.362   7.807  18.479  0.00  0.00    +0.000 C 
BRANCH  17  19
ATOM     18  C   UNL     1       9.118  10.182  18.971  0.00  0.00    +0.000 C 
ATOM     19  C   UNL     1       8.319   9.275  18.039  0.00  0.00    +0.000 C 
ENDBRANCH  17  19
ENDBRANCH  16  17
ENDBRANCH  13  16
ENDBRANCH   1  13
BRANCH   1  20
ATOM     20  S   UNL     1       4.560   3.812  18.288  0.00  0.00    +0.000 S 
ATOM     21  O   UNL     1       3.826   3.018  17.316  0.00  0.00    +0.000 OA
ATOM     22  O   UNL     1       4.934   3.176  19.537  0.00  0.00    +0.000 OA
BRANCH  20  23
ATOM     23  C   UNL     1       3.524   5.213  18.716  0.00  0.00    +0.000 C 
BRANCH  23  24
ATOM     24  C   UNL     1       3.055   5.178  20.175  0.00  0.00    +0.000 C 
BRANCH  24  25
ATOM     25  C   UNL     1       1.537   4.980  20.248  0.00  0.00    +0.000 C 
ATOM     26  C   UNL     1       1.114   3.556  19.918  0.00  0.00    +0.000 C 
ENDBRANCH  24  25
ENDBRANCH  23  24
ENDBRANCH  20  23
ENDBRANCH   1  20
TORSDOF 8
ENDMDL
MODEL 3
REMARK VINA RESULT:      -7.8      1.985      5.550
REMARK  Name = 
REMARK  10 active torsions:
REMARK  status: ('A' for Active; 'I' for Inactive)
REMARK    1  A    between atoms: C_1  and  C_2
REMARK    2  A    between atoms: C_2  and  C_3
REMARK    3  A    between atoms: C_3  and  C_4
REMARK    4  A    between atoms: C_4  and  S_5
REMARK    5  A    between atoms: S_5  and  C_8
REMARK    6  A    between atoms: C_8  and  S_18
REMARK    7  A    between atoms: S_18  and  C_21
REMARK    8  A    between atoms: C_21  and  C_22
REMARK    9  A    between atoms: C_22  and  C_23
REMARK   10  A    between atoms: C_23  and  C_24
REMARK                            x       y       z     vdW  Elec       q    Type
REMARK                         _______ _______ _______ _____ _____    ______ ____
ROOT
ATOM      1  C   UNL     1       5.976   4.445  17.598  0.00  0.00    +0.000 C 
ATOM      2  C   UNL     1       6.238   4.300  16.278  0.00  0.00    +0.000 C 
ATOM      3  N   UNL     1       5.469   3.563  15.349  0.00  0.00    +0.000 N 
ATOM      4  C   UNL     1       5.938   3.867  14.061  0.00  0.00    +0.000 A 
ATOM      5  C   UNL     1       5.541   3.421  12.831  0.00  0.00    +0.000 A 
ATOM      6  C   UNL     1       6.279   3.846  11.714  0.00  0.00    +0.000 A 
ATOM      7  C   UNL     1       7.409   4.681  11.863  0.00  0.00    +0.000 A 
ATOM      8  C   UNL     1       7.830   5.095  13.128  0.00  0.00    +0.000 A 
ATOM      9  C   UNL     1       7.074   4.685  14.202  0.00  0.00    +0.000 A 
ATOM     10  N   UNL     1       7.308   4.876  15.575  0.00  0.00    +0.000 N 
ATOM     11  H   UNL     1       4.488   3.363  15.534  0.00  0.00    +0.000 HD
ATOM     12  H   UNL     1       7.771   5.722  15.855  0.00  0.00    +0.000 HD
ENDROOT
BRANCH   1  13
ATOM     13  S   UNL     1       4.582   3.680  18.297  0.00  0.00    +0.000 S 
ATOM     14  O   UNL     1       4.916   3.141  19.608  0.00  0.00    +0.000 OA
ATOM     15  O   UNL     1       3.993   2.768  17.333  0.00  0.00    +0.000 OA
BRANCH  13  16
ATOM     16  C   UNL     1       3.440   5.039  18.584  0.00  0.00    +0.000 C 
BRANCH  16  17
ATOM     17  C   UNL     1       3.096   5.201  20.072  0.00  0.00    +0.000 C 
BRANCH  17  19
ATOM     18  C   UNL     1       1.119   3.640  19.742  0.00  0.00    +0.000 C 
ATOM     19  C   UNL     1       1.610   4.950  20.351  0.00  0.00    +0.000 C 
ENDBRANCH  17  19
ENDBRANCH  16  17
ENDBRANCH  13  16
ENDBRANCH   1  13
BRANCH   1  20
ATOM     20  S   UNL     1       7.096   5.281  18.619  0.00  0.00    +0.000 S 
ATOM     21  O   UNL     1       6.562   5.417  19.965  0.00  0.00    +0.000 OA
ATOM     22  O   UNL     1       8.411   4.689  18.470  0.00  0.00    +0.000 OA
BRANCH  20  23
ATOM     23  C   UNL     1       7.194   6.931  17.921  0.00  0.00    +0.000 C 
BRANCH  23  24
ATOM     24  C   UNL     1       8.337   7.758  18.517  0.00  0.00    +0.000 C 
BRANCH  24  25
ATOM     25  C   UNL     1       8.265   9.209  18.026  0.00  0.00    +0.000 C 
ATOM     26  C   UNL     1       9.101  10.157  18.872  0.00  0.00    +0.000 C 
ENDBRANCH  24  25
ENDBRANCH  23  24
ENDBRANCH  20  23
ENDBRANCH   1  20
TORSDOF 8
ENDMDL
MODEL 4
REMARK VINA RESULT:      -7.7      0.873      5.149
REMARK  Name = 
REMARK  10 active torsions:
REMARK  status: ('A' for Active; 'I' for Inactive)
REMARK    1  A    between atoms: C_1  and  C_2
REMARK    2  A    between atoms: C_2  and  C_3
REMARK    3  A    between atoms: C_3  and  C_4
REMARK    4  A    between atoms: C_4  and  S_5
REMARK    5  A    between atoms: S_5  and  C_8
REMARK    6  A    between atoms: C_8  and  S_18
REMARK    7  A    between atoms: S_18  and  C_21
REMARK    8  A    between atoms: C_21  and  C_22
REMARK    9  A    between atoms: C_22  and  C_23
REMARK   10  A    between atoms: C_23  and  C_24
REMARK                            x       y       z     vdW  Elec       q    Type
REMARK                         _______ _______ _______ _____ _____    ______ ____
ROOT
ATOM      1  C   UNL     1       5.581   4.948  17.483  0.00  0.00    +0.000 C 
ATOM      2  C   UNL     1       4.565   4.378  18.172  0.00  0.00    +0.000 C 
ATOM      3  N   UNL     1       4.568   4.050  19.547  0.00  0.00    +0.000 N 
ATOM      4  C   UNL     1       3.256   3.712  19.914  0.00  0.00    +0.000 A 
ATOM      5  C   UNL     1       2.730   3.320  21.114  0.00  0.00    +0.000 A 
ATOM      6  C   UNL     1       1.373   2.956  21.144  0.00  0.00    +0.000 A 
ATOM      7  C   UNL     1       0.591   2.968  19.968  0.00  0.00    +0.000 A 
ATOM      8  C   UNL     1       1.150   3.330  18.741  0.00  0.00    +0.000 A 
ATOM      9  C   UNL     1       2.473   3.706  18.745  0.00  0.00    +0.000 A 
ATOM     10  N   UNL     1       3.306   4.030  17.660  0.00  0.00    +0.000 N 
ATOM     11  H   UNL     1       5.206   4.517  20.188  0.00  0.00    +0.000 HD
ATOM     12  H   UNL     1       2.882   4.474  16.865  0.00  0.00    +0.000 HD
ENDROOT
BRANCH   1  13
ATOM     13  S   UNL     1       7.067   5.341  18.291  0.00  0.00    +0.000 S 
ATOM     14  O   UNL     1       8.098   4.376  17.932  0.00  0.00    +0.000 OA
ATOM     15  O   UNL     1       6.813   5.546  19.705  0.00  0.00    +0.000 OA
BRANCH  13  16
ATOM     16  C   UNL     1       7.559   6.906  17.556  0.00  0.00    +0.000 C 
BRANCH  16  17
ATOM     17  C   UNL     1       8.345   7.785  18.540  0.00  0.00    +0.000 C 
BRANCH  17  19
ATOM     18  C   UNL     1       9.154  10.132  19.081  0.00  0.00    +0.000 C 
ATOM     19  C   UNL     1       8.339   9.261  18.128  0.00  0.00    +0.000 C 
ENDBRANCH  17  19
ENDBRANCH  16  17
ENDBRANCH  13  16
ENDBRANCH   1  13
BRANCH   1  20
ATOM     20  S   UNL     1       5.454   5.166  15.770  0.00  0.00    +0.000 S 
ATOM     21  O   UNL     1       4.504   4.225  15.201  0.00  0.00    +0.000 OA
ATOM     22  O   UNL     1       5.267   6.575  15.482  0.00  0.00    +0.000 OA
BRANCH  20  23
ATOM     23  C   UNL     1       7.076   4.725  15.141  0.00  0.00    +0.000 C 
BRANCH  23  24
ATOM     24  C   UNL     1       7.155   4.794  13.612  0.00  0.00    +0.000 C 
BRANCH  24  25
ATOM     25  C   UNL     1       6.266   3.717  12.978  0.00  0.00    +0.000 C 
ATOM     26  C   UNL     1       6.821   3.201  11.659  0.00  0.00    +0.000 C 
ENDBRANCH  24  25
ENDBRANCH  23  24
ENDBRANCH  20  23
ENDBRANCH   1  20
TORSDOF 8
ENDMDL
MODEL 5
REMARK VINA RESULT:      -7.7      2.259      6.296
REMARK  Name = 
REMARK  10 active torsions:
REMARK  status: ('A' for Active; 'I' for Inactive)
REMARK    1  A    between atoms: C_1  and  C_2
REMARK    2  A    between atoms: C_2  and  C_3
REMARK    3  A    between atoms: C_3  and  C_4
REMARK    4  A    between atoms: C_4  and  S_5
REMARK    5  A    between atoms: S_5  and  C_8
REMARK    6  A    between atoms: C_8  and  S_18
REMARK    7  A    between atoms: S_18  and  C_21
REMARK    8  A    between atoms: C_21  and  C_22
REMARK    9  A    between atoms: C_22  and  C_23
REMARK   10  A    between atoms: C_23  and  C_24
REMARK                            x       y       z     vdW  Elec       q    Type
REMARK                         _______ _______ _______ _____ _____    ______ ____
ROOT
ATOM      1  C   UNL     1       6.017   4.565  17.587  0.00  0.00    +0.000 C 
ATOM      2  C   UNL     1       6.120   4.561  16.238  0.00  0.00    +0.000 C 
ATOM      3  N   UNL     1       7.163   5.136  15.477  0.00  0.00    +0.000 N 
ATOM      4  C   UNL     1       7.021   4.702  14.150  0.00  0.00    +0.000 A 
ATOM      5  C   UNL     1       7.760   4.972  13.031  0.00  0.00    +0.000 A 
ATOM      6  C   UNL     1       7.305   4.453  11.808  0.00  0.00    +0.000 A 
ATOM      7  C   UNL     1       6.110   3.705  11.735  0.00  0.00    +0.000 A 
ATOM      8  C   UNL     1       5.341   3.471  12.877  0.00  0.00    +0.000 A 
ATOM      9  C   UNL     1       5.823   3.969  14.066  0.00  0.00    +0.000 A 
ATOM     10  N   UNL     1       5.226   3.960  15.338  0.00  0.00    +0.000 N 
ATOM     11  H   UNL     1       8.075   5.305  15.897  0.00  0.00    +0.000 HD
ATOM     12  H   UNL     1       4.637   3.181  15.569  0.00  0.00    +0.000 HD
ENDROOT
BRANCH   1  13
ATOM     13  S   UNL     1       7.240   5.334  18.551  0.00  0.00    +0.000 S 
ATOM     14  O   UNL     1       8.529   4.696  18.320  0.00  0.00    +0.000 OA
ATOM     15  O   UNL     1       6.785   5.434  19.926  0.00  0.00    +0.000 OA
BRANCH  13  16
ATOM     16  C   UNL     1       7.361   6.988  17.857  0.00  0.00    +0.000 C 
BRANCH  16  17
ATOM     17  C   UNL     1       8.404   7.847  18.589  0.00  0.00    +0.000 C 
BRANCH  17  19
ATOM     18  C   UNL     1       9.161  10.228  19.049  0.00  0.00    +0.000 C 
ATOM     19  C   UNL     1       8.390   9.303  18.111  0.00  0.00    +0.000 C 
ENDBRANCH  17  19
ENDBRANCH  16  17
ENDBRANCH  13  16
ENDBRANCH   1  13
BRANCH   1  20
ATOM     20  S   UNL     1       4.604   3.921  18.352  0.00  0.00    +0.000 S 
ATOM     21  O   UNL     1       3.761   3.239  17.384  0.00  0.00    +0.000 OA
ATOM     22  O   UNL     1       4.997   3.189  19.541  0.00  0.00    +0.000 OA
BRANCH  20  23
ATOM     23  C   UNL     1       3.701   5.366  18.915  0.00  0.00    +0.000 C 
BRANCH  23  24
ATOM     24  C   UNL     1       3.623   6.465  17.851  0.00  0.00    +0.000 C 
BRANCH  24  25
ATOM     25  C   UNL     1       2.640   7.561  18.280  0.00  0.00    +0.000 C 
ATOM     26  C   UNL     1       2.193   7.415  19.727  0.00  0.00    +0.000 C 
ENDBRANCH  24  25
ENDBRANCH  23  24
ENDBRANCH  20  23
ENDBRANCH   1  20
TORSDOF 8
ENDMDL
MODEL 6
REMARK VINA RESULT:      -7.6      1.742      6.679
REMARK  Name = 
REMARK  10 active torsions:
REMARK  status: ('A' for Active; 'I' for Inactive)
REMARK    1  A    between atoms: C_1  and  C_2
REMARK    2  A    between atoms: C_2  and  C_3
REMARK    3  A    between atoms: C_3  and  C_4
REMARK    4  A    between atoms: C_4  and  S_5
REMARK    5  A    between atoms: S_5  and  C_8
REMARK    6  A    between atoms: C_8  and  S_18
REMARK    7  A    between atoms: S_18  and  C_21
REMARK    8  A    between atoms: C_21  and  C_22
REMARK    9  A    between atoms: C_22  and  C_23
REMARK   10  A    between atoms: C_23  and  C_24
REMARK                            x       y       z     vdW  Elec       q    Type
REMARK                         _______ _______ _______ _____ _____    ______ ____
ROOT
ATOM      1  C   UNL     1       5.864   4.842  17.531  0.00  0.00    +0.000 C 
ATOM      2  C   UNL     1       5.948   4.691  16.188  0.00  0.00    +0.000 C 
ATOM      3  N   UNL     1       7.088   4.931  15.390  0.00  0.00    +0.000 N 
ATOM      4  C   UNL     1       6.833   4.425  14.106  0.00  0.00    +0.000 A 
ATOM      5  C   UNL     1       7.602   4.409  12.975  0.00  0.00    +0.000 A 
ATOM      6  C   UNL     1       7.023   3.903  11.799  0.00  0.00    +0.000 A 
ATOM      7  C   UNL     1       5.684   3.456  11.782  0.00  0.00    +0.000 A 
ATOM      8  C   UNL     1       4.895   3.516  12.933  0.00  0.00    +0.000 A 
ATOM      9  C   UNL     1       5.494   3.991  14.076  0.00  0.00    +0.000 A 
ATOM     10  N   UNL     1       4.926   4.240  15.337  0.00  0.00    +0.000 N 
ATOM     11  H   UNL     1       8.019   4.917  15.802  0.00  0.00    +0.000 HD
ATOM     12  H   UNL     1       4.172   3.647  15.633  0.00  0.00    +0.000 HD
ENDROOT
BRANCH   1  13
ATOM     13  S   UNL     1       7.245   5.384  18.433  0.00  0.00    +0.000 S 
ATOM     14  O   UNL     1       8.392   4.536  18.142  0.00  0.00    +0.000 OA
ATOM     15  O   UNL     1       6.879   5.553  19.828  0.00  0.00    +0.000 OA
BRANCH  13  16
ATOM     16  C   UNL     1       7.615   6.997  17.731  0.00  0.00    +0.000 C 
BRANCH  16  17
ATOM     17  C   UNL     1       8.406   7.884  18.704  0.00  0.00    +0.000 C 
BRANCH  17  19
ATOM     18  C   UNL     1       9.284  10.220  19.181  0.00  0.00    +0.000 C 
ATOM     19  C   UNL     1       8.457   9.345  18.243  0.00  0.00    +0.000 C 
ENDBRANCH  17  19
ENDBRANCH  16  17
ENDBRANCH  13  16
ENDBRANCH   1  13
BRANCH   1  20
ATOM     20  S   UNL     1       4.347   4.623  18.336  0.00  0.00    +0.000 S 
ATOM     21  O   UNL     1       4.083   5.727  19.245  0.00  0.00    +0.000 OA
ATOM     22  O   UNL     1       3.330   4.295  17.356  0.00  0.00    +0.000 OA
BRANCH  20  23
ATOM     23  C   UNL     1       4.582   3.156  19.343  0.00  0.00    +0.000 C 
BRANCH  23  24
ATOM     24  C   UNL     1       3.292   2.347  19.518  0.00  0.00    +0.000 C 
BRANCH  24  25
ATOM     25  C   UNL     1       2.556   2.777  20.793  0.00  0.00    +0.000 C 
ATOM     26  C   UNL     1       1.281   3.553  20.501  0.00  0.00    +0.000 C 
ENDBRANCH  24  25
ENDBRANCH  23  24
ENDBRANCH  20  23
ENDBRANCH   1  20
TORSDOF 8
ENDMDL
MODEL 7
REMARK VINA RESULT:      -7.6      1.691      5.195
REMARK  Name = 
REMARK  10 active torsions:
REMARK  status: ('A' for Active; 'I' for Inactive)
REMARK    1  A    between atoms: C_1  and  C_2
REMARK    2  A    between atoms: C_2  and  C_3
REMARK    3  A    between atoms: C_3  and  C_4
REMARK    4  A    between atoms: C_4  and  S_5
REMARK    5  A    between atoms: S_5  and  C_8
REMARK    6  A    between atoms: C_8  and  S_18
REMARK    7  A    between atoms: S_18  and  C_21
REMARK    8  A    between atoms: C_21  and  C_22
REMARK    9  A    between atoms: C_22  and  C_23
REMARK   10  A    between atoms: C_23  and  C_24
REMARK                            x       y       z     vdW  Elec       q    Type
REMARK                         _______ _______ _______ _____ _____    ______ ____
ROOT
ATOM      1  C   UNL     1       5.894   4.850  17.546  0.00  0.00    +0.000 C 
ATOM      2  C   UNL     1       6.024   4.500  16.245  0.00  0.00    +0.000 C 
ATOM      3  N   UNL     1       5.010   3.965  15.418  0.00  0.00    +0.000 N 
ATOM      4  C   UNL     1       5.481   3.972  14.096  0.00  0.00    +0.000 A 
ATOM      5  C   UNL     1       4.896   3.561  12.930  0.00  0.00    +0.000 A 
ATOM      6  C   UNL     1       5.669   3.613  11.758  0.00  0.00    +0.000 A 
ATOM      7  C   UNL     1       7.012   4.047  11.793  0.00  0.00    +0.000 A 
ATOM      8  C   UNL     1       7.612   4.425  12.996  0.00  0.00    +0.000 A 
ATOM      9  C   UNL     1       6.825   4.389  14.123  0.00  0.00    +0.000 A 
ATOM     10  N   UNL     1       7.182   4.627  15.462  0.00  0.00    +0.000 N 
ATOM     11  H   UNL     1       4.028   4.112  15.644  0.00  0.00    +0.000 HD
ATOM     12  H   UNL     1       7.905   5.300  15.637  0.00  0.00    +0.000 HD
ENDROOT
BRANCH   1  13
ATOM     13  S   UNL     1       4.369   4.650  18.353  0.00  0.00    +0.000 S 
ATOM     14  O   UNL     1       3.287   4.662  17.379  0.00  0.00    +0.000 OA
ATOM     15  O   UNL     1       4.278   5.586  19.460  0.00  0.00    +0.000 OA
BRANCH  13  16
ATOM     16  C   UNL     1       4.443   2.979  19.010  0.00  0.00    +0.000 C 
BRANCH  16  17
ATOM     17  C   UNL     1       3.315   2.091  18.462  0.00  0.00    +0.000 C 
BRANCH  17  19
ATOM     18  C   UNL     1       0.826   2.517  18.741  0.00  0.00    +0.000 C 
ATOM     19  C   UNL     1       2.111   2.036  19.409  0.00  0.00    +0.000 C 
ENDBRANCH  17  19
ENDBRANCH  16  17
ENDBRANCH  13  16
ENDBRANCH   1  13
BRANCH   1  20
ATOM     20  S   UNL     1       7.277   5.374  18.446  0.00  0.00    +0.000 S 
ATOM     21  O   UNL     1       6.933   5.576  19.844  0.00  0.00    +0.000 OA
ATOM     22  O   UNL     1       8.399   4.507  18.144  0.00  0.00    +0.000 OA
BRANCH  20  23
ATOM     23  C   UNL     1       7.673   6.984  17.762  0.00  0.00    +0.000 C 
BRANCH  23  24
ATOM     24  C   UNL     1       8.407   7.886  18.759  0.00  0.00    +0.000 C 
BRANCH  24  25
ATOM     25  C   UNL     1       8.439   9.334  18.254  0.00  0.00    +0.000 C 
ATOM     26  C   UNL     1       9.310  10.236  19.115  0.00  0.00    +0.000 C 
ENDBRANCH  24  25
ENDBRANCH  23  24
ENDBRANCH  20  23
ENDBRANCH   1  20
TORSDOF 8
ENDMDL
MODEL 8
REMARK VINA RESULT:      -7.6      2.317      5.395
REMARK  Name = 
REMARK  10 active torsions:
REMARK  status: ('A' for Active; 'I' for Inactive)
REMARK    1  A    between atoms: C_1  and  C_2
REMARK    2  A    between atoms: C_2  and  C_3
REMARK    3  A    between atoms: C_3  and  C_4
REMARK    4  A    between atoms: C_4  and  S_5
REMARK    5  A    between atoms: S_5  and  C_8
REMARK    6  A    between atoms: C_8  and  S_18
REMARK    7  A    between atoms: S_18  and  C_21
REMARK    8  A    between atoms: C_21  and  C_22
REMARK    9  A    between atoms: C_22  and  C_23
REMARK   10  A    between atoms: C_23  and  C_24
REMARK                            x       y       z     vdW  Elec       q    Type
REMARK                         _______ _______ _______ _____ _____    ______ ____
ROOT
ATOM      1  C   UNL     1       5.712   4.516  17.515  0.00  0.00    +0.000 C 
ATOM      2  C   UNL     1       6.066   4.364  16.217  0.00  0.00    +0.000 C 
ATOM      3  N   UNL     1       5.365   3.622  15.241  0.00  0.00    +0.000 N 
ATOM      4  C   UNL     1       5.923   3.918  13.988  0.00  0.00    +0.000 A 
ATOM      5  C   UNL     1       5.614   3.465  12.735  0.00  0.00    +0.000 A 
ATOM      6  C   UNL     1       6.428   3.885  11.670  0.00  0.00    +0.000 A 
ATOM      7  C   UNL     1       7.545   4.720  11.894  0.00  0.00    +0.000 A 
ATOM      8  C   UNL     1       7.875   5.142  13.183  0.00  0.00    +0.000 A 
ATOM      9  C   UNL     1       7.046   4.738  14.204  0.00  0.00    +0.000 A 
ATOM     10  N   UNL     1       7.183   4.936  15.588  0.00  0.00    +0.000 N 
ATOM     11  H   UNL     1       4.373   3.422  15.358  0.00  0.00    +0.000 HD
ATOM     12  H   UNL     1       7.625   5.784  15.895  0.00  0.00    +0.000 HD
ENDROOT
BRANCH   1  13
ATOM     13  S   UNL     1       4.273   3.755  18.119  0.00  0.00    +0.000 S 
ATOM     14  O   UNL     1       4.315   3.695  19.573  0.00  0.00    +0.000 OA
ATOM     15  O   UNL     1       4.045   2.510  17.408  0.00  0.00    +0.000 OA
BRANCH  13  16
ATOM     16  C   UNL     1       2.962   4.911  17.697  0.00  0.00    +0.000 C 
BRANCH  16  17
ATOM     17  C   UNL     1       2.977   6.157  18.596  0.00  0.00    +0.000 C 
BRANCH  17  19
ATOM     18  C   UNL     1       2.100   8.411  17.820  0.00  0.00    +0.000 C 
ATOM     19  C   UNL     1       3.274   7.436  17.806  0.00  0.00    +0.000 C 
ENDBRANCH  17  19
ENDBRANCH  16  17
ENDBRANCH  13  16
ENDBRANCH   1  13
BRANCH   1  20
ATOM     20  S   UNL     1       6.757   5.358  18.608  0.00  0.00    +0.000 S 
ATOM     21  O   UNL     1       6.136   5.489  19.916  0.00  0.00    +0.000 OA
ATOM     22  O   UNL     1       8.084   4.775  18.544  0.00  0.00    +0.000 OA
BRANCH  20  23
ATOM     23  C   UNL     1       6.889   7.010  17.919  0.00  0.00    +0.000 C 
BRANCH  23  24
ATOM     24  C   UNL     1       8.240   7.669  18.217  0.00  0.00    +0.000 C 
BRANCH  24  25
ATOM     25  C   UNL     1       8.181   9.174  17.929  0.00  0.00    +0.000 C 
ATOM     26  C   UNL     1       9.014   9.991  18.905  0.00  0.00    +0.000 C 
ENDBRANCH  24  25
ENDBRANCH  23  24
ENDBRANCH  20  23
ENDBRANCH   1  20
TORSDOF 8
ENDMDL
MODEL 9
REMARK VINA RESULT:      -7.5      3.100      5.784
REMARK  Name = 
REMARK  10 active torsions:
REMARK  status: ('A' for Active; 'I' for Inactive)
REMARK    1  A    between atoms: C_1  and  C_2
REMARK    2  A    between atoms: C_2  and  C_3
REMARK    3  A    between atoms: C_3  and  C_4
REMARK    4  A    between atoms: C_4  and  S_5
REMARK    5  A    between atoms: S_5  and  C_8
REMARK    6  A    between atoms: C_8  and  S_18
REMARK    7  A    between atoms: S_18  and  C_21
REMARK    8  A    between atoms: C_21  and  C_22
REMARK    9  A    between atoms: C_22  and  C_23
REMARK   10  A    between atoms: C_23  and  C_24
REMARK                            x       y       z     vdW  Elec       q    Type
REMARK                         _______ _______ _______ _____ _____    ______ ____
ROOT
ATOM      1  C   UNL     1       4.769   5.861  17.620  0.00  0.00    +0.000 C 
ATOM      2  C   UNL     1       3.758   6.672  18.011  0.00  0.00    +0.000 C 
ATOM      3  N   UNL     1       3.017   6.564  19.209  0.00  0.00    +0.000 N 
ATOM      4  C   UNL     1       2.241   7.726  19.345  0.00  0.00    +0.000 A 
ATOM      5  C   UNL     1       1.357   8.110  20.315  0.00  0.00    +0.000 A 
ATOM      6  C   UNL     1       0.655   9.311  20.120  0.00  0.00    +0.000 A 
ATOM      7  C   UNL     1       0.837  10.077  18.947  0.00  0.00    +0.000 A 
ATOM      8  C   UNL     1       1.711   9.654  17.944  0.00  0.00    +0.000 A 
ATOM      9  C   UNL     1       2.405   8.488  18.173  0.00  0.00    +0.000 A 
ATOM     10  N   UNL     1       3.272   7.789  17.315  0.00  0.00    +0.000 N 
ATOM     11  H   UNL     1       3.404   6.075  20.014  0.00  0.00    +0.000 HD
ATOM     12  H   UNL     1       3.819   8.328  16.668  0.00  0.00    +0.000 HD
ENDROOT
BRANCH   1  13
ATOM     13  S   UNL     1       5.261   4.536  18.627  0.00  0.00    +0.000 S 
ATOM     14  O   UNL     1       5.047   4.871  20.028  0.00  0.00    +0.000 OA
ATOM     15  O   UNL     1       6.593   4.101  18.244  0.00  0.00    +0.000 OA
BRANCH  13  16
ATOM     16  C   UNL     1       4.088   3.232  18.232  0.00  0.00    +0.000 C 
BRANCH  16  17
ATOM     17  C   UNL     1       3.245   2.824  19.450  0.00  0.00    +0.000 C 
BRANCH  17  19
ATOM     18  C   UNL     1       1.158   3.782  20.535  0.00  0.00    +0.000 C 
ATOM     19  C   UNL     1       1.765   3.178  19.272  0.00  0.00    +0.000 C 
ENDBRANCH  17  19
ENDBRANCH  16  17
ENDBRANCH  13  16
ENDBRANCH   1  13
BRANCH   1  20
ATOM     20  S   UNL     1       5.487   6.061  16.057  0.00  0.00    +0.000 S 
ATOM     21  O   UNL     1       4.821   7.120  15.317  0.00  0.00    +0.000 OA
ATOM     22  O   UNL     1       6.928   6.139  16.200  0.00  0.00    +0.000 OA
BRANCH  20  23
ATOM     23  C   UNL     1       5.139   4.522  15.203  0.00  0.00    +0.000 C 
BRANCH  23  24
ATOM     24  C   UNL     1       6.404   3.841  14.673  0.00  0.00    +0.000 C 
BRANCH  24  25
ATOM     25  C   UNL     1       6.586   4.131  13.178  0.00  0.00    +0.000 C 
ATOM     26  C   UNL     1       5.715   3.248  12.298  0.00  0.00    +0.000 C 
ENDBRANCH  24  25
ENDBRANCH  23  24
ENDBRANCH  20  23
ENDBRANCH   1  20
TORSDOF 8
ENDMDL
