MODEL 1
REMARK VINA RESULT:     -10.1      0.000      0.000
REMARK  Name = 
REMARK  3 active torsions:
REMARK  status: ('A' for Active; 'I' for Inactive)
REMARK    1  A    between atoms: C_2  and  C_5
REMARK    2  A    between atoms: N_10  and  C_11
REMARK    3  A    between atoms: C_17  and  N_18
REMARK                            x       y       z     vdW  Elec       q    Type
REMARK                         _______ _______ _______ _____ _____    ______ ____
ROOT
ATOM      1  C   UNL     1       4.631   4.344  18.387  0.00  0.00    +0.000 A 
ATOM      2  N   UNL     1       4.582   3.289  19.227  0.00  0.00    +0.000 NA
ATOM      3  C   UNL     1       3.631   3.269  20.185  0.00  0.00    +0.000 A 
ATOM      4  C   UNL     1       2.751   4.305  20.429  0.00  0.00    +0.000 A 
ATOM      5  C   UNL     1       2.827   5.445  19.630  0.00  0.00    +0.000 A 
ATOM      6  C   UNL     1       2.019   6.578  19.897  0.00  0.00    +0.000 A 
ATOM      7  C   UNL     1       2.098   7.741  19.122  0.00  0.00    +0.000 A 
ATOM      8  C   UNL     1       2.899   7.692  17.988  0.00  0.00    +0.000 A 
ATOM      9  C   UNL     1       3.660   6.565  17.687  0.00  0.00    +0.000 A 
ATOM     10  C   UNL     1       3.736   5.450  18.547  0.00  0.00    +0.000 A 
ENDROOT
BRANCH   7  11
ATOM     11  N   UNL     1       1.439   8.923  19.526  0.00  0.00    +0.000 N 
ATOM     12  C   UNL     1       0.991   9.271  20.768  0.00  0.00    +0.000 A 
ATOM     13  N   UNL     1       1.248   8.659  21.929  0.00  0.00    +0.000 NA
ATOM     14  N   UNL     1       0.532   9.335  22.847  0.00  0.00    +0.000 N 
ATOM     15  C   UNL     1      -0.184  10.376  22.322  0.00  0.00    +0.000 A 
ATOM     16  C   UNL     1      -1.057  11.297  22.892  0.00  0.00    +0.000 A 
ATOM     17  C   UNL     1      -1.610  12.214  22.006  0.00  0.00    +0.000 A 
ATOM     18  C   UNL     1      -1.274  12.153  20.658  0.00  0.00    +0.000 A 
ATOM     19  N   UNL     1      -0.434  11.260  20.087  0.00  0.00    +0.000 NA
ATOM     20  C   UNL     1       0.103  10.373  20.966  0.00  0.00    +0.000 A 
ATOM     21  H   UNL     1       1.097   9.487  18.755  0.00  0.00    +0.000 HD
ATOM     22  H   UNL     1       0.572   9.033  23.799  0.00  0.00    +0.000 HD
ENDBRANCH   7  11
BRANCH   1  28
ATOM     23  C   UNL     1       6.931   4.956  17.551  0.00  0.00    +0.000 C 
ATOM     24  C   UNL     1       7.171   5.878  16.333  0.00  0.00    +0.000 C 
ATOM     25  C   UNL     1       6.957   5.160  15.003  0.00  0.00    +0.000 C 
ATOM     26  C   UNL     1       5.580   4.525  14.952  0.00  0.00    +0.000 C 
ATOM     27  C   UNL     1       5.360   3.599  16.138  0.00  0.00    +0.000 C 
ATOM     28  N   UNL     1       5.603   4.286  17.409  0.00  0.00    +0.000 N 
BRANCH  23  30
ATOM     29  F   UNL     1       7.760   6.972  18.621  0.00  0.00    +0.000 F 
ATOM     30  C   UNL     1       7.398   5.684  18.851  0.00  0.00    +0.000 C 
ATOM     31  F   UNL     1       8.539   5.062  19.289  0.00  0.00    +0.000 F 
ATOM     32  F   UNL     1       6.573   5.660  19.912  0.00  0.00    +0.000 F 
ENDBRANCH  23  30
ENDBRANCH   1  28
TORSDOF 3
ENDMDL
MODEL 2
REMARK VINA RESULT:     -10.0      1.190      1.776
REMARK  Name = 
REMARK  3 active torsions:
REMARK  status: ('A' for Active; 'I' for Inactive)
REMARK    1  A    between atoms: C_2  and  C_5
REMARK    2  A    between atoms: N_10  and  C_11
REMARK    3  A    between atoms: C_17  and  N_18
REMARK                            x       y       z     vdW  Elec       q    Type
REMARK                         _______ _______ _______ _____ _____    ______ ____
ROOT
ATOM      1  C   UNL     1       4.563   4.242  18.346  0.00  0.00    +0.000 A 
ATOM      2  N   UNL     1       4.487   3.126  19.101  0.00  0.00    +0.000 NA
ATOM      3  C   UNL     1       3.552   3.065  20.073  0.00  0.00    +0.000 A 
ATOM      4  C   UNL     1       2.718   4.111  20.416  0.00  0.00    +0.000 A 
ATOM      5  C   UNL     1       2.826   5.308  19.708  0.00  0.00    +0.000 A 
ATOM      6  C   UNL     1       2.068   6.446  20.081  0.00  0.00    +0.000 A 
ATOM      7  C   UNL     1       2.180   7.664  19.400  0.00  0.00    +0.000 A 
ATOM      8  C   UNL     1       2.959   7.675  18.249  0.00  0.00    +0.000 A 
ATOM      9  C   UNL     1       3.670   6.548  17.845  0.00  0.00    +0.000 A 
ATOM     10  C   UNL     1       3.715   5.365  18.611  0.00  0.00    +0.000 A 
ENDROOT
BRANCH   7  11
ATOM     11  N   UNL     1       1.576   8.834  19.909  0.00  0.00    +0.000 N 
ATOM     12  C   UNL     1       0.813   9.758  19.256  0.00  0.00    +0.000 A 
ATOM     13  N   UNL     1       0.295   9.664  18.026  0.00  0.00    +0.000 NA
ATOM     14  N   UNL     1      -0.315  10.845  17.813  0.00  0.00    +0.000 N 
ATOM     15  C   UNL     1      -0.216  11.709  18.868  0.00  0.00    +0.000 A 
ATOM     16  C   UNL     1      -0.667  13.011  19.063  0.00  0.00    +0.000 A 
ATOM     17  C   UNL     1      -0.350  13.569  20.295  0.00  0.00    +0.000 A 
ATOM     18  C   UNL     1       0.374  12.823  21.219  0.00  0.00    +0.000 A 
ATOM     19  N   UNL     1       0.824  11.560  21.044  0.00  0.00    +0.000 NA
ATOM     20  C   UNL     1       0.503  11.025  19.837  0.00  0.00    +0.000 A 
ATOM     21  H   UNL     1       1.917   9.106  20.825  0.00  0.00    +0.000 HD
ATOM     22  H   UNL     1      -0.768  10.995  16.933  0.00  0.00    +0.000 HD
ENDBRANCH   7  11
BRANCH   1  28
ATOM     23  C   UNL     1       6.833   4.920  17.476  0.00  0.00    +0.000 C 
ATOM     24  C   UNL     1       7.028   5.873  16.274  0.00  0.00    +0.000 C 
ATOM     25  C   UNL     1       6.801   5.179  14.934  0.00  0.00    +0.000 C 
ATOM     26  C   UNL     1       5.436   4.516  14.897  0.00  0.00    +0.000 C 
ATOM     27  C   UNL     1       5.260   3.561  16.067  0.00  0.00    +0.000 C 
ATOM     28  N   UNL     1       5.516   4.226  17.347  0.00  0.00    +0.000 N 
BRANCH  23  30
ATOM     29  F   UNL     1       7.615   6.937  18.579  0.00  0.00    +0.000 F 
ATOM     30  C   UNL     1       7.312   5.629  18.782  0.00  0.00    +0.000 C 
ATOM     31  F   UNL     1       8.489   5.042  19.166  0.00  0.00    +0.000 F 
ATOM     32  F   UNL     1       6.523   5.542  19.867  0.00  0.00    +0.000 F 
ENDBRANCH  23  30
ENDBRANCH   1  28
TORSDOF 3
ENDMDL
MODEL 3
REMARK VINA RESULT:      -9.6      1.532      2.260
REMARK  Name = 
REMARK  3 active torsions:
REMARK  status: ('A' for Active; 'I' for Inactive)
REMARK    1  A    between atoms: C_2  and  C_5
REMARK    2  A    between atoms: N_10  and  C_11
REMARK    3  A    between atoms: C_17  and  N_18
REMARK                            x       y       z     vdW  Elec       q    Type
REMARK                         _______ _______ _______ _____ _____    ______ ____
ROOT
ATOM      1  C   UNL     1       4.617   4.382  18.361  0.00  0.00    +0.000 A 
ATOM      2  N   UNL     1       4.531   3.363  19.242  0.00  0.00    +0.000 NA
ATOM      3  C   UNL     1       3.569   3.406  20.188  0.00  0.00    +0.000 A 
ATOM      4  C   UNL     1       2.715   4.473  20.380  0.00  0.00    +0.000 A 
ATOM      5  C   UNL     1       2.830   5.579  19.537  0.00  0.00    +0.000 A 
ATOM      6  C   UNL     1       2.050   6.742  19.749  0.00  0.00    +0.000 A 
ATOM      7  C   UNL     1       2.168   7.871  18.930  0.00  0.00    +0.000 A 
ATOM      8  C   UNL     1       2.979   7.754  17.808  0.00  0.00    +0.000 A 
ATOM      9  C   UNL     1       3.714   6.597  17.562  0.00  0.00    +0.000 A 
ATOM     10  C   UNL     1       3.750   5.516  18.466  0.00  0.00    +0.000 A 
ENDROOT
BRANCH   7  11
ATOM     11  N   UNL     1       1.537   9.085  19.278  0.00  0.00    +0.000 N 
ATOM     12  C   UNL     1       1.720  10.329  18.746  0.00  0.00    +0.000 A 
ATOM     13  N   UNL     1       2.395  10.650  17.636  0.00  0.00    +0.000 NA
ATOM     14  N   UNL     1       2.342  11.993  17.571  0.00  0.00    +0.000 N 
ATOM     15  C   UNL     1       1.649  12.562  18.603  0.00  0.00    +0.000 A 
ATOM     16  C   UNL     1       1.376  13.886  18.935  0.00  0.00    +0.000 A 
ATOM     17  C   UNL     1       0.634  14.064  20.096  0.00  0.00    +0.000 A 
ATOM     18  C   UNL     1       0.230  12.953  20.828  0.00  0.00    +0.000 A 
ATOM     19  N   UNL     1       0.492  11.662  20.525  0.00  0.00    +0.000 NA
ATOM     20  C   UNL     1       1.214  11.502  19.384  0.00  0.00    +0.000 A 
ATOM     21  H   UNL     1       1.030   9.047  20.157  0.00  0.00    +0.000 HD
ATOM     22  H   UNL     1       2.801  12.451  16.810  0.00  0.00    +0.000 HD
ENDBRANCH   7  11
BRANCH   1  28
ATOM     23  C   UNL     1       6.941   4.903  17.526  0.00  0.00    +0.000 C 
ATOM     24  C   UNL     1       7.215   5.766  16.273  0.00  0.00    +0.000 C 
ATOM     25  C   UNL     1       6.998   4.997  14.973  0.00  0.00    +0.000 C 
ATOM     26  C   UNL     1       5.607   4.392  14.933  0.00  0.00    +0.000 C 
ATOM     27  C   UNL     1       5.352   3.523  16.155  0.00  0.00    +0.000 C 
ATOM     28  N   UNL     1       5.598   4.259  17.398  0.00  0.00    +0.000 N 
BRANCH  23  30
ATOM     29  F   UNL     1       6.425   5.792  19.726  0.00  0.00    +0.000 F 
ATOM     30  C   UNL     1       7.411   5.675  18.800  0.00  0.00    +0.000 C 
ATOM     31  F   UNL     1       7.706   6.959  18.423  0.00  0.00    +0.000 F 
ATOM     32  F   UNL     1       8.523   5.241  19.418  0.00  0.00    +0.000 F 
ENDBRANCH  23  30
ENDBRANCH   1  28
TORSDOF 3
ENDMDL
MODEL 4
REMARK VINA RESULT:      -8.4      3.948      9.348
REMARK  Name = 
REMARK  3 active torsions:
REMARK  status: ('A' for Active; 'I' for Inactive)
REMARK    1  A    between atoms: C_2  and  C_5
REMARK    2  A    between atoms: N_10  and  C_11
REMARK    3  A    between atoms: C_17  and  N_18
REMARK                            x       y       z     vdW  Elec       q    Type
REMARK                         _______ _______ _______ _____ _____    ______ ____
ROOT
ATOM      1  C   UNL     1      -1.847  11.909  19.415  0.00  0.00    +0.000 A 
ATOM      2  N   UNL     1      -2.822  12.160  18.516  0.00  0.00    +0.000 NA
ATOM      3  C   UNL     1      -2.914  11.370  17.425  0.00  0.00    +0.000 A 
ATOM      4  C   UNL     1      -2.015  10.370  17.112  0.00  0.00    +0.000 A 
ATOM      5  C   UNL     1      -0.947  10.138  17.979  0.00  0.00    +0.000 A 
ATOM      6  C   UNL     1       0.060   9.195  17.659  0.00  0.00    +0.000 A 
ATOM      7  C   UNL     1       1.153   8.965  18.504  0.00  0.00    +0.000 A 
ATOM      8  C   UNL     1       1.136   9.594  19.743  0.00  0.00    +0.000 A 
ATOM      9  C   UNL     1       0.125  10.486  20.089  0.00  0.00    +0.000 A 
ATOM     10  C   UNL     1      -0.889  10.871  19.186  0.00  0.00    +0.000 A 
ENDROOT
BRANCH   7  11
ATOM     11  N   UNL     1       2.244   8.178  18.075  0.00  0.00    +0.000 N 
ATOM     12  C   UNL     1       2.811   7.096  18.684  0.00  0.00    +0.000 A 
ATOM     13  N   UNL     1       2.338   6.408  19.729  0.00  0.00    +0.000 NA
ATOM     14  N   UNL     1       3.280   5.483  19.993  0.00  0.00    +0.000 N 
ATOM     15  C   UNL     1       4.354   5.541  19.150  0.00  0.00    +0.000 A 
ATOM     16  C   UNL     1       5.536   4.810  19.081  0.00  0.00    +0.000 A 
ATOM     17  C   UNL     1       6.406   5.186  18.065  0.00  0.00    +0.000 A 
ATOM     18  C   UNL     1       6.059   6.233  17.218  0.00  0.00    +0.000 A 
ATOM     19  N   UNL     1       4.919   6.958  17.276  0.00  0.00    +0.000 NA
ATOM     20  C   UNL     1       4.075   6.576  18.269  0.00  0.00    +0.000 A 
ATOM     21  H   UNL     1       2.779   8.595  17.320  0.00  0.00    +0.000 HD
ATOM     22  H   UNL     1       3.130   4.856  20.759  0.00  0.00    +0.000 HD
ENDBRANCH   7  11
BRANCH   1  28
ATOM     23  C   UNL     1      -0.905  13.896  20.653  0.00  0.00    +0.000 C 
ATOM     24  C   UNL     1      -0.104  13.770  21.970  0.00  0.00    +0.000 C 
ATOM     25  C   UNL     1      -1.001  13.532  23.181  0.00  0.00    +0.000 C 
ATOM     26  C   UNL     1      -1.892  12.324  22.959  0.00  0.00    +0.000 C 
ATOM     27  C   UNL     1      -2.697  12.465  21.676  0.00  0.00    +0.000 C 
ATOM     28  N   UNL     1      -1.830  12.730  20.525  0.00  0.00    +0.000 N 
BRANCH  23  30
ATOM     29  F   UNL     1       1.137  13.576  19.379  0.00  0.00    +0.000 F 
ATOM     30  C   UNL     1       0.047  14.374  19.511  0.00  0.00    +0.000 C 
ATOM     31  F   UNL     1       0.540  15.602  19.867  0.00  0.00    +0.000 F 
ATOM     32  F   UNL     1      -0.486  14.565  18.292  0.00  0.00    +0.000 F 
ENDBRANCH  23  30
ENDBRANCH   1  28
TORSDOF 3
ENDMDL
MODEL 5
REMARK VINA RESULT:      -8.3      3.720      8.909
REMARK  Name = 
REMARK  3 active torsions:
REMARK  status: ('A' for Active; 'I' for Inactive)
REMARK    1  A    between atoms: C_2  and  C_5
REMARK    2  A    between atoms: N_10  and  C_11
REMARK    3  A    between atoms: C_17  and  N_18
REMARK                            x       y       z     vdW  Elec       q    Type
REMARK                         _______ _______ _______ _____ _____    ______ ____
ROOT
ATOM      1  C   UNL     1      -0.081  10.518  20.502  0.00  0.00    +0.000 A 
ATOM      2  N   UNL     1      -0.674   9.993  21.596  0.00  0.00    +0.000 NA
ATOM      3  C   UNL     1      -0.266   8.782  22.033  0.00  0.00    +0.000 A 
ATOM      4  C   UNL     1       0.660   7.992  21.382  0.00  0.00    +0.000 A 
ATOM      5  C   UNL     1       1.232   8.470  20.204  0.00  0.00    +0.000 A 
ATOM      6  C   UNL     1       2.111   7.662  19.440  0.00  0.00    +0.000 A 
ATOM      7  C   UNL     1       2.677   8.115  18.242  0.00  0.00    +0.000 A 
ATOM      8  C   UNL     1       2.458   9.444  17.902  0.00  0.00    +0.000 A 
ATOM      9  C   UNL     1       1.635  10.262  18.672  0.00  0.00    +0.000 A 
ATOM     10  C   UNL     1       0.912   9.780  19.782  0.00  0.00    +0.000 A 
ENDROOT
BRANCH   7  11
ATOM     11  N   UNL     1       3.381   7.229  17.397  0.00  0.00    +0.000 N 
ATOM     12  C   UNL     1       4.412   6.388  17.706  0.00  0.00    +0.000 A 
ATOM     13  N   UNL     1       4.863   6.064  18.923  0.00  0.00    +0.000 NA
ATOM     14  N   UNL     1       5.922   5.264  18.701  0.00  0.00    +0.000 N 
ATOM     15  C   UNL     1       6.177   5.051  17.374  0.00  0.00    +0.000 A 
ATOM     16  C   UNL     1       7.165   4.330  16.711  0.00  0.00    +0.000 A 
ATOM     17  C   UNL     1       7.094   4.366  15.324  0.00  0.00    +0.000 A 
ATOM     18  C   UNL     1       6.083   5.097  14.709  0.00  0.00    +0.000 A 
ATOM     19  N   UNL     1       5.120   5.808  15.337  0.00  0.00    +0.000 NA
ATOM     20  C   UNL     1       5.199   5.759  16.693  0.00  0.00    +0.000 A 
ATOM     21  H   UNL     1       3.216   7.386  16.408  0.00  0.00    +0.000 HD
ATOM     22  H   UNL     1       6.424   4.909  19.490  0.00  0.00    +0.000 HD
ENDBRANCH   7  11
BRANCH   1  28
ATOM     23  C   UNL     1      -1.394  12.002  18.940  0.00  0.00    +0.000 C 
ATOM     24  C   UNL     1      -0.733  13.050  18.014  0.00  0.00    +0.000 C 
ATOM     25  C   UNL     1      -0.324  14.317  18.760  0.00  0.00    +0.000 C 
ATOM     26  C   UNL     1       0.569  13.981  19.940  0.00  0.00    +0.000 C 
ATOM     27  C   UNL     1      -0.097  12.971  20.861  0.00  0.00    +0.000 C 
ATOM     28  N   UNL     1      -0.519  11.773  20.129  0.00  0.00    +0.000 N 
BRANCH  23  30
ATOM     29  F   UNL     1      -1.083  10.317  17.221  0.00  0.00    +0.000 F 
ATOM     30  C   UNL     1      -1.994  10.851  18.074  0.00  0.00    +0.000 C 
ATOM     31  F   UNL     1      -2.963  11.395  17.272  0.00  0.00    +0.000 F 
ATOM     32  F   UNL     1      -2.614   9.844  18.715  0.00  0.00    +0.000 F 
ENDBRANCH  23  30
ENDBRANCH   1  28
TORSDOF 3
ENDMDL
MODEL 6
REMARK VINA RESULT:      -8.2      3.317      4.475
REMARK  Name = 
REMARK  3 active torsions:
REMARK  status: ('A' for Active; 'I' for Inactive)
REMARK    1  A    between atoms: C_2  and  C_5
REMARK    2  A    between atoms: N_10  and  C_11
REMARK    3  A    between atoms: C_17  and  N_18
REMARK                            x       y       z     vdW  Elec       q    Type
REMARK                         _______ _______ _______ _____ _____    ______ ____
ROOT
ATOM      1  C   UNL     1       2.951   6.542  18.992  0.00  0.00    +0.000 A 
ATOM      2  N   UNL     1       2.791   5.833  20.129  0.00  0.00    +0.000 NA
ATOM      3  C   UNL     1       1.928   6.291  21.060  0.00  0.00    +0.000 A 
ATOM      4  C   UNL     1       1.257   7.495  20.973  0.00  0.00    +0.000 A 
ATOM      5  C   UNL     1       1.462   8.291  19.846  0.00  0.00    +0.000 A 
ATOM      6  C   UNL     1       0.880   9.579  19.748  0.00  0.00    +0.000 A 
ATOM      7  C   UNL     1       1.094  10.404  18.637  0.00  0.00    +0.000 A 
ATOM      8  C   UNL     1       1.783   9.853  17.564  0.00  0.00    +0.000 A 
ATOM      9  C   UNL     1       2.318   8.569  17.630  0.00  0.00    +0.000 A 
ATOM     10  C   UNL     1       2.271   7.787  18.803  0.00  0.00    +0.000 A 
ENDROOT
BRANCH   7  11
ATOM     11  N   UNL     1       0.678  11.754  18.650  0.00  0.00    +0.000 N 
ATOM     12  C   UNL     1       1.436  12.884  18.552  0.00  0.00    +0.000 A 
ATOM     13  N   UNL     1       2.730  12.972  18.223  0.00  0.00    +0.000 NA
ATOM     14  N   UNL     1       3.030  14.280  18.329  0.00  0.00    +0.000 N 
ATOM     15  C   UNL     1       1.970  15.053  18.715  0.00  0.00    +0.000 A 
ATOM     16  C   UNL     1       1.843  16.416  18.967  0.00  0.00    +0.000 A 
ATOM     17  C   UNL     1       0.576  16.829  19.360  0.00  0.00    +0.000 A 
ATOM     18  C   UNL     1      -0.445  15.892  19.479  0.00  0.00    +0.000 A 
ATOM     19  N   UNL     1      -0.337  14.565  19.245  0.00  0.00    +0.000 NA
ATOM     20  C   UNL     1       0.906  14.175  18.856  0.00  0.00    +0.000 A 
ATOM     21  H   UNL     1      -0.279  11.886  18.959  0.00  0.00    +0.000 HD
ATOM     22  H   UNL     1       3.966  14.571  18.134  0.00  0.00    +0.000 HD
ENDBRANCH   7  11
BRANCH   1  28
ATOM     23  C   UNL     1       3.559   4.699  17.378  0.00  0.00    +0.000 C 
ATOM     24  C   UNL     1       4.771   3.761  17.584  0.00  0.00    +0.000 C 
ATOM     25  C   UNL     1       6.095   4.422  17.215  0.00  0.00    +0.000 C 
ATOM     26  C   UNL     1       6.272   5.726  17.971  0.00  0.00    +0.000 C 
ATOM     27  C   UNL     1       5.091   6.656  17.744  0.00  0.00    +0.000 C 
ATOM     28  N   UNL     1       3.821   6.000  18.066  0.00  0.00    +0.000 N 
BRANCH  23  30
ATOM     29  F   UNL     1       2.171   3.244  18.739  0.00  0.00    +0.000 F 
ATOM     30  C   UNL     1       2.238   3.884  17.543  0.00  0.00    +0.000 C 
ATOM     31  F   UNL     1       2.243   2.889  16.601  0.00  0.00    +0.000 F 
ATOM     32  F   UNL     1       1.076   4.531  17.345  0.00  0.00    +0.000 F 
ENDBRANCH  23  30
ENDBRANCH   1  28
TORSDOF 3
ENDMDL
MODEL 7
REMARK VINA RESULT:      -8.1      4.325      9.969
REMARK  Name = 
REMARK  3 active torsions:
REMARK  status: ('A' for Active; 'I' for Inactive)
REMARK    1  A    between atoms: C_2  and  C_5
REMARK    2  A    between atoms: N_10  and  C_11
REMARK    3  A    between atoms: C_17  and  N_18
REMARK                            x       y       z     vdW  Elec       q    Type
REMARK                         _______ _______ _______ _____ _____    ______ ____
ROOT
ATOM      1  C   UNL     1      -0.862  12.435  21.022  0.00  0.00    +0.000 A 
ATOM      2  N   UNL     1      -1.545  12.903  19.956  0.00  0.00    +0.000 NA
ATOM      3  C   UNL     1      -1.742  12.081  18.903  0.00  0.00    +0.000 A 
ATOM      4  C   UNL     1      -1.209  10.812  18.797  0.00  0.00    +0.000 A 
ATOM      5  C   UNL     1      -0.430  10.327  19.847  0.00  0.00    +0.000 A 
ATOM      6  C   UNL     1       0.223   9.074  19.752  0.00  0.00    +0.000 A 
ATOM      7  C   UNL     1       1.030   8.580  20.785  0.00  0.00    +0.000 A 
ATOM      8  C   UNL     1       1.049   9.303  21.971  0.00  0.00    +0.000 A 
ATOM      9  C   UNL     1       0.370  10.512  22.094  0.00  0.00    +0.000 A 
ATOM     10  C   UNL     1      -0.301  11.118  21.012  0.00  0.00    +0.000 A 
ENDROOT
BRANCH   7  11
ATOM     11  N   UNL     1       1.832   7.434  20.589  0.00  0.00    +0.000 N 
ATOM     12  C   UNL     1       2.538   7.063  19.482  0.00  0.00    +0.000 A 
ATOM     13  N   UNL     1       2.796   7.798  18.394  0.00  0.00    +0.000 NA
ATOM     14  N   UNL     1       3.464   6.974  17.565  0.00  0.00    +0.000 N 
ATOM     15  C   UNL     1       3.655   5.721  18.079  0.00  0.00    +0.000 A 
ATOM     16  C   UNL     1       4.258   4.577  17.565  0.00  0.00    +0.000 A 
ATOM     17  C   UNL     1       4.242   3.472  18.407  0.00  0.00    +0.000 A 
ATOM     18  C   UNL     1       3.644   3.572  19.659  0.00  0.00    +0.000 A 
ATOM     19  N   UNL     1       3.049   4.672  20.170  0.00  0.00    +0.000 NA
ATOM     20  C   UNL     1       3.076   5.747  19.339  0.00  0.00    +0.000 A 
ATOM     21  H   UNL     1       1.704   6.718  21.296  0.00  0.00    +0.000 HD
ATOM     22  H   UNL     1       3.749   7.325  16.673  0.00  0.00    +0.000 HD
ENDBRANCH   7  11
BRANCH   1  28
ATOM     23  C   UNL     1      -1.702  13.369  23.210  0.00  0.00    +0.000 C 
ATOM     24  C   UNL     1      -2.216  14.818  23.370  0.00  0.00    +0.000 C 
ATOM     25  C   UNL     1      -1.083  15.837  23.452  0.00  0.00    +0.000 C 
ATOM     26  C   UNL     1      -0.158  15.708  22.257  0.00  0.00    +0.000 C 
ATOM     27  C   UNL     1       0.367  14.287  22.120  0.00  0.00    +0.000 C 
ATOM     28  N   UNL     1      -0.727  13.313  22.079  0.00  0.00    +0.000 N 
BRANCH  23  30
ATOM     29  F   UNL     1      -3.651  12.652  24.467  0.00  0.00    +0.000 F 
ATOM     30  C   UNL     1      -2.894  12.375  23.375  0.00  0.00    +0.000 C 
ATOM     31  F   UNL     1      -2.369  11.130  23.606  0.00  0.00    +0.000 F 
ATOM     32  F   UNL     1      -3.715  12.204  22.324  0.00  0.00    +0.000 F 
ENDBRANCH  23  30
ENDBRANCH   1  28
TORSDOF 3
ENDMDL
MODEL 8
REMARK VINA RESULT:      -8.1      4.058      8.893
REMARK  Name = 
REMARK  3 active torsions:
REMARK  status: ('A' for Active; 'I' for Inactive)
REMARK    1  A    between atoms: C_2  and  C_5
REMARK    2  A    between atoms: N_10  and  C_11
REMARK    3  A    between atoms: C_17  and  N_18
REMARK                            x       y       z     vdW  Elec       q    Type
REMARK                         _______ _______ _______ _____ _____    ______ ____
ROOT
ATOM      1  C   UNL     1      -0.127  11.426  21.310  0.00  0.00    +0.000 A 
ATOM      2  N   UNL     1      -0.770  11.337  22.493  0.00  0.00    +0.000 NA
ATOM      3  C   UNL     1      -0.667  10.191  23.200  0.00  0.00    +0.000 A 
ATOM      4  C   UNL     1      -0.020   9.057  22.751  0.00  0.00    +0.000 A 
ATOM      5  C   UNL     1       0.587   9.089  21.496  0.00  0.00    +0.000 A 
ATOM      6  C   UNL     1       1.178   7.926  20.943  0.00  0.00    +0.000 A 
ATOM      7  C   UNL     1       1.771   7.932  19.674  0.00  0.00    +0.000 A 
ATOM      8  C   UNL     1       1.887   9.160  19.036  0.00  0.00    +0.000 A 
ATOM      9  C   UNL     1       1.353  10.319  19.593  0.00  0.00    +0.000 A 
ATOM     10  C   UNL     1       0.596  10.309  20.783  0.00  0.00    +0.000 A 
ENDROOT
BRANCH   7  11
ATOM     11  N   UNL     1       2.169   6.724  19.058  0.00  0.00    +0.000 N 
ATOM     12  C   UNL     1       1.923   5.441  19.453  0.00  0.00    +0.000 A 
ATOM     13  N   UNL     1       1.080   5.028  20.407  0.00  0.00    +0.000 NA
ATOM     14  N   UNL     1       1.242   3.693  20.463  0.00  0.00    +0.000 N 
ATOM     15  C   UNL     1       2.164   3.217  19.572  0.00  0.00    +0.000 A 
ATOM     16  C   UNL     1       2.649   1.939  19.314  0.00  0.00    +0.000 A 
ATOM     17  C   UNL     1       3.613   1.862  18.316  0.00  0.00    +0.000 A 
ATOM     18  C   UNL     1       4.021   3.022  17.667  0.00  0.00    +0.000 A 
ATOM     19  N   UNL     1       3.565   4.272  17.909  0.00  0.00    +0.000 NA
ATOM     20  C   UNL     1       2.619   4.331  18.883  0.00  0.00    +0.000 A 
ATOM     21  H   UNL     1       2.881   6.841  18.345  0.00  0.00    +0.000 HD
ATOM     22  H   UNL     1       0.704   3.176  21.129  0.00  0.00    +0.000 HD
ENDBRANCH   7  11
BRANCH   1  28
ATOM     23  C   UNL     1      -1.194  12.855  19.525  0.00  0.00    +0.000 C 
ATOM     24  C   UNL     1      -0.419  13.402  18.304  0.00  0.00    +0.000 C 
ATOM     25  C   UNL     1       0.446  14.610  18.651  0.00  0.00    +0.000 C 
ATOM     26  C   UNL     1       1.383  14.285  19.800  0.00  0.00    +0.000 C 
ATOM     27  C   UNL     1       0.614  13.773  21.007  0.00  0.00    +0.000 C 
ATOM     28  N   UNL     1      -0.242  12.637  20.656  0.00  0.00    +0.000 N 
BRANCH  23  30
ATOM     29  F   UNL     1      -2.671  12.026  17.786  0.00  0.00    +0.000 F 
ATOM     30  C   UNL     1      -2.228  11.788  19.047  0.00  0.00    +0.000 C 
ATOM     31  F   UNL     1      -3.337  11.895  19.845  0.00  0.00    +0.000 F 
ATOM     32  F   UNL     1      -1.876  10.493  19.133  0.00  0.00    +0.000 F 
ENDBRANCH  23  30
ENDBRANCH   1  28
TORSDOF 3
ENDMDL
MODEL 9
REMARK VINA RESULT:      -8.0      4.008      8.986
REMARK  Name = 
REMARK  3 active torsions:
REMARK  status: ('A' for Active; 'I' for Inactive)
REMARK    1  A    between atoms: C_2  and  C_5
REMARK    2  A    between atoms: N_10  and  C_11
REMARK    3  A    between atoms: C_17  and  N_18
REMARK                            x       y       z     vdW  Elec       q    Type
REMARK                         _______ _______ _______ _____ _____    ______ ____
ROOT
ATOM      1  C   UNL     1      -0.483  11.685  21.356  0.00  0.00    +0.000 A 
ATOM      2  N   UNL     1      -1.277  11.830  22.438  0.00  0.00    +0.000 NA
ATOM      3  C   UNL     1      -1.313  10.835  23.350  0.00  0.00    +0.000 A 
ATOM      4  C   UNL     1      -0.660   9.626  23.209  0.00  0.00    +0.000 A 
ATOM      5  C   UNL     1       0.105   9.413  22.062  0.00  0.00    +0.000 A 
ATOM      6  C   UNL     1       0.714   8.158  21.817  0.00  0.00    +0.000 A 
ATOM      7  C   UNL     1       1.466   7.915  20.660  0.00  0.00    +0.000 A 
ATOM      8  C   UNL     1       1.713   9.000  19.828  0.00  0.00    +0.000 A 
ATOM      9  C   UNL     1       1.159  10.252  20.086  0.00  0.00    +0.000 A 
ATOM     10  C   UNL     1       0.255  10.477  21.144  0.00  0.00    +0.000 A 
ENDROOT
BRANCH   7  11
ATOM     11  N   UNL     1       1.889   6.608  20.336  0.00  0.00    +0.000 N 
ATOM     12  C   UNL     1       2.618   6.186  19.262  0.00  0.00    +0.000 A 
ATOM     13  N   UNL     1       3.271   6.941  18.371  0.00  0.00    +0.000 NA
ATOM     14  N   UNL     1       3.776   6.071  17.477  0.00  0.00    +0.000 N 
ATOM     15  C   UNL     1       3.477   4.766  17.757  0.00  0.00    +0.000 A 
ATOM     16  C   UNL     1       3.768   3.574  17.102  0.00  0.00    +0.000 A 
ATOM     17  C   UNL     1       3.267   2.428  17.707  0.00  0.00    +0.000 A 
ATOM     18  C   UNL     1       2.530   2.540  18.881  0.00  0.00    +0.000 A 
ATOM     19  N   UNL     1       2.233   3.690  19.527  0.00  0.00    +0.000 NA
ATOM     20  C   UNL     1       2.734   4.802  18.927  0.00  0.00    +0.000 A 
ATOM     21  H   UNL     1       1.427   5.881  20.873  0.00  0.00    +0.000 HD
ATOM     22  H   UNL     1       4.301   6.432  16.706  0.00  0.00    +0.000 HD
ENDBRANCH   7  11
BRANCH   1  28
ATOM     23  C   UNL     1      -1.296  12.795  19.240  0.00  0.00    +0.000 C 
ATOM     24  C   UNL     1      -0.383  13.064  18.022  0.00  0.00    +0.000 C 
ATOM     25  C   UNL     1       0.523  14.276  18.224  0.00  0.00    +0.000 C 
ATOM     26  C   UNL     1       1.332  14.133  19.499  0.00  0.00    +0.000 C 
ATOM     27  C   UNL     1       0.427  13.896  20.699  0.00  0.00    +0.000 C 
ATOM     28  N   UNL     1      -0.464  12.753  20.481  0.00  0.00    +0.000 N 
BRANCH  23  30
ATOM     29  F   UNL     1      -2.922  11.930  17.658  0.00  0.00    +0.000 F 
ATOM     30  C   UNL     1      -2.349  11.704  18.868  0.00  0.00    +0.000 C 
ATOM     31  F   UNL     1      -3.374  11.788  19.774  0.00  0.00    +0.000 F 
ATOM     32  F   UNL     1      -1.960  10.418  18.918  0.00  0.00    +0.000 F 
ENDBRANCH  23  30
ENDBRANCH   1  28
TORSDOF 3
ENDMDL
