MODEL 1
REMARK VINA RESULT:      -8.2      0.000      0.000
REMARK  Name = 
REMARK  7 active torsions:
REMARK  status: ('A' for Active; 'I' for Inactive)
REMARK    1  A    between atoms: C_1  and  C_2
REMARK    2  A    between atoms: C_7  and  C_8
REMARK    3  A    between atoms: C_11  and  N_12
REMARK    4  A    between atoms: N_12  and  C_13
REMARK    5  A    between atoms: C_16  and  C_17
REMARK    6  A    between atoms: C_21  and  C_22
REMARK    7  A    between atoms: C_22  and  O_24
REMARK                            x       y       z     vdW  Elec       q    Type
REMARK                         _______ _______ _______ _____ _____    ______ ____
ROOT
ATOM      1  N   UNL     1       3.102   6.159  19.035  0.00  0.00    +0.000 N 
ATOM      2  H   UNL     1       3.407   5.924  19.988  0.00  0.00    +0.000 HD
ENDROOT
BRANCH   1   6
ATOM      3  C   UNL     1       1.229   9.845  18.827  0.00  0.00    +0.000 A 
ATOM      4  N   UNL     1       1.778   9.349  17.698  0.00  0.00    +0.000 NA
ATOM      5  C   UNL     1       2.364   8.131  17.796  0.00  0.00    +0.000 A 
ATOM      6  C   UNL     1       2.439   7.392  18.960  0.00  0.00    +0.000 A 
ATOM      7  C   UNL     1       1.799   7.982  20.031  0.00  0.00    +0.000 A 
ATOM      8  N   UNL     1       1.193   9.182  19.995  0.00  0.00    +0.000 NA
BRANCH   3  15
ATOM      9  C   UNL     1      -1.714  10.317  18.182  0.00  0.00    +0.000 C 
ATOM     10  C   UNL     1      -0.739  11.434  18.463  0.00  0.00    +0.000 A 
ATOM     11  C   UNL     1      -1.227  12.753  18.406  0.00  0.00    +0.000 A 
ATOM     12  C   UNL     1      -0.397  13.838  18.678  0.00  0.00    +0.000 A 
ATOM     13  C   UNL     1       0.933  13.621  19.012  0.00  0.00    +0.000 A 
ATOM     14  C   UNL     1       1.434  12.319  19.064  0.00  0.00    +0.000 A 
ATOM     15  C   UNL     1       0.626  11.196  18.781  0.00  0.00    +0.000 A 
ENDBRANCH   3  15
ENDBRANCH   1   6
BRANCH   1  16
ATOM     16  C   UNL     1       3.902   5.567  18.027  0.00  0.00    +0.000 A 
ATOM     17  C   UNL     1       5.078   6.213  17.612  0.00  0.00    +0.000 A 
ATOM     18  C   UNL     1       5.900   5.663  16.627  0.00  0.00    +0.000 A 
ATOM     19  C   UNL     1       5.576   4.456  15.997  0.00  0.00    +0.000 A 
ATOM     20  C   UNL     1       4.385   3.824  16.385  0.00  0.00    +0.000 A 
ATOM     21  C   UNL     1       3.567   4.348  17.407  0.00  0.00    +0.000 A 
BRANCH  19  22
ATOM     22  C   UNL     1       6.460   3.875  14.923  0.00  0.00    +0.000 C 
ATOM     23  C   UNL     1       7.100   4.786  13.901  0.00  0.00    +0.000 C 
ATOM     24  C   UNL     1       5.994   3.865  13.484  0.00  0.00    +0.000 C 
ENDBRANCH  19  22
BRANCH  21  25
ATOM     25  C   UNL     1       2.345   3.615  17.834  0.00  0.00    +0.000 C 
ATOM     26  O   UNL     1       2.394   2.547  18.423  0.00  0.00    +0.000 OA
BRANCH  25  27
ATOM     27  O   UNL     1       1.184   4.186  17.451  0.00  0.00    +0.000 OA
ATOM     28  H   UNL     1       1.120   4.422  16.509  0.00  0.00    +0.000 HD
ENDBRANCH  25  27
ENDBRANCH  21  25
ENDBRANCH   1  16
TORSDOF 6
ENDMDL
MODEL 2
REMARK VINA RESULT:      -8.1      0.847      1.011
REMARK  Name = 
REMARK  7 active torsions:
REMARK  status: ('A' for Active; 'I' for Inactive)
REMARK    1  A    between atoms: C_1  and  C_2
REMARK    2  A    between atoms: C_7  and  C_8
REMARK    3  A    between atoms: C_11  and  N_12
REMARK    4  A    between atoms: N_12  and  C_13
REMARK    5  A    between atoms: C_16  and  C_17
REMARK    6  A    between atoms: C_21  and  C_22
REMARK    7  A    between atoms: C_22  and  O_24
REMARK                            x       y       z     vdW  Elec       q    Type
REMARK                         _______ _______ _______ _____ _____    ______ ____
ROOT
ATOM      1  N   UNL     1       3.043   6.074  19.750  0.00  0.00    +0.000 N 
ATOM      2  H   UNL     1       3.447   5.893  20.678  0.00  0.00    +0.000 HD
ENDROOT
BRANCH   1   6
ATOM      3  C   UNL     1       0.945   9.640  19.612  0.00  0.00    +0.000 A 
ATOM      4  N   UNL     1       1.594   9.243  18.497  0.00  0.00    +0.000 NA
ATOM      5  C   UNL     1       2.253   8.061  18.571  0.00  0.00    +0.000 A 
ATOM      6  C   UNL     1       2.305   7.265  19.697  0.00  0.00    +0.000 A 
ATOM      7  C   UNL     1       1.562   7.752  20.754  0.00  0.00    +0.000 A 
ATOM      8  N   UNL     1       0.882   8.912  20.741  0.00  0.00    +0.000 NA
BRANCH   3  15
ATOM      9  C   UNL     1      -1.644  10.127  18.079  0.00  0.00    +0.000 C 
ATOM     10  C   UNL     1      -0.939  11.199  18.872  0.00  0.00    +0.000 A 
ATOM     11  C   UNL     1      -1.511  12.485  18.882  0.00  0.00    +0.000 A 
ATOM     12  C   UNL     1      -0.935  13.522  19.611  0.00  0.00    +0.000 A 
ATOM     13  C   UNL     1       0.221  13.290  20.343  0.00  0.00    +0.000 A 
ATOM     14  C   UNL     1       0.806  12.022  20.336  0.00  0.00    +0.000 A 
ATOM     15  C   UNL     1       0.258  10.951  19.598  0.00  0.00    +0.000 A 
ENDBRANCH   3  15
ENDBRANCH   1   6
BRANCH   1  16
ATOM     16  C   UNL     1       3.779   5.487  18.692  0.00  0.00    +0.000 A 
ATOM     17  C   UNL     1       5.091   5.920  18.443  0.00  0.00    +0.000 A 
ATOM     18  C   UNL     1       5.856   5.366  17.414  0.00  0.00    +0.000 A 
ATOM     19  C   UNL     1       5.340   4.370  16.577  0.00  0.00    +0.000 A 
ATOM     20  C   UNL     1       4.018   3.958  16.802  0.00  0.00    +0.000 A 
ATOM     21  C   UNL     1       3.249   4.480  17.862  0.00  0.00    +0.000 A 
BRANCH  19  22
ATOM     22  C   UNL     1       6.166   3.786  15.460  0.00  0.00    +0.000 C 
ATOM     23  C   UNL     1       7.034   4.690  14.614  0.00  0.00    +0.000 C 
ATOM     24  C   UNL     1       5.802   4.076  14.021  0.00  0.00    +0.000 C 
ENDBRANCH  19  22
BRANCH  21  25
ATOM     25  C   UNL     1       1.873   3.971  18.108  0.00  0.00    +0.000 C 
ATOM     26  O   UNL     1       0.971   4.104  17.296  0.00  0.00    +0.000 OA
BRANCH  25  27
ATOM     27  O   UNL     1       1.686   3.421  19.325  0.00  0.00    +0.000 OA
ATOM     28  H   UNL     1       1.102   3.917  19.928  0.00  0.00    +0.000 HD
ENDBRANCH  25  27
ENDBRANCH  21  25
ENDBRANCH   1  16
TORSDOF 6
ENDMDL
MODEL 3
REMARK VINA RESULT:      -8.0      0.975      1.946
REMARK  Name = 
REMARK  7 active torsions:
REMARK  status: ('A' for Active; 'I' for Inactive)
REMARK    1  A    between atoms: C_1  and  C_2
REMARK    2  A    between atoms: C_7  and  C_8
REMARK    3  A    between atoms: C_11  and  N_12
REMARK    4  A    between atoms: N_12  and  C_13
REMARK    5  A    between atoms: C_16  and  C_17
REMARK    6  A    between atoms: C_21  and  C_22
REMARK    7  A    between atoms: C_22  and  O_24
REMARK                            x       y       z     vdW  Elec       q    Type
REMARK                         _______ _______ _______ _____ _____    ______ ____
ROOT
ATOM      1  N   UNL     1       3.177   6.131  19.712  0.00  0.00    +0.000 N 
ATOM      2  H   UNL     1       3.649   6.020  20.619  0.00  0.00    +0.000 HD
ENDROOT
BRANCH   1   6
ATOM      3  C   UNL     1       0.713   9.452  19.517  0.00  0.00    +0.000 A 
ATOM      4  N   UNL     1       0.779   8.780  20.686  0.00  0.00    +0.000 NA
ATOM      5  C   UNL     1       1.611   7.711  20.721  0.00  0.00    +0.000 A 
ATOM      6  C   UNL     1       2.369   7.275  19.653  0.00  0.00    +0.000 A 
ATOM      7  C   UNL     1       2.253   8.073  18.532  0.00  0.00    +0.000 A 
ATOM      8  N   UNL     1       1.453   9.149  18.437  0.00  0.00    +0.000 NA
BRANCH   3  15
ATOM      9  C   UNL     1       1.350  12.215  20.639  0.00  0.00    +0.000 C 
ATOM     10  C   UNL     1       0.050  11.882  19.949  0.00  0.00    +0.000 A 
ATOM     11  C   UNL     1      -0.910  12.906  19.838  0.00  0.00    +0.000 A 
ATOM     12  C   UNL     1      -2.124  12.686  19.193  0.00  0.00    +0.000 A 
ATOM     13  C   UNL     1      -2.397  11.439  18.645  0.00  0.00    +0.000 A 
ATOM     14  C   UNL     1      -1.459  10.411  18.754  0.00  0.00    +0.000 A 
ATOM     15  C   UNL     1      -0.223  10.594  19.414  0.00  0.00    +0.000 A 
ENDBRANCH   3  15
ENDBRANCH   1   6
BRANCH   1  16
ATOM     16  C   UNL     1       3.878   5.535  18.636  0.00  0.00    +0.000 A 
ATOM     17  C   UNL     1       5.180   5.969  18.338  0.00  0.00    +0.000 A 
ATOM     18  C   UNL     1       5.912   5.405  17.290  0.00  0.00    +0.000 A 
ATOM     19  C   UNL     1       5.370   4.399  16.482  0.00  0.00    +0.000 A 
ATOM     20  C   UNL     1       4.058   3.986  16.756  0.00  0.00    +0.000 A 
ATOM     21  C   UNL     1       3.324   4.517  17.836  0.00  0.00    +0.000 A 
BRANCH  19  22
ATOM     22  C   UNL     1       6.160   3.805  15.343  0.00  0.00    +0.000 C 
ATOM     23  C   UNL     1       6.993   4.702  14.457  0.00  0.00    +0.000 C 
ATOM     24  C   UNL     1       5.744   4.075  13.914  0.00  0.00    +0.000 C 
ENDBRANCH  19  22
BRANCH  21  25
ATOM     25  C   UNL     1       1.958   4.008  18.133  0.00  0.00    +0.000 C 
ATOM     26  O   UNL     1       1.027   4.136  17.355  0.00  0.00    +0.000 OA
BRANCH  25  27
ATOM     27  O   UNL     1       1.816   3.463  19.359  0.00  0.00    +0.000 OA
ATOM     28  H   UNL     1       0.965   3.022  19.530  0.00  0.00    +0.000 HD
ENDBRANCH  25  27
ENDBRANCH  21  25
ENDBRANCH   1  16
TORSDOF 6
ENDMDL
MODEL 4
REMARK VINA RESULT:      -7.8      0.701      1.502
REMARK  Name = 
REMARK  7 active torsions:
REMARK  status: ('A' for Active; 'I' for Inactive)
REMARK    1  A    between atoms: C_1  and  C_2
REMARK    2  A    between atoms: C_7  and  C_8
REMARK    3  A    between atoms: C_11  and  N_12
REMARK    4  A    between atoms: N_12  and  C_13
REMARK    5  A    between atoms: C_16  and  C_17
REMARK    6  A    between atoms: C_21  and  C_22
REMARK    7  A    between atoms: C_22  and  O_24
REMARK                            x       y       z     vdW  Elec       q    Type
REMARK                         _______ _______ _______ _____ _____    ______ ____
ROOT
ATOM      1  N   UNL     1       3.084   6.205  19.489  0.00  0.00    +0.000 N 
ATOM      2  H   UNL     1       3.504   6.057  20.416  0.00  0.00    +0.000 HD
ENDROOT
BRANCH   1   6
ATOM      3  C   UNL     1       0.951   9.746  19.264  0.00  0.00    +0.000 A 
ATOM      4  N   UNL     1       1.465   9.242  18.122  0.00  0.00    +0.000 NA
ATOM      5  C   UNL     1       2.139   8.072  18.228  0.00  0.00    +0.000 A 
ATOM      6  C   UNL     1       2.334   7.387  19.411  0.00  0.00    +0.000 A 
ATOM      7  C   UNL     1       1.719   7.976  20.498  0.00  0.00    +0.000 A 
ATOM      8  N   UNL     1       1.030   9.130  20.456  0.00  0.00    +0.000 NA
BRANCH   3  15
ATOM      9  C   UNL     1       2.329  12.314  18.368  0.00  0.00    +0.000 C 
ATOM     10  C   UNL     1       0.888  12.260  18.810  0.00  0.00    +0.000 A 
ATOM     11  C   UNL     1       0.163  13.466  18.817  0.00  0.00    +0.000 A 
ATOM     12  C   UNL     1      -1.179  13.496  19.187  0.00  0.00    +0.000 A 
ATOM     13  C   UNL     1      -1.819  12.320  19.555  0.00  0.00    +0.000 A 
ATOM     14  C   UNL     1      -1.111  11.116  19.562  0.00  0.00    +0.000 A 
ATOM     15  C   UNL     1       0.254  11.050  19.206  0.00  0.00    +0.000 A 
ENDBRANCH   3  15
ENDBRANCH   1   6
BRANCH   1  16
ATOM     16  C   UNL     1       3.810   5.593  18.438  0.00  0.00    +0.000 A 
ATOM     17  C   UNL     1       5.044   6.136  18.047  0.00  0.00    +0.000 A 
ATOM     18  C   UNL     1       5.797   5.562  17.020  0.00  0.00    +0.000 A 
ATOM     19  C   UNL     1       5.343   4.436  16.325  0.00  0.00    +0.000 A 
ATOM     20  C   UNL     1       4.095   3.911  16.690  0.00  0.00    +0.000 A 
ATOM     21  C   UNL     1       3.344   4.455  17.752  0.00  0.00    +0.000 A 
BRANCH  19  22
ATOM     22  C   UNL     1       6.154   3.830  15.208  0.00  0.00    +0.000 C 
ATOM     23  C   UNL     1       6.954   4.724  14.288  0.00  0.00    +0.000 C 
ATOM     24  C   UNL     1       5.729   4.033  13.770  0.00  0.00    +0.000 C 
ENDBRANCH  19  22
BRANCH  21  25
ATOM     25  C   UNL     1       2.054   3.831  18.152  0.00  0.00    +0.000 C 
ATOM     26  O   UNL     1       1.077   3.821  17.421  0.00  0.00    +0.000 OA
BRANCH  25  27
ATOM     27  O   UNL     1       2.029   3.347  19.411  0.00  0.00    +0.000 OA
ATOM     28  H   UNL     1       1.144   3.186  19.785  0.00  0.00    +0.000 HD
ENDBRANCH  25  27
ENDBRANCH  21  25
ENDBRANCH   1  16
TORSDOF 6
ENDMDL
MODEL 5
REMARK VINA RESULT:      -7.8      0.512      1.626
REMARK  Name = 
REMARK  7 active torsions:
REMARK  status: ('A' for Active; 'I' for Inactive)
REMARK    1  A    between atoms: C_1  and  C_2
REMARK    2  A    between atoms: C_7  and  C_8
REMARK    3  A    between atoms: C_11  and  N_12
REMARK    4  A    between atoms: N_12  and  C_13
REMARK    5  A    between atoms: C_16  and  C_17
REMARK    6  A    between atoms: C_21  and  C_22
REMARK    7  A    between atoms: C_22  and  O_24
REMARK                            x       y       z     vdW  Elec       q    Type
REMARK                         _______ _______ _______ _____ _____    ______ ____
ROOT
ATOM      1  N   UNL     1       2.812   6.053  19.077  0.00  0.00    +0.000 N 
ATOM      2  H   UNL     1       3.002   5.708  20.027  0.00  0.00    +0.000 HD
ENDROOT
BRANCH   1   6
ATOM      3  C   UNL     1       1.039   9.794  19.037  0.00  0.00    +0.000 A 
ATOM      4  N   UNL     1       1.183   9.174  20.227  0.00  0.00    +0.000 NA
ATOM      5  C   UNL     1       1.786   7.961  20.206  0.00  0.00    +0.000 A 
ATOM      6  C   UNL     1       2.241   7.333  19.064  0.00  0.00    +0.000 A 
ATOM      7  C   UNL     1       2.083   8.089  17.919  0.00  0.00    +0.000 A 
ATOM      8  N   UNL     1       1.501   9.300  17.875  0.00  0.00    +0.000 NA
BRANCH   3  15
ATOM      9  C   UNL     1       2.445  12.408  18.337  0.00  0.00    +0.000 C 
ATOM     10  C   UNL     1       0.982  12.326  18.697  0.00  0.00    +0.000 A 
ATOM     11  C   UNL     1       0.249  13.527  18.719  0.00  0.00    +0.000 A 
ATOM     12  C   UNL     1      -1.111  13.533  19.017  0.00  0.00    +0.000 A 
ATOM     13  C   UNL     1      -1.761  12.338  19.295  0.00  0.00    +0.000 A 
ATOM     14  C   UNL     1      -1.046  11.139  19.285  0.00  0.00    +0.000 A 
ATOM     15  C   UNL     1       0.337  11.096  19.002  0.00  0.00    +0.000 A 
ENDBRANCH   3  15
ENDBRANCH   1   6
BRANCH   1  16
ATOM     16  C   UNL     1       3.669   5.499  18.095  0.00  0.00    +0.000 A 
ATOM     17  C   UNL     1       4.813   6.211  17.700  0.00  0.00    +0.000 A 
ATOM     18  C   UNL     1       5.691   5.702  16.740  0.00  0.00    +0.000 A 
ATOM     19  C   UNL     1       5.455   4.470  16.118  0.00  0.00    +0.000 A 
ATOM     20  C   UNL     1       4.295   3.772  16.486  0.00  0.00    +0.000 A 
ATOM     21  C   UNL     1       3.424   4.255  17.483  0.00  0.00    +0.000 A 
BRANCH  19  22
ATOM     22  C   UNL     1       6.398   3.932  15.072  0.00  0.00    +0.000 C 
ATOM     23  C   UNL     1       7.098   4.884  14.129  0.00  0.00    +0.000 C 
ATOM     24  C   UNL     1       6.014   3.988  13.610  0.00  0.00    +0.000 C 
ENDBRANCH  19  22
BRANCH  21  25
ATOM     25  C   UNL     1       2.238   3.454  17.891  0.00  0.00    +0.000 C 
ATOM     26  O   UNL     1       2.339   2.374  18.451  0.00  0.00    +0.000 OA
BRANCH  25  27
ATOM     27  O   UNL     1       1.051   3.980  17.525  0.00  0.00    +0.000 OA
ATOM     28  H   UNL     1       0.860   4.873  17.867  0.00  0.00    +0.000 HD
ENDBRANCH  25  27
ENDBRANCH  21  25
ENDBRANCH   1  16
TORSDOF 6
ENDMDL
MODEL 6
REMARK VINA RESULT:      -7.5      0.801      1.053
REMARK  Name = 
REMARK  7 active torsions:
REMARK  status: ('A' for Active; 'I' for Inactive)
REMARK    1  A    between atoms: C_1  and  C_2
REMARK    2  A    between atoms: C_7  and  C_8
REMARK    3  A    between atoms: C_11  and  N_12
REMARK    4  A    between atoms: N_12  and  C_13
REMARK    5  A    between atoms: C_16  and  C_17
REMARK    6  A    between atoms: C_21  and  C_22
REMARK    7  A    between atoms: C_22  and  O_24
REMARK                            x       y       z     vdW  Elec       q    Type
REMARK                         _______ _______ _______ _____ _____    ______ ____
ROOT
ATOM      1  N   UNL     1       3.407   6.142  18.911  0.00  0.00    +0.000 N 
ATOM      2  H   UNL     1       3.812   5.962  19.839  0.00  0.00    +0.000 HD
ENDROOT
BRANCH   1   6
ATOM      3  C   UNL     1       1.286   9.694  18.775  0.00  0.00    +0.000 A 
ATOM      4  N   UNL     1       1.898   9.279  17.647  0.00  0.00    +0.000 NA
ATOM      5  C   UNL     1       2.566   8.102  17.721  0.00  0.00    +0.000 A 
ATOM      6  C   UNL     1       2.661   7.328  18.860  0.00  0.00    +0.000 A 
ATOM      7  C   UNL     1       1.952   7.832  19.931  0.00  0.00    +0.000 A 
ATOM      8  N   UNL     1       1.264   8.988  19.919  0.00  0.00    +0.000 NA
BRANCH   3  15
ATOM      9  C   UNL     1      -1.643   9.994  17.983  0.00  0.00    +0.000 C 
ATOM     10  C   UNL     1      -0.769  11.160  18.372  0.00  0.00    +0.000 A 
ATOM     11  C   UNL     1      -1.346  12.443  18.350  0.00  0.00    +0.000 A 
ATOM     12  C   UNL     1      -0.612  13.567  18.721  0.00  0.00    +0.000 A 
ATOM     13  C   UNL     1       0.709  13.426  19.122  0.00  0.00    +0.000 A 
ATOM     14  C   UNL     1       1.299  12.161  19.141  0.00  0.00    +0.000 A 
ATOM     15  C   UNL     1       0.591  11.001  18.759  0.00  0.00    +0.000 A 
ENDBRANCH   3  15
ENDBRANCH   1   6
BRANCH   1  16
ATOM     16  C   UNL     1       4.147   5.562  17.852  0.00  0.00    +0.000 A 
ATOM     17  C   UNL     1       4.664   6.388  16.841  0.00  0.00    +0.000 A 
ATOM     18  C   UNL     1       5.406   5.862  15.781  0.00  0.00    +0.000 A 
ATOM     19  C   UNL     1       5.646   4.487  15.672  0.00  0.00    +0.000 A 
ATOM     20  C   UNL     1       5.104   3.655  16.662  0.00  0.00    +0.000 A 
ATOM     21  C   UNL     1       4.389   4.178  17.759  0.00  0.00    +0.000 A 
BRANCH  19  22
ATOM     22  C   UNL     1       6.435   3.923  14.517  0.00  0.00    +0.000 C 
ATOM     23  C   UNL     1       6.751   4.796  13.324  0.00  0.00    +0.000 C 
ATOM     24  C   UNL     1       5.758   3.682  13.187  0.00  0.00    +0.000 C 
ENDBRANCH  19  22
BRANCH  21  25
ATOM     25  C   UNL     1       3.884   3.269  18.823  0.00  0.00    +0.000 C 
ATOM     26  O   UNL     1       2.745   2.830  18.823  0.00  0.00    +0.000 OA
BRANCH  25  27
ATOM     27  O   UNL     1       4.758   3.033  19.823  0.00  0.00    +0.000 OA
ATOM     28  H   UNL     1       5.476   2.407  19.618  0.00  0.00    +0.000 HD
ENDBRANCH  25  27
ENDBRANCH  21  25
ENDBRANCH   1  16
TORSDOF 6
ENDMDL
MODEL 7
REMARK VINA RESULT:      -7.5      2.766      8.763
REMARK  Name = 
REMARK  7 active torsions:
REMARK  status: ('A' for Active; 'I' for Inactive)
REMARK    1  A    between atoms: C_1  and  C_2
REMARK    2  A    between atoms: C_7  and  C_8
REMARK    3  A    between atoms: C_11  and  N_12
REMARK    4  A    between atoms: N_12  and  C_13
REMARK    5  A    between atoms: C_16  and  C_17
REMARK    6  A    between atoms: C_21  and  C_22
REMARK    7  A    between atoms: C_22  and  O_24
REMARK                            x       y       z     vdW  Elec       q    Type
REMARK                         _______ _______ _______ _____ _____    ______ ____
ROOT
ATOM      1  N   UNL     1       0.230  10.382  19.911  0.00  0.00    +0.000 N 
ATOM      2  H   UNL     1      -0.742  10.054  19.982  0.00  0.00    +0.000 HD
ENDROOT
BRANCH   1   6
ATOM      3  C   UNL     1       2.709   7.487  18.294  0.00  0.00    +0.000 A 
ATOM      4  N   UNL     1       2.342   8.519  17.505  0.00  0.00    +0.000 NA
ATOM      5  C   UNL     1       1.547   9.459  18.072  0.00  0.00    +0.000 A 
ATOM      6  C   UNL     1       1.095   9.417  19.376  0.00  0.00    +0.000 A 
ATOM      7  C   UNL     1       1.580   8.342  20.094  0.00  0.00    +0.000 A 
ATOM      8  N   UNL     1       2.376   7.382  19.592  0.00  0.00    +0.000 NA
BRANCH   3  15
ATOM      9  C   UNL     1       1.737   4.605  18.078  0.00  0.00    +0.000 C 
ATOM     10  C   UNL     1       3.100   5.055  17.613  0.00  0.00    +0.000 A 
ATOM     11  C   UNL     1       3.956   4.081  17.068  0.00  0.00    +0.000 A 
ATOM     12  C   UNL     1       5.220   4.420  16.593  0.00  0.00    +0.000 A 
ATOM     13  C   UNL     1       5.647   5.740  16.652  0.00  0.00    +0.000 A 
ATOM     14  C   UNL     1       4.813   6.717  17.198  0.00  0.00    +0.000 A 
ATOM     15  C   UNL     1       3.530   6.407  17.703  0.00  0.00    +0.000 A 
ENDBRANCH   3  15
ENDBRANCH   1   6
BRANCH   1  16
ATOM     16  C   UNL     1       0.342  11.787  19.773  0.00  0.00    +0.000 A 
ATOM     17  C   UNL     1       1.344  12.471  20.479  0.00  0.00    +0.000 A 
ATOM     18  C   UNL     1       1.496  13.855  20.369  0.00  0.00    +0.000 A 
ATOM     19  C   UNL     1       0.642  14.619  19.566  0.00  0.00    +0.000 A 
ATOM     20  C   UNL     1      -0.381  13.945  18.885  0.00  0.00    +0.000 A 
ATOM     21  C   UNL     1      -0.520  12.543  18.955  0.00  0.00    +0.000 A 
BRANCH  19  22
ATOM     22  C   UNL     1       0.801  16.115  19.463  0.00  0.00    +0.000 C 
ATOM     23  C   UNL     1       0.088  16.874  18.367  0.00  0.00    +0.000 C 
ATOM     24  C   UNL     1       1.578  16.714  18.311  0.00  0.00    +0.000 C 
ENDBRANCH  19  22
BRANCH  21  25
ATOM     25  C   UNL     1      -1.579  11.857  18.166  0.00  0.00    +0.000 C 
ATOM     26  O   UNL     1      -2.268  10.965  18.634  0.00  0.00    +0.000 OA
BRANCH  25  27
ATOM     27  O   UNL     1      -1.661  12.246  16.877  0.00  0.00    +0.000 OA
ATOM     28  H   UNL     1      -1.460  13.183  16.704  0.00  0.00    +0.000 HD
ENDBRANCH  25  27
ENDBRANCH  21  25
ENDBRANCH   1  16
TORSDOF 6
ENDMDL
MODEL 8
REMARK VINA RESULT:      -7.5      1.211      1.931
REMARK  Name = 
REMARK  7 active torsions:
REMARK  status: ('A' for Active; 'I' for Inactive)
REMARK    1  A    between atoms: C_1  and  C_2
REMARK    2  A    between atoms: C_7  and  C_8
REMARK    3  A    between atoms: C_11  and  N_12
REMARK    4  A    between atoms: N_12  and  C_13
REMARK    5  A    between atoms: C_16  and  C_17
REMARK    6  A    between atoms: C_21  and  C_22
REMARK    7  A    between atoms: C_22  and  O_24
REMARK                            x       y       z     vdW  Elec       q    Type
REMARK                         _______ _______ _______ _____ _____    ______ ____
ROOT
ATOM      1  N   UNL     1       4.110   6.472  18.632  0.00  0.00    +0.000 N 
ATOM      2  H   UNL     1       4.835   6.708  19.323  0.00  0.00    +0.000 HD
ENDROOT
BRANCH   1   6
ATOM      3  C   UNL     1       1.023   9.230  18.633  0.00  0.00    +0.000 A 
ATOM      4  N   UNL     1       1.797   9.146  17.531  0.00  0.00    +0.000 NA
ATOM      5  C   UNL     1       2.785   8.218  17.556  0.00  0.00    +0.000 A 
ATOM      6  C   UNL     1       3.044   7.382  18.623  0.00  0.00    +0.000 A 
ATOM      7  C   UNL     1       2.155   7.529  19.669  0.00  0.00    +0.000 A 
ATOM      8  N   UNL     1       1.152   8.424  19.701  0.00  0.00    +0.000 NA
BRANCH   3  15
ATOM      9  C   UNL     1       1.251  11.751  20.333  0.00  0.00    +0.000 C 
ATOM     10  C   UNL     1       0.050  11.437  19.477  0.00  0.00    +0.000 A 
ATOM     11  C   UNL     1      -1.015  12.357  19.486  0.00  0.00    +0.000 A 
ATOM     12  C   UNL     1      -2.148  12.152  18.703  0.00  0.00    +0.000 A 
ATOM     13  C   UNL     1      -2.235  11.025  17.897  0.00  0.00    +0.000 A 
ATOM     14  C   UNL     1      -1.191  10.098  17.884  0.00  0.00    +0.000 A 
ATOM     15  C   UNL     1      -0.033  10.266  18.674  0.00  0.00    +0.000 A 
ENDBRANCH   3  15
ENDBRANCH   1   6
BRANCH   1  16
ATOM     16  C   UNL     1       4.605   5.738  17.526  0.00  0.00    +0.000 A 
ATOM     17  C   UNL     1       5.088   6.429  16.403  0.00  0.00    +0.000 A 
ATOM     18  C   UNL     1       5.591   5.749  15.292  0.00  0.00    +0.000 A 
ATOM     19  C   UNL     1       5.617   4.350  15.245  0.00  0.00    +0.000 A 
ATOM     20  C   UNL     1       5.106   3.656  16.351  0.00  0.00    +0.000 A 
ATOM     21  C   UNL     1       4.633   4.331  17.495  0.00  0.00    +0.000 A 
BRANCH  19  22
ATOM     22  C   UNL     1       6.148   3.621  14.037  0.00  0.00    +0.000 C 
ATOM     23  C   UNL     1       6.687   4.404  12.862  0.00  0.00    +0.000 C 
ATOM     24  C   UNL     1       5.387   3.669  12.730  0.00  0.00    +0.000 C 
ENDBRANCH  19  22
BRANCH  21  25
ATOM     25  C   UNL     1       4.157   3.559  18.675  0.00  0.00    +0.000 C 
ATOM     26  O   UNL     1       3.002   3.606  19.066  0.00  0.00    +0.000 OA
BRANCH  25  27
ATOM     27  O   UNL     1       5.120   2.867  19.319  0.00  0.00    +0.000 OA
ATOM     28  H   UNL     1       5.353   2.004  18.930  0.00  0.00    +0.000 HD
ENDBRANCH  25  27
ENDBRANCH  21  25
ENDBRANCH   1  16
TORSDOF 6
ENDMDL
MODEL 9
REMARK VINA RESULT:      -7.5      1.324      1.675
REMARK  Name = 
REMARK  7 active torsions:
REMARK  status: ('A' for Active; 'I' for Inactive)
REMARK    1  A    between atoms: C_1  and  C_2
REMARK    2  A    between atoms: C_7  and  C_8
REMARK    3  A    between atoms: C_11  and  N_12
REMARK    4  A    between atoms: N_12  and  C_13
REMARK    5  A    between atoms: C_16  and  C_17
REMARK    6  A    between atoms: C_21  and  C_22
REMARK    7  A    between atoms: C_22  and  O_24
REMARK                            x       y       z     vdW  Elec       q    Type
REMARK                         _______ _______ _______ _____ _____    ______ ____
ROOT
ATOM      1  N   UNL     1       3.232   6.066  19.849  0.00  0.00    +0.000 N 
ATOM      2  H   UNL     1       3.754   5.997  20.733  0.00  0.00    +0.000 HD
ENDROOT
BRANCH   1   6
ATOM      3  C   UNL     1       0.713   9.351  19.781  0.00  0.00    +0.000 A 
ATOM      4  N   UNL     1       1.507   9.139  18.710  0.00  0.00    +0.000 NA
ATOM      5  C   UNL     1       2.303   8.043  18.756  0.00  0.00    +0.000 A 
ATOM      6  C   UNL     1       2.355   7.159  19.815  0.00  0.00    +0.000 A 
ATOM      7  C   UNL     1       1.462   7.456  20.826  0.00  0.00    +0.000 A 
ATOM      8  N   UNL     1       0.642   8.521  20.835  0.00  0.00    +0.000 NA
BRANCH   3  15
ATOM      9  C   UNL     1      -0.313  10.606  22.363  0.00  0.00    +0.000 C 
ATOM     10  C   UNL     1      -0.636  11.150  20.994  0.00  0.00    +0.000 A 
ATOM     11  C   UNL     1      -1.464  12.286  20.924  0.00  0.00    +0.000 A 
ATOM     12  C   UNL     1      -1.788  12.864  19.699  0.00  0.00    +0.000 A 
ATOM     13  C   UNL     1      -1.287  12.318  18.525  0.00  0.00    +0.000 A 
ATOM     14  C   UNL     1      -0.471  11.186  18.577  0.00  0.00    +0.000 A 
ATOM     15  C   UNL     1      -0.133  10.565  19.800  0.00  0.00    +0.000 A 
ENDBRANCH   3  15
ENDBRANCH   1   6
BRANCH   1  16
ATOM     16  C   UNL     1       3.914   5.495  18.747  0.00  0.00    +0.000 A 
ATOM     17  C   UNL     1       5.229   5.898  18.467  0.00  0.00    +0.000 A 
ATOM     18  C   UNL     1       5.943   5.358  17.395  0.00  0.00    +0.000 A 
ATOM     19  C   UNL     1       5.369   4.407  16.544  0.00  0.00    +0.000 A 
ATOM     20  C   UNL     1       4.043   4.025  16.800  0.00  0.00    +0.000 A 
ATOM     21  C   UNL     1       3.327   4.533  17.903  0.00  0.00    +0.000 A 
BRANCH  19  22
ATOM     22  C   UNL     1       6.139   3.837  15.380  0.00  0.00    +0.000 C 
ATOM     23  C   UNL     1       7.017   4.741  14.544  0.00  0.00    +0.000 C 
ATOM     24  C   UNL     1       5.745   4.199  13.965  0.00  0.00    +0.000 C 
ENDBRANCH  19  22
BRANCH  21  25
ATOM     25  C   UNL     1       1.944   4.056  18.179  0.00  0.00    +0.000 C 
ATOM     26  O   UNL     1       1.034   4.189  17.377  0.00  0.00    +0.000 OA
BRANCH  25  27
ATOM     27  O   UNL     1       1.764   3.537  19.411  0.00  0.00    +0.000 OA
ATOM     28  H   UNL     1       0.892   3.136  19.578  0.00  0.00    +0.000 HD
ENDBRANCH  25  27
ENDBRANCH  21  25
ENDBRANCH   1  16
TORSDOF 6
ENDMDL
