MODEL 1
REMARK VINA RESULT:      -8.4      0.000      0.000
REMARK  Name = 
REMARK  2 active torsions:
REMARK  status: ('A' for Active; 'I' for Inactive)
REMARK    1  A    between atoms: N_1  and  C_2
REMARK    2  A    between atoms: C_3  and  C_4
REMARK                            x       y       z     vdW  Elec       q    Type
REMARK                         _______ _______ _______ _____ _____    ______ ____
ROOT
ATOM      1  C   UNL     1       3.945   3.404  19.782  0.00  0.00    +0.000 A 
ATOM      2  C   UNL     1       3.989   4.491  18.970  0.00  0.00    +0.000 A 
ATOM      3  C   UNL     1       3.096   5.652  19.254  0.00  0.00    +0.000 A 
ATOM      4  C   UNL     1       3.058   6.784  18.426  0.00  0.00    +0.000 A 
ATOM      5  C   UNL     1       2.288   7.894  18.783  0.00  0.00    +0.000 A 
ATOM      6 CL   UNL     1       2.306   9.300  17.789  0.00  0.00    +0.000 Cl
ATOM      7  C   UNL     1       1.521   7.886  19.945  0.00  0.00    +0.000 A 
ATOM      8  C   UNL     1       1.503   6.747  20.748  0.00  0.00    +0.000 A 
ATOM      9  C   UNL     1       2.287   5.644  20.398  0.00  0.00    +0.000 A 
ATOM     10  N   UNL     1       2.267   4.519  21.217  0.00  0.00    +0.000 N 
ATOM     11  C   UNL     1       3.024   3.410  20.990  0.00  0.00    +0.000 A 
ATOM     12  O   UNL     1       3.001   2.454  21.766  0.00  0.00    +0.000 OA
ATOM     13  H   UNL     1       1.686   4.489  22.044  0.00  0.00    +0.000 HD
ENDROOT
BRANCH   2  14
ATOM     14  C   UNL     1       4.982   4.474  17.858  0.00  0.00    +0.000 A 
ATOM     15  C   UNL     1       4.587   3.977  16.606  0.00  0.00    +0.000 A 
ATOM     16  C   UNL     1       5.499   3.921  15.543  0.00  0.00    +0.000 A 
ATOM     17  C   UNL     1       6.804   4.375  15.711  0.00  0.00    +0.000 A 
ATOM     18  C   UNL     1       7.209   4.876  16.951  0.00  0.00    +0.000 A 
ATOM     19  C   UNL     1       6.309   4.917  18.022  0.00  0.00    +0.000 A 
ATOM     20 CL   UNL     1       6.897   5.496  19.541  0.00  0.00    +0.000 Cl
ENDBRANCH   2  14
BRANCH   1  21
ATOM     21  N   UNL     1       4.721   2.249  19.654  0.00  0.00    +0.000 N 
ATOM     22  H   UNL     1       5.454   2.327  18.962  0.00  0.00    +0.000 HD
ATOM     23  H   UNL     1       5.072   1.961  20.573  0.00  0.00    +0.000 HD
ENDBRANCH   1  21
TORSDOF 2
ENDMDL
MODEL 2
REMARK VINA RESULT:      -7.9      3.132      5.707
REMARK  Name = 
REMARK  2 active torsions:
REMARK  status: ('A' for Active; 'I' for Inactive)
REMARK    1  A    between atoms: N_1  and  C_2
REMARK    2  A    between atoms: C_3  and  C_4
REMARK                            x       y       z     vdW  Elec       q    Type
REMARK                         _______ _______ _______ _____ _____    ______ ____
ROOT
ATOM      1  C   UNL     1       5.960   4.622  18.371  0.00  0.00    +0.000 A 
ATOM      2  C   UNL     1       5.151   4.263  17.343  0.00  0.00    +0.000 A 
ATOM      3  C   UNL     1       5.668   4.340  15.945  0.00  0.00    +0.000 A 
ATOM      4  C   UNL     1       4.868   4.030  14.835  0.00  0.00    +0.000 A 
ATOM      5  C   UNL     1       5.418   4.013  13.551  0.00  0.00    +0.000 A 
ATOM      6 CL   UNL     1       4.437   3.564  12.208  0.00  0.00    +0.000 Cl
ATOM      7  C   UNL     1       6.757   4.333  13.344  0.00  0.00    +0.000 A 
ATOM      8  C   UNL     1       7.551   4.700  14.429  0.00  0.00    +0.000 A 
ATOM      9  C   UNL     1       7.003   4.700  15.715  0.00  0.00    +0.000 A 
ATOM     10  N   UNL     1       7.812   5.058  16.789  0.00  0.00    +0.000 N 
ATOM     11  C   UNL     1       7.390   5.050  18.084  0.00  0.00    +0.000 A 
ATOM     12  O   UNL     1       8.155   5.337  19.004  0.00  0.00    +0.000 OA
ATOM     13  H   UNL     1       8.776   5.327  16.646  0.00  0.00    +0.000 HD
ENDROOT
BRANCH   2  14
ATOM     14  C   UNL     1       3.793   3.755  17.686  0.00  0.00    +0.000 A 
ATOM     15  C   UNL     1       3.591   2.369  17.776  0.00  0.00    +0.000 A 
ATOM     16  C   UNL     1       2.322   1.852  18.071  0.00  0.00    +0.000 A 
ATOM     17  C   UNL     1       1.249   2.709  18.299  0.00  0.00    +0.000 A 
ATOM     18  C   UNL     1       1.437   4.091  18.218  0.00  0.00    +0.000 A 
ATOM     19  C   UNL     1       2.697   4.613  17.904  0.00  0.00    +0.000 A 
ATOM     20 CL   UNL     1       2.841   6.330  17.764  0.00  0.00    +0.000 Cl
ENDBRANCH   2  14
BRANCH   1  21
ATOM     21  N   UNL     1       5.628   4.596  19.728  0.00  0.00    +0.000 N 
ATOM     22  H   UNL     1       6.013   3.802  20.224  0.00  0.00    +0.000 HD
ATOM     23  H   UNL     1       5.870   5.491  20.164  0.00  0.00    +0.000 HD
ENDBRANCH   1  21
TORSDOF 2
ENDMDL
MODEL 3
REMARK VINA RESULT:      -7.8      1.231      1.637
REMARK  Name = 
REMARK  2 active torsions:
REMARK  status: ('A' for Active; 'I' for Inactive)
REMARK    1  A    between atoms: N_1  and  C_2
REMARK    2  A    between atoms: C_3  and  C_4
REMARK                            x       y       z     vdW  Elec       q    Type
REMARK                         _______ _______ _______ _____ _____    ______ ____
ROOT
ATOM      1  C   UNL     1       3.915   3.278  19.974  0.00  0.00    +0.000 A 
ATOM      2  C   UNL     1       3.989   4.358  19.155  0.00  0.00    +0.000 A 
ATOM      3  C   UNL     1       3.091   5.524  19.401  0.00  0.00    +0.000 A 
ATOM      4  C   UNL     1       3.084   6.649  18.563  0.00  0.00    +0.000 A 
ATOM      5  C   UNL     1       2.306   7.765  18.886  0.00  0.00    +0.000 A 
ATOM      6 CL   UNL     1       2.362   9.163  17.882  0.00  0.00    +0.000 Cl
ATOM      7  C   UNL     1       1.503   7.769  20.023  0.00  0.00    +0.000 A 
ATOM      8  C   UNL     1       1.455   6.637  20.835  0.00  0.00    +0.000 A 
ATOM      9  C   UNL     1       2.246   5.529  20.519  0.00  0.00    +0.000 A 
ATOM     10  N   UNL     1       2.195   4.411  21.346  0.00  0.00    +0.000 N 
ATOM     11  C   UNL     1       2.955   3.297  21.152  0.00  0.00    +0.000 A 
ATOM     12  O   UNL     1       2.903   2.348  21.934  0.00  0.00    +0.000 OA
ATOM     13  H   UNL     1       1.588   4.389  22.154  0.00  0.00    +0.000 HD
ENDROOT
BRANCH   2  14
ATOM     14  C   UNL     1       5.016   4.328  18.076  0.00  0.00    +0.000 A 
ATOM     15  C   UNL     1       6.306   4.807  18.357  0.00  0.00    +0.000 A 
ATOM     16  C   UNL     1       7.292   4.820  17.361  0.00  0.00    +0.000 A 
ATOM     17  C   UNL     1       7.011   4.340  16.085  0.00  0.00    +0.000 A 
ATOM     18  C   UNL     1       5.732   3.856  15.793  0.00  0.00    +0.000 A 
ATOM     19  C   UNL     1       4.737   3.858  16.778  0.00  0.00    +0.000 A 
ATOM     20 CL   UNL     1       3.165   3.299  16.328  0.00  0.00    +0.000 Cl
ENDBRANCH   2  14
BRANCH   1  21
ATOM     21  N   UNL     1       4.690   2.119  19.881  0.00  0.00    +0.000 N 
ATOM     22  H   UNL     1       5.326   2.119  19.094  0.00  0.00    +0.000 HD
ATOM     23  H   UNL     1       5.161   1.942  20.773  0.00  0.00    +0.000 HD
ENDBRANCH   1  21
TORSDOF 2
ENDMDL
MODEL 4
REMARK VINA RESULT:      -7.3      3.405      5.806
REMARK  Name = 
REMARK  2 active torsions:
REMARK  status: ('A' for Active; 'I' for Inactive)
REMARK    1  A    between atoms: N_1  and  C_2
REMARK    2  A    between atoms: C_3  and  C_4
REMARK                            x       y       z     vdW  Elec       q    Type
REMARK                         _______ _______ _______ _____ _____    ______ ____
ROOT
ATOM      1  C   UNL     1       5.940   4.499  18.242  0.00  0.00    +0.000 A 
ATOM      2  C   UNL     1       5.094   4.220  17.218  0.00  0.00    +0.000 A 
ATOM      3  C   UNL     1       5.608   4.245  15.817  0.00  0.00    +0.000 A 
ATOM      4  C   UNL     1       4.774   4.014  14.713  0.00  0.00    +0.000 A 
ATOM      5  C   UNL     1       5.313   3.941  13.425  0.00  0.00    +0.000 A 
ATOM      6 CL   UNL     1       4.285   3.589  12.089  0.00  0.00    +0.000 Cl
ATOM      7  C   UNL     1       6.675   4.128  13.210  0.00  0.00    +0.000 A 
ATOM      8  C   UNL     1       7.508   4.416  14.290  0.00  0.00    +0.000 A 
ATOM      9  C   UNL     1       6.970   4.471  15.580  0.00  0.00    +0.000 A 
ATOM     10  N   UNL     1       7.817   4.749  16.649  0.00  0.00    +0.000 N 
ATOM     11  C   UNL     1       7.404   4.784  17.945  0.00  0.00    +0.000 A 
ATOM     12  O   UNL     1       8.199   4.996  18.861  0.00  0.00    +0.000 OA
ATOM     13  H   UNL     1       8.802   4.922  16.500  0.00  0.00    +0.000 HD
ENDROOT
BRANCH   2  14
ATOM     14  C   UNL     1       3.694   3.848  17.570  0.00  0.00    +0.000 A 
ATOM     15  C   UNL     1       2.724   4.860  17.645  0.00  0.00    +0.000 A 
ATOM     16  C   UNL     1       1.403   4.554  17.999  0.00  0.00    +0.000 A 
ATOM     17  C   UNL     1       1.031   3.239  18.261  0.00  0.00    +0.000 A 
ATOM     18  C   UNL     1       1.985   2.221  18.185  0.00  0.00    +0.000 A 
ATOM     19  C   UNL     1       3.311   2.522  17.852  0.00  0.00    +0.000 A 
ATOM     20 CL   UNL     1       4.448   1.221  17.834  0.00  0.00    +0.000 Cl
ENDBRANCH   2  14
BRANCH   1  21
ATOM     21  N   UNL     1       5.615   4.507  19.600  0.00  0.00    +0.000 N 
ATOM     22  H   UNL     1       4.907   3.829  19.852  0.00  0.00    +0.000 HD
ATOM     23  H   UNL     1       6.467   4.418  20.163  0.00  0.00    +0.000 HD
ENDBRANCH   1  21
TORSDOF 2
ENDMDL
MODEL 5
REMARK VINA RESULT:      -7.3      2.301      5.091
REMARK  Name = 
REMARK  2 active torsions:
REMARK  status: ('A' for Active; 'I' for Inactive)
REMARK    1  A    between atoms: N_1  and  C_2
REMARK    2  A    between atoms: C_3  and  C_4
REMARK                            x       y       z     vdW  Elec       q    Type
REMARK                         _______ _______ _______ _____ _____    ______ ____
ROOT
ATOM      1  C   UNL     1       2.592   4.380  17.989  0.00  0.00    +0.000 A 
ATOM      2  C   UNL     1       3.319   5.520  18.107  0.00  0.00    +0.000 A 
ATOM      3  C   UNL     1       4.760   5.512  17.722  0.00  0.00    +0.000 A 
ATOM      4  C   UNL     1       5.578   6.643  17.866  0.00  0.00    +0.000 A 
ATOM      5  C   UNL     1       6.894   6.627  17.396  0.00  0.00    +0.000 A 
ATOM      6 CL   UNL     1       7.861   8.046  17.521  0.00  0.00    +0.000 Cl
ATOM      7  C   UNL     1       7.427   5.484  16.808  0.00  0.00    +0.000 A 
ATOM      8  C   UNL     1       6.647   4.333  16.710  0.00  0.00    +0.000 A 
ATOM      9  C   UNL     1       5.325   4.356  17.165  0.00  0.00    +0.000 A 
ATOM     10  N   UNL     1       4.555   3.203  17.050  0.00  0.00    +0.000 N 
ATOM     11  C   UNL     1       3.247   3.131  17.422  0.00  0.00    +0.000 A 
ATOM     12  O   UNL     1       2.596   2.099  17.264  0.00  0.00    +0.000 OA
ATOM     13  H   UNL     1       4.944   2.356  16.657  0.00  0.00    +0.000 HD
ENDROOT
BRANCH   2  14
ATOM     14  C   UNL     1       2.603   6.742  18.572  0.00  0.00    +0.000 A 
ATOM     15  C   UNL     1       2.381   7.785  17.660  0.00  0.00    +0.000 A 
ATOM     16  C   UNL     1       1.735   8.961  18.067  0.00  0.00    +0.000 A 
ATOM     17  C   UNL     1       1.287   9.100  19.377  0.00  0.00    +0.000 A 
ATOM     18  C   UNL     1       1.496   8.067  20.294  0.00  0.00    +0.000 A 
ATOM     19  C   UNL     1       2.158   6.899  19.900  0.00  0.00    +0.000 A 
ATOM     20 CL   UNL     1       2.433   5.688  21.103  0.00  0.00    +0.000 Cl
ENDBRANCH   2  14
BRANCH   1  21
ATOM     21  N   UNL     1       1.238   4.231  18.297  0.00  0.00    +0.000 N 
ATOM     22  H   UNL     1       0.705   5.087  18.209  0.00  0.00    +0.000 HD
ATOM     23  H   UNL     1       0.840   3.458  17.755  0.00  0.00    +0.000 HD
ENDBRANCH   1  21
TORSDOF 2
ENDMDL
MODEL 6
REMARK VINA RESULT:      -6.9      2.406      3.873
REMARK  Name = 
REMARK  2 active torsions:
REMARK  status: ('A' for Active; 'I' for Inactive)
REMARK    1  A    between atoms: N_1  and  C_2
REMARK    2  A    between atoms: C_3  and  C_4
REMARK                            x       y       z     vdW  Elec       q    Type
REMARK                         _______ _______ _______ _____ _____    ______ ____
ROOT
ATOM      1  C   UNL     1       3.569   6.710  18.189  0.00  0.00    +0.000 A 
ATOM      2  C   UNL     1       4.205   5.512  18.193  0.00  0.00    +0.000 A 
ATOM      3  C   UNL     1       3.898   4.524  19.267  0.00  0.00    +0.000 A 
ATOM      4  C   UNL     1       4.556   3.288  19.355  0.00  0.00    +0.000 A 
ATOM      5  C   UNL     1       4.166   2.347  20.312  0.00  0.00    +0.000 A 
ATOM      6 CL   UNL     1       4.940   0.809  20.361  0.00  0.00    +0.000 Cl
ATOM      7  C   UNL     1       3.143   2.628  21.213  0.00  0.00    +0.000 A 
ATOM      8  C   UNL     1       2.518   3.873  21.177  0.00  0.00    +0.000 A 
ATOM      9  C   UNL     1       2.898   4.807  20.208  0.00  0.00    +0.000 A 
ATOM     10  N   UNL     1       2.257   6.041  20.177  0.00  0.00    +0.000 N 
ATOM     11  C   UNL     1       2.521   7.003  19.251  0.00  0.00    +0.000 A 
ATOM     12  O   UNL     1       1.899   8.066  19.241  0.00  0.00    +0.000 OA
ATOM     13  H   UNL     1       1.537   6.270  20.851  0.00  0.00    +0.000 HD
ENDROOT
BRANCH   2  14
ATOM     14  C   UNL     1       5.149   5.236  17.072  0.00  0.00    +0.000 A 
ATOM     15  C   UNL     1       4.653   4.640  15.902  0.00  0.00    +0.000 A 
ATOM     16  C   UNL     1       5.514   4.341  14.836  0.00  0.00    +0.000 A 
ATOM     17  C   UNL     1       6.869   4.649  14.918  0.00  0.00    +0.000 A 
ATOM     18  C   UNL     1       7.375   5.247  16.076  0.00  0.00    +0.000 A 
ATOM     19  C   UNL     1       6.524   5.530  17.151  0.00  0.00    +0.000 A 
ATOM     20 CL   UNL     1       7.230   6.216  18.572  0.00  0.00    +0.000 Cl
ENDBRANCH   2  14
BRANCH   1  21
ATOM     21  N   UNL     1       3.739   7.731  17.251  0.00  0.00    +0.000 N 
ATOM     22  H   UNL     1       3.508   7.456  16.305  0.00  0.00    +0.000 HD
ATOM     23  H   UNL     1       3.237   8.571  17.554  0.00  0.00    +0.000 HD
ENDBRANCH   1  21
TORSDOF 2
ENDMDL
MODEL 7
REMARK VINA RESULT:      -6.6      3.080      4.789
REMARK  Name = 
REMARK  2 active torsions:
REMARK  status: ('A' for Active; 'I' for Inactive)
REMARK    1  A    between atoms: N_1  and  C_2
REMARK    2  A    between atoms: C_3  and  C_4
REMARK                            x       y       z     vdW  Elec       q    Type
REMARK                         _______ _______ _______ _____ _____    ______ ____
ROOT
ATOM      1  C   UNL     1       3.927   5.464  17.943  0.00  0.00    +0.000 A 
ATOM      2  C   UNL     1       2.942   5.809  18.811  0.00  0.00    +0.000 A 
ATOM      3  C   UNL     1       2.459   7.220  18.844  0.00  0.00    +0.000 A 
ATOM      4  C   UNL     1       1.479   7.653  19.750  0.00  0.00    +0.000 A 
ATOM      5  C   UNL     1       0.977   8.956  19.679  0.00  0.00    +0.000 A 
ATOM      6 CL   UNL     1      -0.274   9.447  20.756  0.00  0.00    +0.000 Cl
ATOM      7  C   UNL     1       1.462   9.855  18.735  0.00  0.00    +0.000 A 
ATOM      8  C   UNL     1       2.477   9.460  17.865  0.00  0.00    +0.000 A 
ATOM      9  C   UNL     1       2.965   8.151  17.926  0.00  0.00    +0.000 A 
ATOM     10  N   UNL     1       3.970   7.768  17.044  0.00  0.00    +0.000 N 
ATOM     11  C   UNL     1       4.485   6.509  16.991  0.00  0.00    +0.000 A 
ATOM     12  O   UNL     1       5.347   6.207  16.165  0.00  0.00    +0.000 OA
ATOM     13  H   UNL     1       4.355   8.425  16.377  0.00  0.00    +0.000 HD
ENDROOT
BRANCH   2  14
ATOM     14  C   UNL     1       2.360   4.725  19.651  0.00  0.00    +0.000 A 
ATOM     15  C   UNL     1       2.779   4.604  20.986  0.00  0.00    +0.000 A 
ATOM     16  C   UNL     1       2.274   3.581  21.800  0.00  0.00    +0.000 A 
ATOM     17  C   UNL     1       1.336   2.683  21.302  0.00  0.00    +0.000 A 
ATOM     18  C   UNL     1       0.906   2.794  19.977  0.00  0.00    +0.000 A 
ATOM     19  C   UNL     1       1.420   3.801  19.152  0.00  0.00    +0.000 A 
ATOM     20 CL   UNL     1       0.886   3.842  17.508  0.00  0.00    +0.000 Cl
ENDBRANCH   2  14
BRANCH   1  21
ATOM     21  N   UNL     1       4.476   4.189  17.787  0.00  0.00    +0.000 N 
ATOM     22  H   UNL     1       4.049   3.487  18.377  0.00  0.00    +0.000 HD
ATOM     23  H   UNL     1       4.475   3.928  16.796  0.00  0.00    +0.000 HD
ENDBRANCH   1  21
TORSDOF 2
ENDMDL
MODEL 8
REMARK VINA RESULT:      -6.4      2.356      2.960
REMARK  Name = 
REMARK  2 active torsions:
REMARK  status: ('A' for Active; 'I' for Inactive)
REMARK    1  A    between atoms: N_1  and  C_2
REMARK    2  A    between atoms: C_3  and  C_4
REMARK                            x       y       z     vdW  Elec       q    Type
REMARK                         _______ _______ _______ _____ _____    ______ ____
ROOT
ATOM      1  C   UNL     1       4.498   3.563  17.672  0.00  0.00    +0.000 A 
ATOM      2  C   UNL     1       4.430   4.775  18.280  0.00  0.00    +0.000 A 
ATOM      3  C   UNL     1       3.207   5.137  19.054  0.00  0.00    +0.000 A 
ATOM      4  C   UNL     1       3.055   6.391  19.664  0.00  0.00    +0.000 A 
ATOM      5  C   UNL     1       1.942   6.654  20.468  0.00  0.00    +0.000 A 
ATOM      6 CL   UNL     1       1.806   8.175  21.264  0.00  0.00    +0.000 Cl
ATOM      7  C   UNL     1       0.952   5.693  20.652  0.00  0.00    +0.000 A 
ATOM      8  C   UNL     1       1.060   4.463  20.006  0.00  0.00    +0.000 A 
ATOM      9  C   UNL     1       2.182   4.196  19.216  0.00  0.00    +0.000 A 
ATOM     10  N   UNL     1       2.280   2.958  18.587  0.00  0.00    +0.000 N 
ATOM     11  C   UNL     1       3.348   2.582  17.831  0.00  0.00    +0.000 A 
ATOM     12  O   UNL     1       3.407   1.460  17.326  0.00  0.00    +0.000 OA
ATOM     13  H   UNL     1       1.549   2.266  18.684  0.00  0.00    +0.000 HD
ENDROOT
BRANCH   2  14
ATOM     14  C   UNL     1       5.626   5.659  18.176  0.00  0.00    +0.000 A 
ATOM     15  C   UNL     1       6.682   5.478  19.083  0.00  0.00    +0.000 A 
ATOM     16  C   UNL     1       7.811   6.307  19.034  0.00  0.00    +0.000 A 
ATOM     17  C   UNL     1       7.908   7.308  18.072  0.00  0.00    +0.000 A 
ATOM     18  C   UNL     1       6.866   7.496  17.160  0.00  0.00    +0.000 A 
ATOM     19  C   UNL     1       5.727   6.685  17.216  0.00  0.00    +0.000 A 
ATOM     20 CL   UNL     1       4.454   7.013  16.093  0.00  0.00    +0.000 Cl
ENDBRANCH   2  14
BRANCH   1  21
ATOM     21  N   UNL     1       5.572   3.076  16.924  0.00  0.00    +0.000 N 
ATOM     22  H   UNL     1       5.392   3.043  15.928  0.00  0.00    +0.000 HD
ATOM     23  H   UNL     1       6.424   3.596  17.155  0.00  0.00    +0.000 HD
ENDBRANCH   1  21
TORSDOF 2
ENDMDL
MODEL 9
REMARK VINA RESULT:      -6.3      3.244      5.414
REMARK  Name = 
REMARK  2 active torsions:
REMARK  status: ('A' for Active; 'I' for Inactive)
REMARK    1  A    between atoms: N_1  and  C_2
REMARK    2  A    between atoms: C_3  and  C_4
REMARK                            x       y       z     vdW  Elec       q    Type
REMARK                         _______ _______ _______ _____ _____    ______ ____
ROOT
ATOM      1  C   UNL     1       5.149   6.257  17.435  0.00  0.00    +0.000 A 
ATOM      2  C   UNL     1       3.889   5.934  17.823  0.00  0.00    +0.000 A 
ATOM      3  C   UNL     1       3.467   4.503  17.818  0.00  0.00    +0.000 A 
ATOM      4  C   UNL     1       2.165   4.108  18.160  0.00  0.00    +0.000 A 
ATOM      5  C   UNL     1       1.838   2.752  18.246  0.00  0.00    +0.000 A 
ATOM      6 CL   UNL     1       0.254   2.285  18.733  0.00  0.00    +0.000 Cl
ATOM      7  C   UNL     1       2.785   1.771  17.963  0.00  0.00    +0.000 A 
ATOM      8  C   UNL     1       4.066   2.147  17.565  0.00  0.00    +0.000 A 
ATOM      9  C   UNL     1       4.396   3.504  17.497  0.00  0.00    +0.000 A 
ATOM     10  N   UNL     1       5.683   3.863  17.108  0.00  0.00    +0.000 N 
ATOM     11  C   UNL     1       6.119   5.152  17.050  0.00  0.00    +0.000 A 
ATOM     12  O   UNL     1       7.280   5.418  16.738  0.00  0.00    +0.000 OA
ATOM     13  H   UNL     1       6.368   3.160  16.866  0.00  0.00    +0.000 HD
ENDROOT
BRANCH   2  14
ATOM     14  C   UNL     1       3.011   7.045  18.287  0.00  0.00    +0.000 A 
ATOM     15  C   UNL     1       2.759   8.117  17.416  0.00  0.00    +0.000 A 
ATOM     16  C   UNL     1       1.959   9.193  17.825  0.00  0.00    +0.000 A 
ATOM     17  C   UNL     1       1.388   9.203  19.094  0.00  0.00    +0.000 A 
ATOM     18  C   UNL     1       1.626   8.140  19.969  0.00  0.00    +0.000 A 
ATOM     19  C   UNL     1       2.440   7.072  19.574  0.00  0.00    +0.000 A 
ATOM     20 CL   UNL     1       2.737   5.821  20.730  0.00  0.00    +0.000 Cl
ENDBRANCH   2  14
BRANCH   1  21
ATOM     21  N   UNL     1       5.694   7.542  17.395  0.00  0.00    +0.000 N 
ATOM     22  H   UNL     1       6.658   7.584  17.702  0.00  0.00    +0.000 HD
ATOM     23  H   UNL     1       5.557   7.951  16.465  0.00  0.00    +0.000 HD
ENDBRANCH   1  21
TORSDOF 2
ENDMDL
