MODEL 1
REMARK VINA RESULT:      -7.6      0.000      0.000
REMARK  Name = 
REMARK  6 active torsions:
REMARK  status: ('A' for Active; 'I' for Inactive)
REMARK    1  A    between atoms: C_2  and  C_5
REMARK    2  A    between atoms: N_3  and  O_4
REMARK    3  A    between atoms: C_5  and  C_13
REMARK    4  A    between atoms: C_6  and  C_7
REMARK    5  A    between atoms: N_15  and  C_16
REMARK    6  A    between atoms: C_16  and  C_17
REMARK                            x       y       z     vdW  Elec       q    Type
REMARK                         _______ _______ _______ _____ _____    ______ ____
ROOT
ATOM      1  C   UNL     1       0.644  10.143  19.359  0.00  0.00    +0.000 C 
ATOM      2  C   UNL     1       0.898  10.483  20.644  0.00  0.00    +0.000 C 
ENDROOT
BRANCH   2   3
ATOM      3  C   UNL     1       0.067  11.322  21.523  0.00  0.00    +0.000 A 
ATOM      4  C   UNL     1       0.197  12.716  21.490  0.00  0.00    +0.000 A 
ATOM      5  C   UNL     1      -0.608  13.520  22.302  0.00  0.00    +0.000 A 
ATOM      6  C   UNL     1      -1.545  12.939  23.149  0.00  0.00    +0.000 A 
ATOM      7  C   UNL     1      -1.675  11.550  23.198  0.00  0.00    +0.000 A 
ATOM      8  C   UNL     1      -0.870  10.744  22.386  0.00  0.00    +0.000 A 
ENDBRANCH   2   3
BRANCH   1  10
ATOM      9  O   UNL     1      -1.677  10.231  18.660  0.00  0.00    +0.000 OA
ATOM     10  C   UNL     1      -0.548  10.717  18.634  0.00  0.00    +0.000 C 
ATOM     11  N   UNL     1      -0.310  11.869  17.920  0.00  0.00    +0.000 N 
ATOM     12  H   UNL     1       0.460  12.494  18.165  0.00  0.00    +0.000 HD
BRANCH  11  13
ATOM     13  O   UNL     1      -1.451  12.463  17.327  0.00  0.00    +0.000 OA
ATOM     14  H   UNL     1      -2.185  12.018  17.806  0.00  0.00    +0.000 HD
ENDBRANCH  11  13
ENDBRANCH   1  10
BRANCH   1  15
ATOM     15  C   UNL     1       1.569   9.218  18.615  0.00  0.00    +0.000 C 
ATOM     16  O   UNL     1       1.882   9.471  17.451  0.00  0.00    +0.000 OA
ATOM     17  N   UNL     1       1.981   8.064  19.238  0.00  0.00    +0.000 N 
ATOM     18  H   UNL     1       1.611   7.803  20.141  0.00  0.00    +0.000 HD
BRANCH  17  19
ATOM     19  C   UNL     1       2.787   7.070  18.552  0.00  0.00    +0.000 C 
BRANCH  19  20
ATOM     20  C   UNL     1       2.274   5.681  18.838  0.00  0.00    +0.000 A 
ATOM     21  C   UNL     1       1.939   5.303  20.149  0.00  0.00    +0.000 A 
ATOM     22  C   UNL     1       1.532   3.997  20.427  0.00  0.00    +0.000 A 
ATOM     23  C   UNL     1       1.462   3.067  19.397  0.00  0.00    +0.000 A 
ATOM     24  F   UNL     1       1.098   1.806  19.668  0.00  0.00    +0.000 F 
ATOM     25  C   UNL     1       1.771   3.423  18.090  0.00  0.00    +0.000 A 
ATOM     26  C   UNL     1       2.177   4.729  17.809  0.00  0.00    +0.000 A 
ENDBRANCH  19  20
ENDBRANCH  17  19
ENDBRANCH   1  15
TORSDOF 6
ENDMDL
MODEL 2
REMARK VINA RESULT:      -7.6      4.298      8.501
REMARK  Name = 
REMARK  6 active torsions:
REMARK  status: ('A' for Active; 'I' for Inactive)
REMARK    1  A    between atoms: C_2  and  C_5
REMARK    2  A    between atoms: N_3  and  O_4
REMARK    3  A    between atoms: C_5  and  C_13
REMARK    4  A    between atoms: C_6  and  C_7
REMARK    5  A    between atoms: N_15  and  C_16
REMARK    6  A    between atoms: C_16  and  C_17
REMARK                            x       y       z     vdW  Elec       q    Type
REMARK                         _______ _______ _______ _____ _____    ______ ____
ROOT
ATOM      1  C   UNL     1       3.204   5.077  19.249  0.00  0.00    +0.000 C 
ATOM      2  C   UNL     1       4.129   5.836  18.617  0.00  0.00    +0.000 C 
ENDROOT
BRANCH   2   3
ATOM      3  C   UNL     1       5.147   5.381  17.656  0.00  0.00    +0.000 A 
ATOM      4  C   UNL     1       4.860   5.371  16.285  0.00  0.00    +0.000 A 
ATOM      5  C   UNL     1       5.831   4.967  15.363  0.00  0.00    +0.000 A 
ATOM      6  C   UNL     1       7.089   4.571  15.804  0.00  0.00    +0.000 A 
ATOM      7  C   UNL     1       7.381   4.567  17.169  0.00  0.00    +0.000 A 
ATOM      8  C   UNL     1       6.410   4.971  18.092  0.00  0.00    +0.000 A 
ENDBRANCH   2   3
BRANCH   1  10
ATOM      9  O   UNL     1       3.978   2.817  19.666  0.00  0.00    +0.000 OA
ATOM     10  C   UNL     1       3.201   3.578  19.090  0.00  0.00    +0.000 C 
ATOM     11  N   UNL     1       2.241   3.071  18.246  0.00  0.00    +0.000 N 
ATOM     12  H   UNL     1       1.376   3.583  18.060  0.00  0.00    +0.000 HD
BRANCH  11  13
ATOM     13  O   UNL     1       2.173   1.658  18.179  0.00  0.00    +0.000 OA
ATOM     14  H   UNL     1       2.474   1.482  17.260  0.00  0.00    +0.000 HD
ENDBRANCH  11  13
ENDBRANCH   1  10
BRANCH   1  15
ATOM     15  C   UNL     1       2.186   5.711  20.159  0.00  0.00    +0.000 C 
ATOM     16  O   UNL     1       1.289   5.024  20.648  0.00  0.00    +0.000 OA
ATOM     17  N   UNL     1       2.243   7.071  20.357  0.00  0.00    +0.000 N 
ATOM     18  H   UNL     1       2.900   7.642  19.845  0.00  0.00    +0.000 HD
BRANCH  17  19
ATOM     19  C   UNL     1       1.237   7.773  21.134  0.00  0.00    +0.000 C 
BRANCH  19  20
ATOM     20  C   UNL     1       0.807   9.035  20.429  0.00  0.00    +0.000 A 
ATOM     21  C   UNL     1      -0.106   9.913  21.037  0.00  0.00    +0.000 A 
ATOM     22  C   UNL     1      -0.561  11.044  20.357  0.00  0.00    +0.000 A 
ATOM     23  C   UNL     1      -0.105  11.299  19.069  0.00  0.00    +0.000 A 
ATOM     24  F   UNL     1      -0.562  12.369  18.406  0.00  0.00    +0.000 F 
ATOM     25  C   UNL     1       0.812  10.455  18.456  0.00  0.00    +0.000 A 
ATOM     26  C   UNL     1       1.270   9.323  19.134  0.00  0.00    +0.000 A 
ENDBRANCH  19  20
ENDBRANCH  17  19
ENDBRANCH   1  15
TORSDOF 6
ENDMDL
MODEL 3
REMARK VINA RESULT:      -7.6      4.278      8.489
REMARK  Name = 
REMARK  6 active torsions:
REMARK  status: ('A' for Active; 'I' for Inactive)
REMARK    1  A    between atoms: C_2  and  C_5
REMARK    2  A    between atoms: N_3  and  O_4
REMARK    3  A    between atoms: C_5  and  C_13
REMARK    4  A    between atoms: C_6  and  C_7
REMARK    5  A    between atoms: N_15  and  C_16
REMARK    6  A    between atoms: C_16  and  C_17
REMARK                            x       y       z     vdW  Elec       q    Type
REMARK                         _______ _______ _______ _____ _____    ______ ____
ROOT
ATOM      1  C   UNL     1       3.207   5.124  19.208  0.00  0.00    +0.000 C 
ATOM      2  C   UNL     1       4.141   5.888  18.596  0.00  0.00    +0.000 C 
ENDROOT
BRANCH   2   3
ATOM      3  C   UNL     1       5.159   5.445  17.629  0.00  0.00    +0.000 A 
ATOM      4  C   UNL     1       6.417   5.024  18.079  0.00  0.00    +0.000 A 
ATOM      5  C   UNL     1       7.379   4.575  17.169  0.00  0.00    +0.000 A 
ATOM      6  C   UNL     1       7.091   4.545  15.809  0.00  0.00    +0.000 A 
ATOM      7  C   UNL     1       5.845   4.973  15.349  0.00  0.00    +0.000 A 
ATOM      8  C   UNL     1       4.881   5.421  16.259  0.00  0.00    +0.000 A 
ENDBRANCH   2   3
BRANCH   1  10
ATOM      9  O   UNL     1       3.960   2.849  19.575  0.00  0.00    +0.000 OA
ATOM     10  C   UNL     1       3.191   3.628  19.015  0.00  0.00    +0.000 C 
ATOM     11  N   UNL     1       2.228   3.149  18.159  0.00  0.00    +0.000 N 
ATOM     12  H   UNL     1       1.368   3.672  17.983  0.00  0.00    +0.000 HD
BRANCH  11  13
ATOM     13  O   UNL     1       2.148   1.738  18.061  0.00  0.00    +0.000 OA
ATOM     14  H   UNL     1       3.025   1.510  17.682  0.00  0.00    +0.000 HD
ENDBRANCH  11  13
ENDBRANCH   1  10
BRANCH   1  15
ATOM     15  C   UNL     1       2.191   5.747  20.128  0.00  0.00    +0.000 C 
ATOM     16  O   UNL     1       1.289   5.056  20.602  0.00  0.00    +0.000 OA
ATOM     17  N   UNL     1       2.256   7.102  20.352  0.00  0.00    +0.000 N 
ATOM     18  H   UNL     1       2.919   7.678  19.853  0.00  0.00    +0.000 HD
BRANCH  17  19
ATOM     19  C   UNL     1       1.254   7.796  21.141  0.00  0.00    +0.000 C 
BRANCH  19  20
ATOM     20  C   UNL     1       0.789   9.042  20.430  0.00  0.00    +0.000 A 
ATOM     21  C   UNL     1      -0.177   9.877  21.018  0.00  0.00    +0.000 A 
ATOM     22  C   UNL     1      -0.661  10.992  20.330  0.00  0.00    +0.000 A 
ATOM     23  C   UNL     1      -0.185  11.272  19.056  0.00  0.00    +0.000 A 
ATOM     24  F   UNL     1      -0.670  12.325  18.386  0.00  0.00    +0.000 F 
ATOM     25  C   UNL     1       0.783  10.471  18.463  0.00  0.00    +0.000 A 
ATOM     26  C   UNL     1       1.271   9.356  19.148  0.00  0.00    +0.000 A 
ENDBRANCH  19  20
ENDBRANCH  17  19
ENDBRANCH   1  15
TORSDOF 6
ENDMDL
MODEL 4
REMARK VINA RESULT:      -7.5      6.155      8.561
REMARK  Name = 
REMARK  6 active torsions:
REMARK  status: ('A' for Active; 'I' for Inactive)
REMARK    1  A    between atoms: C_2  and  C_5
REMARK    2  A    between atoms: N_3  and  O_4
REMARK    3  A    between atoms: C_5  and  C_13
REMARK    4  A    between atoms: C_6  and  C_7
REMARK    5  A    between atoms: N_15  and  C_16
REMARK    6  A    between atoms: C_16  and  C_17
REMARK                            x       y       z     vdW  Elec       q    Type
REMARK                         _______ _______ _______ _____ _____    ______ ____
ROOT
ATOM      1  C   UNL     1       5.541   5.278  17.324  0.00  0.00    +0.000 C 
ATOM      2  C   UNL     1       4.197   5.377  17.207  0.00  0.00    +0.000 C 
ENDROOT
BRANCH   2   3
ATOM      3  C   UNL     1       3.200   5.278  18.286  0.00  0.00    +0.000 A 
ATOM      4  C   UNL     1       2.486   4.088  18.473  0.00  0.00    +0.000 A 
ATOM      5  C   UNL     1       1.558   3.977  19.513  0.00  0.00    +0.000 A 
ATOM      6  C   UNL     1       1.338   5.051  20.369  0.00  0.00    +0.000 A 
ATOM      7  C   UNL     1       2.036   6.246  20.184  0.00  0.00    +0.000 A 
ATOM      8  C   UNL     1       2.966   6.357  19.144  0.00  0.00    +0.000 A 
ENDBRANCH   2   3
BRANCH   1  10
ATOM      9  O   UNL     1       5.910   3.922  19.300  0.00  0.00    +0.000 OA
ATOM     10  C   UNL     1       6.173   4.932  18.649  0.00  0.00    +0.000 C 
ATOM     11  N   UNL     1       7.110   5.826  19.112  0.00  0.00    +0.000 N 
ATOM     12  H   UNL     1       7.622   6.436  18.472  0.00  0.00    +0.000 HD
BRANCH  11  13
ATOM     13  O   UNL     1       7.777   5.446  20.302  0.00  0.00    +0.000 OA
ATOM     14  H   UNL     1       7.028   5.183  20.881  0.00  0.00    +0.000 HD
ENDBRANCH  11  13
ENDBRANCH   1  10
BRANCH   1  15
ATOM     15  C   UNL     1       6.430   5.467  16.124  0.00  0.00    +0.000 C 
ATOM     16  O   UNL     1       7.374   6.255  16.179  0.00  0.00    +0.000 OA
ATOM     17  N   UNL     1       6.109   4.805  14.962  0.00  0.00    +0.000 N 
ATOM     18  H   UNL     1       5.258   4.267  14.890  0.00  0.00    +0.000 HD
BRANCH  17  19
ATOM     19  C   UNL     1       6.853   5.015  13.732  0.00  0.00    +0.000 C 
BRANCH  19  20
ATOM     20  C   UNL     1       6.596   3.892  12.759  0.00  0.00    +0.000 A 
ATOM     21  C   UNL     1       5.292   3.412  12.555  0.00  0.00    +0.000 A 
ATOM     22  C   UNL     1       5.061   2.325  11.710  0.00  0.00    +0.000 A 
ATOM     23  C   UNL     1       6.133   1.715  11.069  0.00  0.00    +0.000 A 
ATOM     24  F   UNL     1       5.915   0.655  10.280  0.00  0.00    +0.000 F 
ATOM     25  C   UNL     1       7.429   2.185  11.241  0.00  0.00    +0.000 A 
ATOM     26  C   UNL     1       7.663   3.273  12.085  0.00  0.00    +0.000 A 
ENDBRANCH  19  20
ENDBRANCH  17  19
ENDBRANCH   1  15
TORSDOF 6
ENDMDL
MODEL 5
REMARK VINA RESULT:      -7.5      4.304      8.562
REMARK  Name = 
REMARK  6 active torsions:
REMARK  status: ('A' for Active; 'I' for Inactive)
REMARK    1  A    between atoms: C_2  and  C_5
REMARK    2  A    between atoms: N_3  and  O_4
REMARK    3  A    between atoms: C_5  and  C_13
REMARK    4  A    between atoms: C_6  and  C_7
REMARK    5  A    between atoms: N_15  and  C_16
REMARK    6  A    between atoms: C_16  and  C_17
REMARK                            x       y       z     vdW  Elec       q    Type
REMARK                         _______ _______ _______ _____ _____    ______ ____
ROOT
ATOM      1  C   UNL     1       3.208   5.098  19.239  0.00  0.00    +0.000 C 
ATOM      2  C   UNL     1       4.132   5.848  18.595  0.00  0.00    +0.000 C 
ENDROOT
BRANCH   2   3
ATOM      3  C   UNL     1       5.146   5.381  17.635  0.00  0.00    +0.000 A 
ATOM      4  C   UNL     1       4.850   5.345  16.266  0.00  0.00    +0.000 A 
ATOM      5  C   UNL     1       5.817   4.929  15.346  0.00  0.00    +0.000 A 
ATOM      6  C   UNL     1       7.080   4.548  15.785  0.00  0.00    +0.000 A 
ATOM      7  C   UNL     1       7.381   4.569  17.147  0.00  0.00    +0.000 A 
ATOM      8  C   UNL     1       6.415   4.986  18.070  0.00  0.00    +0.000 A 
ENDBRANCH   2   3
BRANCH   1  10
ATOM      9  O   UNL     1       3.971   2.840  19.689  0.00  0.00    +0.000 OA
ATOM     10  C   UNL     1       3.204   3.596  19.096  0.00  0.00    +0.000 C 
ATOM     11  N   UNL     1       2.252   3.083  18.247  0.00  0.00    +0.000 N 
ATOM     12  H   UNL     1       1.390   3.595  18.045  0.00  0.00    +0.000 HD
BRANCH  11  13
ATOM     13  O   UNL     1       2.181   1.669  18.195  0.00  0.00    +0.000 OA
ATOM     14  H   UNL     1       2.292   1.424  19.140  0.00  0.00    +0.000 HD
ENDBRANCH  11  13
ENDBRANCH   1  10
BRANCH   1  15
ATOM     15  C   UNL     1       2.195   5.743  20.145  0.00  0.00    +0.000 C 
ATOM     16  O   UNL     1       1.286   5.067  20.627  0.00  0.00    +0.000 OA
ATOM     17  N   UNL     1       2.270   7.101  20.348  0.00  0.00    +0.000 N 
ATOM     18  H   UNL     1       2.939   7.664  19.843  0.00  0.00    +0.000 HD
BRANCH  17  19
ATOM     19  C   UNL     1       1.270   7.815  21.123  0.00  0.00    +0.000 C 
BRANCH  19  20
ATOM     20  C   UNL     1       0.792   9.035  20.376  0.00  0.00    +0.000 A 
ATOM     21  C   UNL     1       1.285   9.319  19.091  0.00  0.00    +0.000 A 
ATOM     22  C   UNL     1       0.899  10.485  18.427  0.00  0.00    +0.000 A 
ATOM     23  C   UNL     1       0.023  11.368  19.046  0.00  0.00    +0.000 A 
ATOM     24  F   UNL     1      -0.326  12.500  18.421  0.00  0.00    +0.000 F 
ATOM     25  C   UNL     1      -0.491  11.098  20.308  0.00  0.00    +0.000 A 
ATOM     26  C   UNL     1      -0.108   9.932  20.974  0.00  0.00    +0.000 A 
ENDBRANCH  19  20
ENDBRANCH  17  19
ENDBRANCH   1  15
TORSDOF 6
ENDMDL
MODEL 6
REMARK VINA RESULT:      -7.5      4.306      8.562
REMARK  Name = 
REMARK  6 active torsions:
REMARK  status: ('A' for Active; 'I' for Inactive)
REMARK    1  A    between atoms: C_2  and  C_5
REMARK    2  A    between atoms: N_3  and  O_4
REMARK    3  A    between atoms: C_5  and  C_13
REMARK    4  A    between atoms: C_6  and  C_7
REMARK    5  A    between atoms: N_15  and  C_16
REMARK    6  A    between atoms: C_16  and  C_17
REMARK                            x       y       z     vdW  Elec       q    Type
REMARK                         _______ _______ _______ _____ _____    ______ ____
ROOT
ATOM      1  C   UNL     1       3.221   5.098  19.245  0.00  0.00    +0.000 C 
ATOM      2  C   UNL     1       4.146   5.866  18.624  0.00  0.00    +0.000 C 
ENDROOT
BRANCH   2   3
ATOM      3  C   UNL     1       5.171   5.425  17.663  0.00  0.00    +0.000 A 
ATOM      4  C   UNL     1       6.426   5.004  18.122  0.00  0.00    +0.000 A 
ATOM      5  C   UNL     1       7.394   4.557  17.219  0.00  0.00    +0.000 A 
ATOM      6  C   UNL     1       7.116   4.528  15.856  0.00  0.00    +0.000 A 
ATOM      7  C   UNL     1       5.873   4.955  15.388  0.00  0.00    +0.000 A 
ATOM      8  C   UNL     1       4.903   5.403  16.292  0.00  0.00    +0.000 A 
ENDBRANCH   2   3
BRANCH   1  10
ATOM      9  O   UNL     1       3.996   2.837  19.654  0.00  0.00    +0.000 OA
ATOM     10  C   UNL     1       3.227   3.600  19.071  0.00  0.00    +0.000 C 
ATOM     11  N   UNL     1       2.283   3.098  18.207  0.00  0.00    +0.000 N 
ATOM     12  H   UNL     1       1.419   3.609  18.011  0.00  0.00    +0.000 HD
BRANCH  11  13
ATOM     13  O   UNL     1       2.220   1.685  18.126  0.00  0.00    +0.000 OA
ATOM     14  H   UNL     1       1.622   1.464  18.874  0.00  0.00    +0.000 HD
ENDBRANCH  11  13
ENDBRANCH   1  10
BRANCH   1  15
ATOM     15  C   UNL     1       2.197   5.719  20.156  0.00  0.00    +0.000 C 
ATOM     16  O   UNL     1       1.298   5.024  20.630  0.00  0.00    +0.000 OA
ATOM     17  N   UNL     1       2.250   7.076  20.371  0.00  0.00    +0.000 N 
ATOM     18  H   UNL     1       2.910   7.654  19.871  0.00  0.00    +0.000 HD
BRANCH  17  19
ATOM     19  C   UNL     1       1.238   7.767  21.151  0.00  0.00    +0.000 C 
BRANCH  19  20
ATOM     20  C   UNL     1       0.754   8.996  20.421  0.00  0.00    +0.000 A 
ATOM     21  C   UNL     1       1.274   9.322  19.158  0.00  0.00    +0.000 A 
ATOM     22  C   UNL     1       0.881  10.497  18.513  0.00  0.00    +0.000 A 
ATOM     23  C   UNL     1      -0.030  11.346  19.130  0.00  0.00    +0.000 A 
ATOM     24  F   UNL     1      -0.386  12.486  18.524  0.00  0.00    +0.000 F 
ATOM     25  C   UNL     1      -0.571  11.033  20.371  0.00  0.00    +0.000 A 
ATOM     26  C   UNL     1      -0.180   9.858  21.018  0.00  0.00    +0.000 A 
ENDBRANCH  19  20
ENDBRANCH  17  19
ENDBRANCH   1  15
TORSDOF 6
ENDMDL
MODEL 7
REMARK VINA RESULT:      -7.5      6.873      9.067
REMARK  Name = 
REMARK  6 active torsions:
REMARK  status: ('A' for Active; 'I' for Inactive)
REMARK    1  A    between atoms: C_2  and  C_5
REMARK    2  A    between atoms: N_3  and  O_4
REMARK    3  A    between atoms: C_5  and  C_13
REMARK    4  A    between atoms: C_6  and  C_7
REMARK    5  A    between atoms: N_15  and  C_16
REMARK    6  A    between atoms: C_16  and  C_17
REMARK                            x       y       z     vdW  Elec       q    Type
REMARK                         _______ _______ _______ _____ _____    ______ ____
ROOT
ATOM      1  C   UNL     1       5.620   4.404  17.399  0.00  0.00    +0.000 C 
ATOM      2  C   UNL     1       4.479   3.677  17.358  0.00  0.00    +0.000 C 
ENDROOT
BRANCH   2   3
ATOM      3  C   UNL     1       3.481   3.525  18.429  0.00  0.00    +0.000 A 
ATOM      4  C   UNL     1       3.741   2.674  19.512  0.00  0.00    +0.000 A 
ATOM      5  C   UNL     1       2.811   2.546  20.548  0.00  0.00    +0.000 A 
ATOM      6  C   UNL     1       1.620   3.263  20.509  0.00  0.00    +0.000 A 
ATOM      7  C   UNL     1       1.346   4.104  19.429  0.00  0.00    +0.000 A 
ATOM      8  C   UNL     1       2.277   4.234  18.392  0.00  0.00    +0.000 A 
ENDBRANCH   2   3
BRANCH   1  10
ATOM      9  O   UNL     1       5.314   5.788  19.366  0.00  0.00    +0.000 OA
ATOM     10  C   UNL     1       6.049   5.086  18.673  0.00  0.00    +0.000 C 
ATOM     11  N   UNL     1       7.353   4.870  19.053  0.00  0.00    +0.000 N 
ATOM     12  H   UNL     1       7.861   4.036  18.751  0.00  0.00    +0.000 HD
BRANCH  11  13
ATOM     13  O   UNL     1       7.723   5.425  20.302  0.00  0.00    +0.000 OA
ATOM     14  H   UNL     1       6.850   5.656  20.690  0.00  0.00    +0.000 HD
ENDBRANCH  11  13
ENDBRANCH   1  10
BRANCH   1  15
ATOM     15  C   UNL     1       6.505   4.508  16.186  0.00  0.00    +0.000 C 
ATOM     16  O   UNL     1       7.723   4.374  16.304  0.00  0.00    +0.000 OA
ATOM     17  N   UNL     1       5.928   4.832  14.981  0.00  0.00    +0.000 N 
ATOM     18  H   UNL     1       4.948   5.070  14.923  0.00  0.00    +0.000 HD
BRANCH  17  19
ATOM     19  C   UNL     1       6.724   5.055  13.787  0.00  0.00    +0.000 C 
BRANCH  19  20
ATOM     20  C   UNL     1       6.528   3.930  12.801  0.00  0.00    +0.000 A 
ATOM     21  C   UNL     1       5.245   3.410  12.563  0.00  0.00    +0.000 A 
ATOM     22  C   UNL     1       5.071   2.321  11.706  0.00  0.00    +0.000 A 
ATOM     23  C   UNL     1       6.177   1.751  11.088  0.00  0.00    +0.000 A 
ATOM     24  F   UNL     1       6.013   0.689  10.288  0.00  0.00    +0.000 F 
ATOM     25  C   UNL     1       7.453   2.261  11.295  0.00  0.00    +0.000 A 
ATOM     26  C   UNL     1       7.630   3.350  12.151  0.00  0.00    +0.000 A 
ENDBRANCH  19  20
ENDBRANCH  17  19
ENDBRANCH   1  15
TORSDOF 6
ENDMDL
MODEL 8
REMARK VINA RESULT:      -7.5      0.210      1.029
REMARK  Name = 
REMARK  6 active torsions:
REMARK  status: ('A' for Active; 'I' for Inactive)
REMARK    1  A    between atoms: C_2  and  C_5
REMARK    2  A    between atoms: N_3  and  O_4
REMARK    3  A    between atoms: C_5  and  C_13
REMARK    4  A    between atoms: C_6  and  C_7
REMARK    5  A    between atoms: N_15  and  C_16
REMARK    6  A    between atoms: C_16  and  C_17
REMARK                            x       y       z     vdW  Elec       q    Type
REMARK                         _______ _______ _______ _____ _____    ______ ____
ROOT
ATOM      1  C   UNL     1       0.673  10.309  19.323  0.00  0.00    +0.000 C 
ATOM      2  C   UNL     1       0.916  10.599  20.622  0.00  0.00    +0.000 C 
ENDROOT
BRANCH   2   3
ATOM      3  C   UNL     1       0.094  11.431  21.517  0.00  0.00    +0.000 A 
ATOM      4  C   UNL     1       0.237  12.825  21.503  0.00  0.00    +0.000 A 
ATOM      5  C   UNL     1      -0.559  13.624  22.329  0.00  0.00    +0.000 A 
ATOM      6  C   UNL     1      -1.499  13.038  23.171  0.00  0.00    +0.000 A 
ATOM      7  C   UNL     1      -1.640  11.650  23.201  0.00  0.00    +0.000 A 
ATOM      8  C   UNL     1      -0.844  10.849  22.374  0.00  0.00    +0.000 A 
ENDBRANCH   2   3
BRANCH   1  10
ATOM      9  O   UNL     1      -1.631  10.484  18.587  0.00  0.00    +0.000 OA
ATOM     10  C   UNL     1      -0.489  10.941  18.599  0.00  0.00    +0.000 C 
ATOM     11  N   UNL     1      -0.210  12.113  17.936  0.00  0.00    +0.000 N 
ATOM     12  H   UNL     1       0.571  12.708  18.218  0.00  0.00    +0.000 HD
BRANCH  11  13
ATOM     13  O   UNL     1      -1.324  12.759  17.346  0.00  0.00    +0.000 OA
ATOM     14  H   UNL     1      -1.014  12.898  16.423  0.00  0.00    +0.000 HD
ENDBRANCH  11  13
ENDBRANCH   1  10
BRANCH   1  15
ATOM     15  C   UNL     1       1.584   9.383  18.562  0.00  0.00    +0.000 C 
ATOM     16  O   UNL     1       1.951   9.682  17.426  0.00  0.00    +0.000 OA
ATOM     17  N   UNL     1       1.921   8.180  19.136  0.00  0.00    +0.000 N 
ATOM     18  H   UNL     1       1.507   7.889  20.010  0.00  0.00    +0.000 HD
BRANCH  17  19
ATOM     19  C   UNL     1       2.708   7.187  18.425  0.00  0.00    +0.000 C 
BRANCH  19  20
ATOM     20  C   UNL     1       2.318   5.795  18.854  0.00  0.00    +0.000 A 
ATOM     21  C   UNL     1       2.211   4.764  17.905  0.00  0.00    +0.000 A 
ATOM     22  C   UNL     1       1.781   3.492  18.288  0.00  0.00    +0.000 A 
ATOM     23  C   UNL     1       1.454   3.250  19.617  0.00  0.00    +0.000 A 
ATOM     24  F   UNL     1       1.015   2.038  19.979  0.00  0.00    +0.000 F 
ATOM     25  C   UNL     1       1.570   4.250  20.575  0.00  0.00    +0.000 A 
ATOM     26  C   UNL     1       2.002   5.522  20.195  0.00  0.00    +0.000 A 
ENDBRANCH  19  20
ENDBRANCH  17  19
ENDBRANCH   1  15
TORSDOF 6
ENDMDL
MODEL 9
REMARK VINA RESULT:      -7.5      4.492      8.782
REMARK  Name = 
REMARK  6 active torsions:
REMARK  status: ('A' for Active; 'I' for Inactive)
REMARK    1  A    between atoms: C_2  and  C_5
REMARK    2  A    between atoms: N_3  and  O_4
REMARK    3  A    between atoms: C_5  and  C_13
REMARK    4  A    between atoms: C_6  and  C_7
REMARK    5  A    between atoms: N_15  and  C_16
REMARK    6  A    between atoms: C_16  and  C_17
REMARK                            x       y       z     vdW  Elec       q    Type
REMARK                         _______ _______ _______ _____ _____    ______ ____
ROOT
ATOM      1  C   UNL     1       3.703   4.901  19.091  0.00  0.00    +0.000 C 
ATOM      2  C   UNL     1       4.403   5.717  18.270  0.00  0.00    +0.000 C 
ENDROOT
BRANCH   2   3
ATOM      3  C   UNL     1       5.309   5.319  17.180  0.00  0.00    +0.000 A 
ATOM      4  C   UNL     1       6.648   5.016  17.458  0.00  0.00    +0.000 A 
ATOM      5  C   UNL     1       7.508   4.610  16.433  0.00  0.00    +0.000 A 
ATOM      6  C   UNL     1       7.037   4.505  15.129  0.00  0.00    +0.000 A 
ATOM      7  C   UNL     1       5.708   4.815  14.839  0.00  0.00    +0.000 A 
ATOM      8  C   UNL     1       4.846   5.221  15.864  0.00  0.00    +0.000 A 
ENDBRANCH   2   3
BRANCH   1  10
ATOM      9  O   UNL     1       3.248   2.663  18.275  0.00  0.00    +0.000 OA
ATOM     10  C   UNL     1       3.883   3.405  19.023  0.00  0.00    +0.000 C 
ATOM     11  N   UNL     1       4.841   2.883  19.859  0.00  0.00    +0.000 N 
ATOM     12  H   UNL     1       5.621   3.453  20.193  0.00  0.00    +0.000 HD
BRANCH  11  13
ATOM     13  O   UNL     1       5.082   1.494  19.718  0.00  0.00    +0.000 OA
ATOM     14  H   UNL     1       4.644   1.128  20.519  0.00  0.00    +0.000 HD
ENDBRANCH  11  13
ENDBRANCH   1  10
BRANCH   1  15
ATOM     15  C   UNL     1       2.765   5.472  20.120  0.00  0.00    +0.000 C 
ATOM     16  O   UNL     1       2.237   4.728  20.947  0.00  0.00    +0.000 OA
ATOM     17  N   UNL     1       2.459   6.811  20.055  0.00  0.00    +0.000 N 
ATOM     18  H   UNL     1       2.794   7.382  19.292  0.00  0.00    +0.000 HD
BRANCH  17  19
ATOM     19  C   UNL     1       1.483   7.417  20.944  0.00  0.00    +0.000 C 
BRANCH  19  20
ATOM     20  C   UNL     1       1.018   8.743  20.395  0.00  0.00    +0.000 A 
ATOM     21  C   UNL     1       0.181   9.573  21.159  0.00  0.00    +0.000 A 
ATOM     22  C   UNL     1      -0.309  10.767  20.625  0.00  0.00    +0.000 A 
ATOM     23  C   UNL     1       0.035  11.131  19.329  0.00  0.00    +0.000 A 
ATOM     24  F   UNL     1      -0.458  12.262  18.808  0.00  0.00    +0.000 F 
ATOM     25  C   UNL     1       0.877  10.334  18.563  0.00  0.00    +0.000 A 
ATOM     26  C   UNL     1       1.369   9.140  19.094  0.00  0.00    +0.000 A 
ENDBRANCH  19  20
ENDBRANCH  17  19
ENDBRANCH   1  15
TORSDOF 6
ENDMDL
