MODEL 1
REMARK VINA RESULT:      -9.9      0.000      0.000
REMARK  Name = 
REMARK  5 active torsions:
REMARK  status: ('A' for Active; 'I' for Inactive)
REMARK    1  A    between atoms: C_1  and  C_2
REMARK    2  A    between atoms: C_5  and  C_6
REMARK    3  A    between atoms: C_15  and  N_16
REMARK    4  A    between atoms: N_16  and  C_17
REMARK    5  A    between atoms: C_24  and  N_25
REMARK                            x       y       z     vdW  Elec       q    Type
REMARK                         _______ _______ _______ _____ _____    ______ ____
ROOT
ATOM      1  N   UNL     1       2.689   6.380  20.218  0.00  0.00    +0.000 N 
ATOM      2  H   UNL     1       3.328   6.386  21.001  0.00  0.00    +0.000 HD
ENDROOT
BRANCH   1   3
ATOM      3  C   UNL     1       2.185   5.070  20.002  0.00  0.00    +0.000 A 
ATOM      4  N   UNL     1       1.047   4.692  20.610  0.00  0.00    +0.000 NA
ATOM      5  C   UNL     1       0.649   3.432  20.407  0.00  0.00    +0.000 A 
ATOM      6  N   UNL     1       1.278   2.512  19.666  0.00  0.00    +0.000 NA
ATOM      7  C   UNL     1       2.400   2.912  19.045  0.00  0.00    +0.000 A 
ATOM      8  C   UNL     1       3.140   2.062  18.240  0.00  0.00    +0.000 A 
ATOM      9  N   UNL     1       4.278   2.387  17.561  0.00  0.00    +0.000 NA
ATOM     10  C   UNL     1       4.728   3.651  17.638  0.00  0.00    +0.000 A 
ATOM     11  C   UNL     1       4.064   4.566  18.444  0.00  0.00    +0.000 A 
ATOM     12  C   UNL     1       2.904   4.201  19.165  0.00  0.00    +0.000 A 
BRANCH  10  13
ATOM     13  N   UNL     1       5.851   4.012  16.935  0.00  0.00    +0.000 N 
ATOM     14  C   UNL     1       6.957   4.775  17.523  0.00  0.00    +0.000 C 
ATOM     15  C   UNL     1       7.231   6.044  16.700  0.00  0.00    +0.000 C 
ATOM     16  O   UNL     1       7.425   5.746  15.310  0.00  0.00    +0.000 OA
ATOM     17  C   UNL     1       6.243   5.127  14.771  0.00  0.00    +0.000 C 
ATOM     18  C   UNL     1       5.924   3.810  15.487  0.00  0.00    +0.000 C 
ENDBRANCH  10  13
ENDBRANCH   1   3
BRANCH   1  25
ATOM     19  C   UNL     1       3.020   7.712  17.583  0.00  0.00    +0.000 C 
ATOM     20  C   UNL     1       2.147   8.231  18.693  0.00  0.00    +0.000 A 
ATOM     21  C   UNL     1       1.408   9.396  18.439  0.00  0.00    +0.000 A 
ATOM     22  C   UNL     1       0.557   9.923  19.402  0.00  0.00    +0.000 A 
ATOM     23  C   UNL     1       0.527   9.385  20.686  0.00  0.00    +0.000 A 
ATOM     24  C   UNL     1       1.261   8.220  20.955  0.00  0.00    +0.000 A 
ATOM     25  C   UNL     1       2.062   7.617  19.964  0.00  0.00    +0.000 A 
BRANCH  23  26
ATOM     26  C   UNL     1      -0.333   9.958  21.761  0.00  0.00    +0.000 C 
ATOM     27  O   UNL     1      -0.729   9.196  22.635  0.00  0.00    +0.000 OA
ATOM     28  N   UNL     1      -0.662  11.314  21.752  0.00  0.00    +0.000 N 
ATOM     29  C   UNL     1      -0.197  12.340  20.811  0.00  0.00    +0.000 C 
ATOM     30  C   UNL     1       0.125  13.661  21.509  0.00  0.00    +0.000 C 
ATOM     31  O   UNL     1      -0.967  14.106  22.320  0.00  0.00    +0.000 OA
ATOM     32  C   UNL     1      -1.273  13.124  23.323  0.00  0.00    +0.000 C 
ATOM     33  C   UNL     1      -1.689  11.795  22.685  0.00  0.00    +0.000 C 
ENDBRANCH  23  26
ENDBRANCH   1  25
TORSDOF 4
ENDMDL
MODEL 2
REMARK VINA RESULT:      -9.4      1.022      1.323
REMARK  Name = 
REMARK  5 active torsions:
REMARK  status: ('A' for Active; 'I' for Inactive)
REMARK    1  A    between atoms: C_1  and  C_2
REMARK    2  A    between atoms: C_5  and  C_6
REMARK    3  A    between atoms: C_15  and  N_16
REMARK    4  A    between atoms: N_16  and  C_17
REMARK    5  A    between atoms: C_24  and  N_25
REMARK                            x       y       z     vdW  Elec       q    Type
REMARK                         _______ _______ _______ _____ _____    ______ ____
ROOT
ATOM      1  N   UNL     1       2.490   6.742  20.377  0.00  0.00    +0.000 N 
ATOM      2  H   UNL     1       3.103   6.677  21.178  0.00  0.00    +0.000 HD
ENDROOT
BRANCH   1   3
ATOM      3  C   UNL     1       2.012   5.456  20.015  0.00  0.00    +0.000 A 
ATOM      4  N   UNL     1       1.032   4.888  20.739  0.00  0.00    +0.000 NA
ATOM      5  C   UNL     1       0.658   3.655  20.379  0.00  0.00    +0.000 A 
ATOM      6  N   UNL     1       1.171   2.932  19.376  0.00  0.00    +0.000 NA
ATOM      7  C   UNL     1       2.132   3.523  18.647  0.00  0.00    +0.000 A 
ATOM      8  C   UNL     1       2.738   2.889  17.575  0.00  0.00    +0.000 A 
ATOM      9  N   UNL     1       3.707   3.418  16.773  0.00  0.00    +0.000 NA
ATOM     10  C   UNL     1       4.107   4.680  17.002  0.00  0.00    +0.000 A 
ATOM     11  C   UNL     1       3.573   5.383  18.073  0.00  0.00    +0.000 A 
ATOM     12  C   UNL     1       2.593   4.807  18.913  0.00  0.00    +0.000 A 
BRANCH  10  13
ATOM     13  N   UNL     1       5.055   5.247  16.186  0.00  0.00    +0.000 N 
ATOM     14  C   UNL     1       5.553   4.605  14.965  0.00  0.00    +0.000 C 
ATOM     15  C   UNL     1       7.085   4.481  15.011  0.00  0.00    +0.000 C 
ATOM     16  O   UNL     1       7.713   5.742  15.284  0.00  0.00    +0.000 OA
ATOM     17  C   UNL     1       7.280   6.239  16.563  0.00  0.00    +0.000 C 
ATOM     18  C   UNL     1       5.764   6.461  16.595  0.00  0.00    +0.000 C 
ENDBRANCH  10  13
ENDBRANCH   1   3
BRANCH   1  25
ATOM     19  C   UNL     1       2.498   8.118  17.743  0.00  0.00    +0.000 C 
ATOM     20  C   UNL     1       1.783   8.627  18.965  0.00  0.00    +0.000 A 
ATOM     21  C   UNL     1       1.036   9.806  18.827  0.00  0.00    +0.000 A 
ATOM     22  C   UNL     1       0.325  10.326  19.901  0.00  0.00    +0.000 A 
ATOM     23  C   UNL     1       0.452   9.766  21.169  0.00  0.00    +0.000 A 
ATOM     24  C   UNL     1       1.197   8.587  21.322  0.00  0.00    +0.000 A 
ATOM     25  C   UNL     1       1.854   7.992  20.226  0.00  0.00    +0.000 A 
BRANCH  23  26
ATOM     26  C   UNL     1      -0.253  10.331  22.356  0.00  0.00    +0.000 C 
ATOM     27  O   UNL     1       0.070   9.909  23.460  0.00  0.00    +0.000 OA
ATOM     28  N   UNL     1      -1.241  11.303  22.191  0.00  0.00    +0.000 N 
ATOM     29  C   UNL     1      -1.667  11.941  20.940  0.00  0.00    +0.000 C 
ATOM     30  C   UNL     1      -1.922  13.438  21.112  0.00  0.00    +0.000 C 
ATOM     31  O   UNL     1      -2.817  13.695  22.199  0.00  0.00    +0.000 OA
ATOM     32  C   UNL     1      -2.270  13.183  23.425  0.00  0.00    +0.000 C 
ATOM     33  C   UNL     1      -2.069  11.667  23.348  0.00  0.00    +0.000 C 
ENDBRANCH  23  26
ENDBRANCH   1  25
TORSDOF 4
ENDMDL
MODEL 3
REMARK VINA RESULT:      -9.2      1.226      1.368
REMARK  Name = 
REMARK  5 active torsions:
REMARK  status: ('A' for Active; 'I' for Inactive)
REMARK    1  A    between atoms: C_1  and  C_2
REMARK    2  A    between atoms: C_5  and  C_6
REMARK    3  A    between atoms: C_15  and  N_16
REMARK    4  A    between atoms: N_16  and  C_17
REMARK    5  A    between atoms: C_24  and  N_25
REMARK                            x       y       z     vdW  Elec       q    Type
REMARK                         _______ _______ _______ _____ _____    ______ ____
ROOT
ATOM      1  N   UNL     1       2.714   6.370  20.189  0.00  0.00    +0.000 N 
ATOM      2  H   UNL     1       3.122   6.396  21.114  0.00  0.00    +0.000 HD
ENDROOT
BRANCH   1   3
ATOM      3  C   UNL     1       2.160   5.089  19.930  0.00  0.00    +0.000 A 
ATOM      4  N   UNL     1       0.996   4.745  20.507  0.00  0.00    +0.000 NA
ATOM      5  C   UNL     1       0.548   3.508  20.263  0.00  0.00    +0.000 A 
ATOM      6  N   UNL     1       1.152   2.581  19.509  0.00  0.00    +0.000 NA
ATOM      7  C   UNL     1       2.301   2.949  18.919  0.00  0.00    +0.000 A 
ATOM      8  C   UNL     1       3.020   2.090  18.104  0.00  0.00    +0.000 A 
ATOM      9  N   UNL     1       4.183   2.383  17.455  0.00  0.00    +0.000 NA
ATOM     10  C   UNL     1       4.684   3.625  17.574  0.00  0.00    +0.000 A 
ATOM     11  C   UNL     1       4.045   4.546  18.392  0.00  0.00    +0.000 A 
ATOM     12  C   UNL     1       2.857   4.212  19.083  0.00  0.00    +0.000 A 
BRANCH  10  13
ATOM     13  N   UNL     1       5.835   3.956  16.901  0.00  0.00    +0.000 N 
ATOM     14  C   UNL     1       6.923   4.732  17.503  0.00  0.00    +0.000 C 
ATOM     15  C   UNL     1       7.235   5.972  16.648  0.00  0.00    +0.000 C 
ATOM     16  O   UNL     1       7.478   5.625  15.277  0.00  0.00    +0.000 OA
ATOM     17  C   UNL     1       6.313   4.994  14.716  0.00  0.00    +0.000 C 
ATOM     18  C   UNL     1       5.959   3.704  15.464  0.00  0.00    +0.000 C 
ENDBRANCH  10  13
ENDBRANCH   1   3
BRANCH   1  25
ATOM     19  C   UNL     1       3.375   7.178  17.407  0.00  0.00    +0.000 C 
ATOM     20  C   UNL     1       2.541   7.997  18.354  0.00  0.00    +0.000 A 
ATOM     21  C   UNL     1       2.005   9.198  17.865  0.00  0.00    +0.000 A 
ATOM     22  C   UNL     1       1.201   9.997  18.667  0.00  0.00    +0.000 A 
ATOM     23  C   UNL     1       1.026   9.693  20.014  0.00  0.00    +0.000 A 
ATOM     24  C   UNL     1       1.556   8.496  20.518  0.00  0.00    +0.000 A 
ATOM     25  C   UNL     1       2.300   7.625  19.696  0.00  0.00    +0.000 A 
BRANCH  23  26
ATOM     26  C   UNL     1       0.214  10.558  20.919  0.00  0.00    +0.000 C 
ATOM     27  O   UNL     1       0.696  10.845  22.009  0.00  0.00    +0.000 OA
ATOM     28  N   UNL     1      -1.044  11.011  20.519  0.00  0.00    +0.000 N 
ATOM     29  C   UNL     1      -1.698  10.800  19.222  0.00  0.00    +0.000 C 
ATOM     30  C   UNL     1      -2.426  12.052  18.733  0.00  0.00    +0.000 C 
ATOM     31  O   UNL     1      -3.319  12.562  19.729  0.00  0.00    +0.000 OA
ATOM     32  C   UNL     1      -2.591  12.896  20.922  0.00  0.00    +0.000 C 
ATOM     33  C   UNL     1      -1.905  11.662  21.514  0.00  0.00    +0.000 C 
ENDBRANCH  23  26
ENDBRANCH   1  25
TORSDOF 4
ENDMDL
MODEL 4
REMARK VINA RESULT:      -8.7      1.111      1.230
REMARK  Name = 
REMARK  5 active torsions:
REMARK  status: ('A' for Active; 'I' for Inactive)
REMARK    1  A    between atoms: C_1  and  C_2
REMARK    2  A    between atoms: C_5  and  C_6
REMARK    3  A    between atoms: C_15  and  N_16
REMARK    4  A    between atoms: N_16  and  C_17
REMARK    5  A    between atoms: C_24  and  N_25
REMARK                            x       y       z     vdW  Elec       q    Type
REMARK                         _______ _______ _______ _____ _____    ______ ____
ROOT
ATOM      1  N   UNL     1       2.312   6.364  20.738  0.00  0.00    +0.000 N 
ATOM      2  H   UNL     1       2.632   6.212  21.685  0.00  0.00    +0.000 HD
ENDROOT
BRANCH   1   3
ATOM      3  C   UNL     1       1.947   5.131  20.136  0.00  0.00    +0.000 A 
ATOM      4  N   UNL     1       0.766   4.569  20.446  0.00  0.00    +0.000 NA
ATOM      5  C   UNL     1       0.500   3.385  19.885  0.00  0.00    +0.000 A 
ATOM      6  N   UNL     1       1.299   2.704  19.054  0.00  0.00    +0.000 NA
ATOM      7  C   UNL     1       2.464   3.291  18.735  0.00  0.00    +0.000 A 
ATOM      8  C   UNL     1       3.377   2.698  17.877  0.00  0.00    +0.000 A 
ATOM      9  N   UNL     1       4.572   3.227  17.486  0.00  0.00    +0.000 NA
ATOM     10  C   UNL     1       4.907   4.448  17.936  0.00  0.00    +0.000 A 
ATOM     11  C   UNL     1       4.065   5.106  18.822  0.00  0.00    +0.000 A 
ATOM     12  C   UNL     1       2.845   4.528  19.241  0.00  0.00    +0.000 A 
BRANCH  10  13
ATOM     13  N   UNL     1       6.088   5.018  17.529  0.00  0.00    +0.000 N 
ATOM     14  C   UNL     1       7.358   4.832  18.239  0.00  0.00    +0.000 C 
ATOM     15  C   UNL     1       7.969   6.192  18.612  0.00  0.00    +0.000 C 
ATOM     16  O   UNL     1       8.079   7.056  17.472  0.00  0.00    +0.000 OA
ATOM     17  C   UNL     1       6.776   7.305  16.915  0.00  0.00    +0.000 C 
ATOM     18  C   UNL     1       6.109   6.006  16.448  0.00  0.00    +0.000 C 
ENDBRANCH  10  13
ENDBRANCH   1   3
BRANCH   1  25
ATOM     19  C   UNL     1       2.559   7.601  18.048  0.00  0.00    +0.000 C 
ATOM     20  C   UNL     1       1.830   8.226  19.206  0.00  0.00    +0.000 A 
ATOM     21  C   UNL     1       1.187   9.451  18.975  0.00  0.00    +0.000 A 
ATOM     22  C   UNL     1       0.469  10.079  19.985  0.00  0.00    +0.000 A 
ATOM     23  C   UNL     1       0.490   9.574  21.283  0.00  0.00    +0.000 A 
ATOM     24  C   UNL     1       1.128   8.350  21.529  0.00  0.00    +0.000 A 
ATOM     25  C   UNL     1       1.787   7.651  20.497  0.00  0.00    +0.000 A 
BRANCH  23  26
ATOM     26  C   UNL     1      -0.225  10.252  22.403  0.00  0.00    +0.000 C 
ATOM     27  O   UNL     1       0.046   9.895  23.544  0.00  0.00    +0.000 OA
ATOM     28  N   UNL     1      -1.162  11.251  22.139  0.00  0.00    +0.000 N 
ATOM     29  C   UNL     1      -1.522  11.816  20.833  0.00  0.00    +0.000 C 
ATOM     30  C   UNL     1      -1.714  13.331  20.893  0.00  0.00    +0.000 C 
ATOM     31  O   UNL     1      -2.629  13.703  21.930  0.00  0.00    +0.000 OA
ATOM     32  C   UNL     1      -2.141  13.256  23.205  0.00  0.00    +0.000 C 
ATOM     33  C   UNL     1      -2.007  11.731  23.241  0.00  0.00    +0.000 C 
ENDBRANCH  23  26
ENDBRANCH   1  25
TORSDOF 4
ENDMDL
MODEL 5
REMARK VINA RESULT:      -8.6      1.100      1.582
REMARK  Name = 
REMARK  5 active torsions:
REMARK  status: ('A' for Active; 'I' for Inactive)
REMARK    1  A    between atoms: C_1  and  C_2
REMARK    2  A    between atoms: C_5  and  C_6
REMARK    3  A    between atoms: C_15  and  N_16
REMARK    4  A    between atoms: N_16  and  C_17
REMARK    5  A    between atoms: C_24  and  N_25
REMARK                            x       y       z     vdW  Elec       q    Type
REMARK                         _______ _______ _______ _____ _____    ______ ____
ROOT
ATOM      1  N   UNL     1       2.703   6.425  19.994  0.00  0.00    +0.000 N 
ATOM      2  H   UNL     1       3.013   6.574  20.945  0.00  0.00    +0.000 HD
ENDROOT
BRANCH   1   3
ATOM      3  C   UNL     1       2.181   5.114  19.845  0.00  0.00    +0.000 A 
ATOM      4  N   UNL     1       1.039   4.783  20.472  0.00  0.00    +0.000 NA
ATOM      5  C   UNL     1       0.622   3.520  20.334  0.00  0.00    +0.000 A 
ATOM      6  N   UNL     1       1.237   2.554  19.640  0.00  0.00    +0.000 NA
ATOM      7  C   UNL     1       2.363   2.907  18.998  0.00  0.00    +0.000 A 
ATOM      8  C   UNL     1       3.089   2.007  18.236  0.00  0.00    +0.000 A 
ATOM      9  N   UNL     1       4.231   2.281  17.540  0.00  0.00    +0.000 NA
ATOM     10  C   UNL     1       4.699   3.541  17.553  0.00  0.00    +0.000 A 
ATOM     11  C   UNL     1       4.049   4.505  18.312  0.00  0.00    +0.000 A 
ATOM     12  C   UNL     1       2.886   4.193  19.053  0.00  0.00    +0.000 A 
BRANCH  10  13
ATOM     13  N   UNL     1       5.825   3.850  16.831  0.00  0.00    +0.000 N 
ATOM     14  C   UNL     1       6.987   4.535  17.408  0.00  0.00    +0.000 C 
ATOM     15  C   UNL     1       7.316   5.803  16.603  0.00  0.00    +0.000 C 
ATOM     16  O   UNL     1       7.462   5.522  15.204  0.00  0.00    +0.000 OA
ATOM     17  C   UNL     1       6.235   4.983  14.680  0.00  0.00    +0.000 C 
ATOM     18  C   UNL     1       5.855   3.673  15.378  0.00  0.00    +0.000 C 
ENDBRANCH  10  13
ENDBRANCH   1   3
BRANCH   1  25
ATOM     19  C   UNL     1       4.041   7.135  17.438  0.00  0.00    +0.000 C 
ATOM     20  C   UNL     1       2.912   7.918  18.052  0.00  0.00    +0.000 A 
ATOM     21  C   UNL     1       2.437   9.027  17.337  0.00  0.00    +0.000 A 
ATOM     22  C   UNL     1       1.379   9.785  17.823  0.00  0.00    +0.000 A 
ATOM     23  C   UNL     1       0.863   9.543  19.092  0.00  0.00    +0.000 A 
ATOM     24  C   UNL     1       1.328   8.437  19.818  0.00  0.00    +0.000 A 
ATOM     25  C   UNL     1       2.340   7.601  19.305  0.00  0.00    +0.000 A 
BRANCH  23  26
ATOM     26  C   UNL     1      -0.236  10.372  19.668  0.00  0.00    +0.000 C 
ATOM     27  O   UNL     1      -1.091  10.791  18.897  0.00  0.00    +0.000 OA
ATOM     28  N   UNL     1      -0.268  10.647  21.036  0.00  0.00    +0.000 N 
ATOM     29  C   UNL     1       0.647  10.148  22.069  0.00  0.00    +0.000 C 
ATOM     30  C   UNL     1      -0.086   9.769  23.355  0.00  0.00    +0.000 C 
ATOM     31  O   UNL     1      -0.919  10.837  23.819  0.00  0.00    +0.000 OA
ATOM     32  C   UNL     1      -1.896  11.173  22.821  0.00  0.00    +0.000 C 
ATOM     33  C   UNL     1      -1.224  11.647  21.529  0.00  0.00    +0.000 C 
ENDBRANCH  23  26
ENDBRANCH   1  25
TORSDOF 4
ENDMDL
MODEL 6
REMARK VINA RESULT:      -8.5      3.334     10.271
REMARK  Name = 
REMARK  5 active torsions:
REMARK  status: ('A' for Active; 'I' for Inactive)
REMARK    1  A    between atoms: C_1  and  C_2
REMARK    2  A    between atoms: C_5  and  C_6
REMARK    3  A    between atoms: C_15  and  N_16
REMARK    4  A    between atoms: N_16  and  C_17
REMARK    5  A    between atoms: C_24  and  N_25
REMARK                            x       y       z     vdW  Elec       q    Type
REMARK                         _______ _______ _______ _____ _____    ______ ____
ROOT
ATOM      1  N   UNL     1      -0.282  10.825  18.875  0.00  0.00    +0.000 N 
ATOM      2  H   UNL     1       0.243  11.620  18.536  0.00  0.00    +0.000 HD
ENDROOT
BRANCH   1   3
ATOM      3  C   UNL     1      -1.492  10.685  18.147  0.00  0.00    +0.000 A 
ATOM      4  N   UNL     1      -1.510   9.931  17.034  0.00  0.00    +0.000 NA
ATOM      5  C   UNL     1      -2.666   9.877  16.365  0.00  0.00    +0.000 A 
ATOM      6  N   UNL     1      -3.802  10.506  16.692  0.00  0.00    +0.000 NA
ATOM      7  C   UNL     1      -3.775  11.235  17.820  0.00  0.00    +0.000 A 
ATOM      8  C   UNL     1      -4.885  11.926  18.277  0.00  0.00    +0.000 A 
ATOM      9  N   UNL     1      -4.952  12.675  19.416  0.00  0.00    +0.000 NA
ATOM     10  C   UNL     1      -3.864  12.739  20.202  0.00  0.00    +0.000 A 
ATOM     11  C   UNL     1      -2.697  12.098  19.810  0.00  0.00    +0.000 A 
ATOM     12  C   UNL     1      -2.637  11.354  18.610  0.00  0.00    +0.000 A 
BRANCH  10  13
ATOM     13  N   UNL     1      -3.918  13.456  21.372  0.00  0.00    +0.000 N 
ATOM     14  C   UNL     1      -3.033  13.201  22.513  0.00  0.00    +0.000 C 
ATOM     15  C   UNL     1      -3.858  12.941  23.784  0.00  0.00    +0.000 C 
ATOM     16  O   UNL     1      -4.806  13.990  24.027  0.00  0.00    +0.000 OA
ATOM     17  C   UNL     1      -5.727  14.086  22.924  0.00  0.00    +0.000 C 
ATOM     18  C   UNL     1      -5.001  14.411  21.615  0.00  0.00    +0.000 C 
ENDBRANCH  10  13
ENDBRANCH   1   3
BRANCH   1  25
ATOM     19  C   UNL     1      -0.443  10.366  21.806  0.00  0.00    +0.000 C 
ATOM     20  C   UNL     1       0.386   9.539  20.862  0.00  0.00    +0.000 A 
ATOM     21  C   UNL     1       1.086   8.452  21.406  0.00  0.00    +0.000 A 
ATOM     22  C   UNL     1       1.852   7.623  20.595  0.00  0.00    +0.000 A 
ATOM     23  C   UNL     1       2.049   7.936  19.253  0.00  0.00    +0.000 A 
ATOM     24  C   UNL     1       1.355   9.019  18.696  0.00  0.00    +0.000 A 
ATOM     25  C   UNL     1       0.502   9.821  19.482  0.00  0.00    +0.000 A 
BRANCH  23  26
ATOM     26  C   UNL     1       2.908   7.098  18.367  0.00  0.00    +0.000 C 
ATOM     27  O   UNL     1       3.641   7.681  17.575  0.00  0.00    +0.000 OA
ATOM     28  N   UNL     1       2.863   5.706  18.453  0.00  0.00    +0.000 N 
ATOM     29  C   UNL     1       2.090   4.894  19.400  0.00  0.00    +0.000 C 
ATOM     30  C   UNL     1       2.885   3.694  19.914  0.00  0.00    +0.000 C 
ATOM     31  O   UNL     1       3.429   2.924  18.837  0.00  0.00    +0.000 OA
ATOM     32  C   UNL     1       4.301   3.738  18.037  0.00  0.00    +0.000 C 
ATOM     33  C   UNL     1       3.543   4.916  17.418  0.00  0.00    +0.000 C 
ENDBRANCH  23  26
ENDBRANCH   1  25
TORSDOF 4
ENDMDL
MODEL 7
REMARK VINA RESULT:      -8.4      3.142      9.277
REMARK  Name = 
REMARK  5 active torsions:
REMARK  status: ('A' for Active; 'I' for Inactive)
REMARK    1  A    between atoms: C_1  and  C_2
REMARK    2  A    between atoms: C_5  and  C_6
REMARK    3  A    between atoms: C_15  and  N_16
REMARK    4  A    between atoms: N_16  and  C_17
REMARK    5  A    between atoms: C_24  and  N_25
REMARK                            x       y       z     vdW  Elec       q    Type
REMARK                         _______ _______ _______ _____ _____    ______ ____
ROOT
ATOM      1  N   UNL     1       1.853   9.624  18.469  0.00  0.00    +0.000 N 
ATOM      2  H   UNL     1       2.468   9.882  17.710  0.00  0.00    +0.000 HD
ENDROOT
BRANCH   1   3
ATOM      3  C   UNL     1       0.642  10.360  18.395  0.00  0.00    +0.000 A 
ATOM      4  N   UNL     1      -0.503   9.720  18.100  0.00  0.00    +0.000 NA
ATOM      5  C   UNL     1      -1.603  10.474  17.995  0.00  0.00    +0.000 A 
ATOM      6  N   UNL     1      -1.670  11.802  18.149  0.00  0.00    +0.000 NA
ATOM      7  C   UNL     1      -0.523  12.424  18.468  0.00  0.00    +0.000 A 
ATOM      8  C   UNL     1      -0.457  13.793  18.666  0.00  0.00    +0.000 A 
ATOM      9  N   UNL     1       0.657  14.503  19.007  0.00  0.00    +0.000 NA
ATOM     10  C   UNL     1       1.804  13.832  19.207  0.00  0.00    +0.000 A 
ATOM     11  C   UNL     1       1.839  12.459  19.006  0.00  0.00    +0.000 A 
ATOM     12  C   UNL     1       0.681  11.746  18.621  0.00  0.00    +0.000 A 
BRANCH  10  13
ATOM     13  N   UNL     1       2.931  14.519  19.586  0.00  0.00    +0.000 N 
ATOM     14  C   UNL     1       3.008  15.327  20.808  0.00  0.00    +0.000 C 
ATOM     15  C   UNL     1       3.436  16.765  20.475  0.00  0.00    +0.000 C 
ATOM     16  O   UNL     1       4.643  16.796  19.700  0.00  0.00    +0.000 OA
ATOM     17  C   UNL     1       4.445  16.103  18.454  0.00  0.00    +0.000 C 
ATOM     18  C   UNL     1       4.078  14.633  18.682  0.00  0.00    +0.000 C 
ENDBRANCH  10  13
ENDBRANCH   1   3
BRANCH   1  25
ATOM     19  C   UNL     1       1.096   8.974  21.268  0.00  0.00    +0.000 C 
ATOM     20  C   UNL     1       1.645   7.978  20.284  0.00  0.00    +0.000 A 
ATOM     21  C   UNL     1       1.757   6.647  20.712  0.00  0.00    +0.000 A 
ATOM     22  C   UNL     1       2.228   5.661  19.854  0.00  0.00    +0.000 A 
ATOM     23  C   UNL     1       2.728   5.999  18.600  0.00  0.00    +0.000 A 
ATOM     24  C   UNL     1       2.623   7.326  18.158  0.00  0.00    +0.000 A 
ATOM     25  C   UNL     1       2.065   8.326  18.980  0.00  0.00    +0.000 A 
BRANCH  23  26
ATOM     26  C   UNL     1       3.292   4.975  17.674  0.00  0.00    +0.000 C 
ATOM     27  O   UNL     1       2.505   4.203  17.137  0.00  0.00    +0.000 OA
ATOM     28  N   UNL     1       4.667   4.915  17.443  0.00  0.00    +0.000 N 
ATOM     29  C   UNL     1       5.701   5.819  17.961  0.00  0.00    +0.000 C 
ATOM     30  C   UNL     1       6.759   6.150  16.910  0.00  0.00    +0.000 C 
ATOM     31  O   UNL     1       7.303   4.964  16.322  0.00  0.00    +0.000 OA
ATOM     32  C   UNL     1       6.262   4.199  15.694  0.00  0.00    +0.000 C 
ATOM     33  C   UNL     1       5.208   3.760  16.714  0.00  0.00    +0.000 C 
ENDBRANCH  23  26
ENDBRANCH   1  25
TORSDOF 4
ENDMDL
MODEL 8
REMARK VINA RESULT:      -8.4      2.981      9.166
REMARK  Name = 
REMARK  5 active torsions:
REMARK  status: ('A' for Active; 'I' for Inactive)
REMARK    1  A    between atoms: C_1  and  C_2
REMARK    2  A    between atoms: C_5  and  C_6
REMARK    3  A    between atoms: C_15  and  N_16
REMARK    4  A    between atoms: N_16  and  C_17
REMARK    5  A    between atoms: C_24  and  N_25
REMARK                            x       y       z     vdW  Elec       q    Type
REMARK                         _______ _______ _______ _____ _____    ______ ____
ROOT
ATOM      1  N   UNL     1       1.775   9.704  18.522  0.00  0.00    +0.000 N 
ATOM      2  H   UNL     1       2.429  10.007  17.813  0.00  0.00    +0.000 HD
ENDROOT
BRANCH   1   3
ATOM      3  C   UNL     1       0.532  10.372  18.365  0.00  0.00    +0.000 A 
ATOM      4  N   UNL     1      -0.535   9.685  17.924  0.00  0.00    +0.000 NA
ATOM      5  C   UNL     1      -1.665  10.379  17.749  0.00  0.00    +0.000 A 
ATOM      6  N   UNL     1      -1.831  11.690  17.964  0.00  0.00    +0.000 NA
ATOM      7  C   UNL     1      -0.762  12.357  18.429  0.00  0.00    +0.000 A 
ATOM      8  C   UNL     1      -0.802  13.715  18.703  0.00  0.00    +0.000 A 
ATOM      9  N   UNL     1       0.227  14.466  19.191  0.00  0.00    +0.000 NA
ATOM     10  C   UNL     1       1.389  13.853  19.470  0.00  0.00    +0.000 A 
ATOM     11  C   UNL     1       1.530  12.498  19.202  0.00  0.00    +0.000 A 
ATOM     12  C   UNL     1       0.462  11.742  18.666  0.00  0.00    +0.000 A 
BRANCH  10  13
ATOM     13  N   UNL     1       2.428  14.580  19.995  0.00  0.00    +0.000 N 
ATOM     14  C   UNL     1       3.382  15.332  19.172  0.00  0.00    +0.000 C 
ATOM     15  C   UNL     1       4.822  14.895  19.486  0.00  0.00    +0.000 C 
ATOM     16  O   UNL     1       5.106  14.969  20.891  0.00  0.00    +0.000 OA
ATOM     17  C   UNL     1       4.221  14.097  21.617  0.00  0.00    +0.000 C 
ATOM     18  C   UNL     1       2.755  14.496  21.420  0.00  0.00    +0.000 C 
ENDBRANCH  10  13
ENDBRANCH   1   3
BRANCH   1  25
ATOM     19  C   UNL     1       1.072   9.048  21.334  0.00  0.00    +0.000 C 
ATOM     20  C   UNL     1       1.628   8.060  20.345  0.00  0.00    +0.000 A 
ATOM     21  C   UNL     1       1.775   6.733  20.776  0.00  0.00    +0.000 A 
ATOM     22  C   UNL     1       2.255   5.755  19.914  0.00  0.00    +0.000 A 
ATOM     23  C   UNL     1       2.730   6.099  18.652  0.00  0.00    +0.000 A 
ATOM     24  C   UNL     1       2.589   7.422  18.207  0.00  0.00    +0.000 A 
ATOM     25  C   UNL     1       2.022   8.413  19.034  0.00  0.00    +0.000 A 
BRANCH  23  26
ATOM     26  C   UNL     1       3.303   5.084  17.721  0.00  0.00    +0.000 C 
ATOM     27  O   UNL     1       2.521   4.317  17.170  0.00  0.00    +0.000 OA
ATOM     28  N   UNL     1       4.680   5.027  17.502  0.00  0.00    +0.000 N 
ATOM     29  C   UNL     1       5.708   5.926  18.039  0.00  0.00    +0.000 C 
ATOM     30  C   UNL     1       6.776   6.267  17.000  0.00  0.00    +0.000 C 
ATOM     31  O   UNL     1       7.326   5.087  16.406  0.00  0.00    +0.000 OA
ATOM     32  C   UNL     1       6.290   4.328  15.761  0.00  0.00    +0.000 C 
ATOM     33  C   UNL     1       5.227   3.879  16.767  0.00  0.00    +0.000 C 
ENDBRANCH  23  26
ENDBRANCH   1  25
TORSDOF 4
ENDMDL
MODEL 9
REMARK VINA RESULT:      -8.3      2.788      9.357
REMARK  Name = 
REMARK  5 active torsions:
REMARK  status: ('A' for Active; 'I' for Inactive)
REMARK    1  A    between atoms: C_1  and  C_2
REMARK    2  A    between atoms: C_5  and  C_6
REMARK    3  A    between atoms: C_15  and  N_16
REMARK    4  A    between atoms: N_16  and  C_17
REMARK    5  A    between atoms: C_24  and  N_25
REMARK                            x       y       z     vdW  Elec       q    Type
REMARK                         _______ _______ _______ _____ _____    ______ ____
ROOT
ATOM      1  N   UNL     1       1.752   9.519  18.647  0.00  0.00    +0.000 N 
ATOM      2  H   UNL     1       2.453   9.895  18.022  0.00  0.00    +0.000 HD
ENDROOT
BRANCH   1   3
ATOM      3  C   UNL     1       0.497  10.138  18.411  0.00  0.00    +0.000 A 
ATOM      4  N   UNL     1      -0.432   9.492  17.686  0.00  0.00    +0.000 NA
ATOM      5  C   UNL     1      -1.576  10.145  17.456  0.00  0.00    +0.000 A 
ATOM      6  N   UNL     1      -1.879  11.381  17.871  0.00  0.00    +0.000 NA
ATOM      7  C   UNL     1      -0.950  12.005  18.615  0.00  0.00    +0.000 A 
ATOM      8  C   UNL     1      -1.143  13.282  19.116  0.00  0.00    +0.000 A 
ATOM      9  N   UNL     1      -0.264  13.981  19.891  0.00  0.00    +0.000 NA
ATOM     10  C   UNL     1       0.890  13.388  20.242  0.00  0.00    +0.000 A 
ATOM     11  C   UNL     1       1.179  12.118  19.764  0.00  0.00    +0.000 A 
ATOM     12  C   UNL     1       0.270  11.421  18.935  0.00  0.00    +0.000 A 
BRANCH  10  13
ATOM     13  N   UNL     1       1.774  14.058  21.051  0.00  0.00    +0.000 N 
ATOM     14  C   UNL     1       1.371  15.120  21.979  0.00  0.00    +0.000 C 
ATOM     15  C   UNL     1       2.170  16.404  21.704  0.00  0.00    +0.000 C 
ATOM     16  O   UNL     1       3.584  16.161  21.702  0.00  0.00    +0.000 OA
ATOM     17  C   UNL     1       3.918  15.214  20.671  0.00  0.00    +0.000 C 
ATOM     18  C   UNL     1       3.218  13.870  20.897  0.00  0.00    +0.000 C 
ENDBRANCH  10  13
ENDBRANCH   1   3
BRANCH   1  25
ATOM     19  C   UNL     1       1.035   8.732  21.421  0.00  0.00    +0.000 C 
ATOM     20  C   UNL     1       1.617   7.796  20.396  0.00  0.00    +0.000 A 
ATOM     21  C   UNL     1       1.784   6.455  20.772  0.00  0.00    +0.000 A 
ATOM     22  C   UNL     1       2.288   5.523  19.874  0.00  0.00    +0.000 A 
ATOM     23  C   UNL     1       2.769   5.929  18.632  0.00  0.00    +0.000 A 
ATOM     24  C   UNL     1       2.609   7.267  18.243  0.00  0.00    +0.000 A 
ATOM     25  C   UNL     1       2.017   8.212  19.106  0.00  0.00    +0.000 A 
BRANCH  23  26
ATOM     26  C   UNL     1       3.367   4.964  17.665  0.00  0.00    +0.000 C 
ATOM     27  O   UNL     1       2.605   4.201  17.082  0.00  0.00    +0.000 OA
ATOM     28  N   UNL     1       4.746   4.948  17.448  0.00  0.00    +0.000 N 
ATOM     29  C   UNL     1       5.751   5.850  18.022  0.00  0.00    +0.000 C 
ATOM     30  C   UNL     1       6.813   6.256  17.001  0.00  0.00    +0.000 C 
ATOM     31  O   UNL     1       7.392   5.113  16.363  0.00  0.00    +0.000 OA
ATOM     32  C   UNL     1       6.377   4.355  15.686  0.00  0.00    +0.000 C 
ATOM     33  C   UNL     1       5.322   3.843  16.671  0.00  0.00    +0.000 C 
ENDBRANCH  23  26
ENDBRANCH   1  25
TORSDOF 4
ENDMDL
