MODEL 1
REMARK VINA RESULT:      -8.1      0.000      0.000
REMARK  Name = 
REMARK  8 active torsions:
REMARK  status: ('A' for Active; 'I' for Inactive)
REMARK    1  A    between atoms: C_1  and  N_2
REMARK    2  A    between atoms: N_2  and  C_20
REMARK    3  A    between atoms: C_3  and  C_5
REMARK    4  A    between atoms: C_9  and  S_10
REMARK    5  A    between atoms: S_10  and  N_13
REMARK    6  A    between atoms: C_21  and  N_22
REMARK    7  A    between atoms: N_23  and  C_24
REMARK    8  A    between atoms: C_24  and  C_25
REMARK                            x       y       z     vdW  Elec       q    Type
REMARK                         _______ _______ _______ _____ _____    ______ ____
ROOT
ATOM      1  C   UNL     1       1.365  11.886  20.702  0.00  0.00    +0.000 C 
ATOM      2  N   UNL     1       0.248  10.960  20.929  0.00  0.00    +0.000 N 
ATOM      3  C   UNL     1       0.053   9.763  20.219  0.00  0.00    +0.000 C 
ATOM      4  O   UNL     1      -1.039   9.186  20.215  0.00  0.00    +0.000 OA
ENDROOT
BRANCH   2   5
ATOM      5  C   UNL     1      -0.886  11.562  21.513  0.00  0.00    +0.000 A 
ATOM      6  C   UNL     1      -1.728  12.366  20.815  0.00  0.00    +0.000 A 
ATOM      7  N   UNL     1      -2.839  12.932  21.453  0.00  0.00    +0.000 N 
ATOM      8  C   UNL     1      -3.208  12.599  22.754  0.00  0.00    +0.000 A 
ATOM      9  O   UNL     1      -4.202  13.025  23.327  0.00  0.00    +0.000 OA
ATOM     10  N   UNL     1      -2.382  11.734  23.407  0.00  0.00    +0.000 N 
ATOM     11  C   UNL     1      -1.185  11.269  22.945  0.00  0.00    +0.000 A 
ATOM     12  O   UNL     1      -0.435  10.610  23.659  0.00  0.00    +0.000 OA
ATOM     13  H   UNL     1      -2.621  11.520  24.361  0.00  0.00    +0.000 HD
BRANCH   6  14
ATOM     14  N   UNL     1      -1.468  12.629  19.470  0.00  0.00    +0.000 N 
ATOM     15  H   UNL     1      -1.860  11.900  18.875  0.00  0.00    +0.000 HD
ATOM     16  H   UNL     1      -0.477  12.749  19.279  0.00  0.00    +0.000 HD
ENDBRANCH   6  14
BRANCH   7  17
ATOM     17  C   UNL     1      -3.700  13.906  20.773  0.00  0.00    +0.000 C 
BRANCH  17  18
ATOM     18  C   UNL     1      -4.985  13.337  20.183  0.00  0.00    +0.000 A 
ATOM     19  C   UNL     1      -5.014  12.212  19.343  0.00  0.00    +0.000 A 
ATOM     20  C   UNL     1      -6.227  11.666  18.913  0.00  0.00    +0.000 A 
ATOM     21  C   UNL     1      -7.433  12.236  19.311  0.00  0.00    +0.000 A 
ATOM     22  C   UNL     1      -7.427  13.365  20.125  0.00  0.00    +0.000 A 
ATOM     23  C   UNL     1      -6.214  13.910  20.558  0.00  0.00    +0.000 A 
ENDBRANCH  17  18
ENDBRANCH   7  17
ENDBRANCH   2   5
BRANCH   3  24
ATOM     24  C   UNL     1       1.169   9.053  19.511  0.00  0.00    +0.000 A 
ATOM     25  C   UNL     1       1.637   9.615  18.303  0.00  0.00    +0.000 A 
ATOM     26  C   UNL     1       2.568   8.940  17.504  0.00  0.00    +0.000 A 
ATOM     27  C   UNL     1       3.032   7.687  17.885  0.00  0.00    +0.000 A 
ATOM     28  C   UNL     1       2.562   7.115  19.073  0.00  0.00    +0.000 A 
ATOM     29  C   UNL     1       1.638   7.789  19.890  0.00  0.00    +0.000 A 
BRANCH  28  30
ATOM     30  S   UNL     1       3.159   5.492  19.518  0.00  0.00    +0.000 S 
ATOM     31  O   UNL     1       4.601   5.534  19.398  0.00  0.00    +0.000 OA
ATOM     32  O   UNL     1       2.515   5.104  20.754  0.00  0.00    +0.000 OA
BRANCH  30  33
ATOM     33  N   UNL     1       2.532   4.535  18.269  0.00  0.00    +0.000 NA
ATOM     34  C   UNL     1       1.400   3.621  18.602  0.00  0.00    +0.000 C 
ATOM     35  C   UNL     1       1.904   2.252  19.082  0.00  0.00    +0.000 C 
ATOM     36  O   UNL     1       2.808   1.657  18.140  0.00  0.00    +0.000 OA
ATOM     37  C   UNL     1       3.940   2.505  17.896  0.00  0.00    +0.000 C 
ATOM     38  C   UNL     1       3.502   3.867  17.356  0.00  0.00    +0.000 C 
ENDBRANCH  30  33
ENDBRANCH  28  30
ENDBRANCH   3  24
TORSDOF 7
ENDMDL
MODEL 2
REMARK VINA RESULT:      -7.8      1.094      1.314
REMARK  Name = 
REMARK  8 active torsions:
REMARK  status: ('A' for Active; 'I' for Inactive)
REMARK    1  A    between atoms: C_1  and  N_2
REMARK    2  A    between atoms: N_2  and  C_20
REMARK    3  A    between atoms: C_3  and  C_5
REMARK    4  A    between atoms: C_9  and  S_10
REMARK    5  A    between atoms: S_10  and  N_13
REMARK    6  A    between atoms: C_21  and  N_22
REMARK    7  A    between atoms: N_23  and  C_24
REMARK    8  A    between atoms: C_24  and  C_25
REMARK                            x       y       z     vdW  Elec       q    Type
REMARK                         _______ _______ _______ _____ _____    ______ ____
ROOT
ATOM      1  C   UNL     1       1.135  11.965  20.298  0.00  0.00    +0.000 C 
ATOM      2  N   UNL     1       0.222  10.916  20.768  0.00  0.00    +0.000 N 
ATOM      3  C   UNL     1       0.140   9.627  20.214  0.00  0.00    +0.000 C 
ATOM      4  O   UNL     1      -0.834   8.896  20.421  0.00  0.00    +0.000 OA
ENDROOT
BRANCH   2   5
ATOM      5  C   UNL     1      -0.916  11.406  21.443  0.00  0.00    +0.000 A 
ATOM      6  C   UNL     1      -1.909  12.078  20.809  0.00  0.00    +0.000 A 
ATOM      7  N   UNL     1      -3.015  12.538  21.537  0.00  0.00    +0.000 N 
ATOM      8  C   UNL     1      -3.217  12.218  22.877  0.00  0.00    +0.000 A 
ATOM      9  O   UNL     1      -4.196  12.548  23.532  0.00  0.00    +0.000 OA
ATOM     10  N   UNL     1      -2.236  11.481  23.470  0.00  0.00    +0.000 N 
ATOM     11  C   UNL     1      -1.042  11.139  22.906  0.00  0.00    +0.000 A 
ATOM     12  O   UNL     1      -0.154  10.600  23.561  0.00  0.00    +0.000 OA
ATOM     13  H   UNL     1      -2.357  11.280  24.448  0.00  0.00    +0.000 HD
BRANCH   6  14
ATOM     14  N   UNL     1      -1.811  12.314  19.438  0.00  0.00    +0.000 N 
ATOM     15  H   UNL     1      -0.855  12.175  19.113  0.00  0.00    +0.000 HD
ATOM     16  H   UNL     1      -2.146  13.237  19.175  0.00  0.00    +0.000 HD
ENDBRANCH   6  14
BRANCH   7  17
ATOM     17  C   UNL     1      -4.046  13.377  20.916  0.00  0.00    +0.000 C 
BRANCH  17  18
ATOM     18  C   UNL     1      -5.139  12.621  20.172  0.00  0.00    +0.000 A 
ATOM     19  C   UNL     1      -5.002  12.177  18.847  0.00  0.00    +0.000 A 
ATOM     20  C   UNL     1      -5.993  11.396  18.244  0.00  0.00    +0.000 A 
ATOM     21  C   UNL     1      -7.138  11.046  18.952  0.00  0.00    +0.000 A 
ATOM     22  C   UNL     1      -7.305  11.493  20.260  0.00  0.00    +0.000 A 
ATOM     23  C   UNL     1      -6.313  12.273  20.864  0.00  0.00    +0.000 A 
ENDBRANCH  17  18
ENDBRANCH   7  17
ENDBRANCH   2   5
BRANCH   3  24
ATOM     24  C   UNL     1       1.262   9.013  19.430  0.00  0.00    +0.000 A 
ATOM     25  C   UNL     1       1.751   9.732  18.318  0.00  0.00    +0.000 A 
ATOM     26  C   UNL     1       2.689   9.166  17.446  0.00  0.00    +0.000 A 
ATOM     27  C   UNL     1       3.141   7.869  17.657  0.00  0.00    +0.000 A 
ATOM     28  C   UNL     1       2.651   7.143  18.748  0.00  0.00    +0.000 A 
ATOM     29  C   UNL     1       1.719   7.705  19.637  0.00  0.00    +0.000 A 
BRANCH  28  30
ATOM     30  S   UNL     1       3.233   5.470  18.973  0.00  0.00    +0.000 S 
ATOM     31  O   UNL     1       3.304   4.877  17.655  0.00  0.00    +0.000 OA
ATOM     32  O   UNL     1       4.385   5.513  19.847  0.00  0.00    +0.000 OA
BRANCH  30  33
ATOM     33  N   UNL     1       1.948   4.765  19.823  0.00  0.00    +0.000 NA
ATOM     34  C   UNL     1       2.222   4.273  21.205  0.00  0.00    +0.000 C 
ATOM     35  C   UNL     1       2.710   2.817  21.199  0.00  0.00    +0.000 C 
ATOM     36  O   UNL     1       1.802   1.954  20.498  0.00  0.00    +0.000 OA
ATOM     37  C   UNL     1       1.616   2.384  19.141  0.00  0.00    +0.000 C 
ATOM     38  C   UNL     1       1.070   3.812  19.085  0.00  0.00    +0.000 C 
ENDBRANCH  30  33
ENDBRANCH  28  30
ENDBRANCH   3  24
TORSDOF 7
ENDMDL
MODEL 3
REMARK VINA RESULT:      -7.7      2.601      4.252
REMARK  Name = 
REMARK  8 active torsions:
REMARK  status: ('A' for Active; 'I' for Inactive)
REMARK    1  A    between atoms: C_1  and  N_2
REMARK    2  A    between atoms: N_2  and  C_20
REMARK    3  A    between atoms: C_3  and  C_5
REMARK    4  A    between atoms: C_9  and  S_10
REMARK    5  A    between atoms: S_10  and  N_13
REMARK    6  A    between atoms: C_21  and  N_22
REMARK    7  A    between atoms: N_23  and  C_24
REMARK    8  A    between atoms: C_24  and  C_25
REMARK                            x       y       z     vdW  Elec       q    Type
REMARK                         _______ _______ _______ _____ _____    ______ ____
ROOT
ATOM      1  C   UNL     1       1.202   8.772  17.384  0.00  0.00    +0.000 C 
ATOM      2  N   UNL     1       1.336   9.362  18.722  0.00  0.00    +0.000 N 
ATOM      3  C   UNL     1       1.458   8.619  19.909  0.00  0.00    +0.000 C 
ATOM      4  O   UNL     1       1.253   9.130  21.015  0.00  0.00    +0.000 OA
ENDROOT
BRANCH   2   5
ATOM      5  C   UNL     1       0.823  10.671  18.825  0.00  0.00    +0.000 A 
ATOM      6  C   UNL     1      -0.462  10.928  19.180  0.00  0.00    +0.000 A 
ATOM      7  N   UNL     1      -0.910  12.252  19.267  0.00  0.00    +0.000 N 
ATOM      8  C   UNL     1      -0.055  13.344  19.137  0.00  0.00    +0.000 A 
ATOM      9  O   UNL     1      -0.393  14.513  19.264  0.00  0.00    +0.000 OA
ATOM     10  N   UNL     1       1.246  13.054  18.851  0.00  0.00    +0.000 N 
ATOM     11  C   UNL     1       1.745  11.816  18.568  0.00  0.00    +0.000 A 
ATOM     12  O   UNL     1       2.898  11.665  18.175  0.00  0.00    +0.000 OA
ATOM     13  H   UNL     1       1.860  13.839  18.716  0.00  0.00    +0.000 HD
BRANCH   6  14
ATOM     14  N   UNL     1      -1.325   9.865  19.444  0.00  0.00    +0.000 N 
ATOM     15  H   UNL     1      -2.198   9.970  18.930  0.00  0.00    +0.000 HD
ATOM     16  H   UNL     1      -1.508   9.746  20.436  0.00  0.00    +0.000 HD
ENDBRANCH   6  14
BRANCH   7  17
ATOM     17  C   UNL     1      -2.319  12.570  19.522  0.00  0.00    +0.000 C 
BRANCH  17  18
ATOM     18  C   UNL     1      -2.720  12.619  20.991  0.00  0.00    +0.000 A 
ATOM     19  C   UNL     1      -3.991  13.024  21.428  0.00  0.00    +0.000 A 
ATOM     20  C   UNL     1      -4.344  12.950  22.780  0.00  0.00    +0.000 A 
ATOM     21  C   UNL     1      -3.433  12.475  23.718  0.00  0.00    +0.000 A 
ATOM     22  C   UNL     1      -2.159  12.090  23.309  0.00  0.00    +0.000 A 
ATOM     23  C   UNL     1      -1.807  12.160  21.957  0.00  0.00    +0.000 A 
ENDBRANCH  17  18
ENDBRANCH   7  17
ENDBRANCH   2   5
BRANCH   3  24
ATOM     24  C   UNL     1       1.942   7.199  19.926  0.00  0.00    +0.000 A 
ATOM     25  C   UNL     1       1.219   6.273  20.710  0.00  0.00    +0.000 A 
ATOM     26  C   UNL     1       1.688   4.967  20.901  0.00  0.00    +0.000 A 
ATOM     27  C   UNL     1       2.891   4.569  20.332  0.00  0.00    +0.000 A 
ATOM     28  C   UNL     1       3.622   5.484  19.566  0.00  0.00    +0.000 A 
ATOM     29  C   UNL     1       3.156   6.794  19.356  0.00  0.00    +0.000 A 
BRANCH  28  30
ATOM     30  S   UNL     1       5.177   4.947  18.872  0.00  0.00    +0.000 S 
ATOM     31  O   UNL     1       6.217   5.497  19.714  0.00  0.00    +0.000 OA
ATOM     32  O   UNL     1       5.083   3.526  18.617  0.00  0.00    +0.000 OA
BRANCH  30  33
ATOM     33  N   UNL     1       5.191   5.754  17.382  0.00  0.00    +0.000 NA
ATOM     34  C   UNL     1       5.312   4.922  16.149  0.00  0.00    +0.000 C 
ATOM     35  C   UNL     1       6.781   4.685  15.770  0.00  0.00    +0.000 C 
ATOM     36  O   UNL     1       7.507   5.918  15.653  0.00  0.00    +0.000 OA
ATOM     37  C   UNL     1       7.461   6.668  16.876  0.00  0.00    +0.000 C 
ATOM     38  C   UNL     1       6.020   6.989  17.273  0.00  0.00    +0.000 C 
ENDBRANCH  30  33
ENDBRANCH  28  30
ENDBRANCH   3  24
TORSDOF 7
ENDMDL
MODEL 4
REMARK VINA RESULT:      -7.7      0.974      1.072
REMARK  Name = 
REMARK  8 active torsions:
REMARK  status: ('A' for Active; 'I' for Inactive)
REMARK    1  A    between atoms: C_1  and  N_2
REMARK    2  A    between atoms: N_2  and  C_20
REMARK    3  A    between atoms: C_3  and  C_5
REMARK    4  A    between atoms: C_9  and  S_10
REMARK    5  A    between atoms: S_10  and  N_13
REMARK    6  A    between atoms: C_21  and  N_22
REMARK    7  A    between atoms: N_23  and  C_24
REMARK    8  A    between atoms: C_24  and  C_25
REMARK                            x       y       z     vdW  Elec       q    Type
REMARK                         _______ _______ _______ _____ _____    ______ ____
ROOT
ATOM      1  C   UNL     1       0.589  12.080  18.998  0.00  0.00    +0.000 C 
ATOM      2  N   UNL     1      -0.026  11.274  20.060  0.00  0.00    +0.000 N 
ATOM      3  C   UNL     1       0.055   9.874  20.143  0.00  0.00    +0.000 C 
ATOM      4  O   UNL     1      -0.720   9.222  20.851  0.00  0.00    +0.000 OA
ENDROOT
BRANCH   2   5
ATOM      5  C   UNL     1      -1.120  11.900  20.693  0.00  0.00    +0.000 A 
ATOM      6  C   UNL     1      -2.279  12.179  20.045  0.00  0.00    +0.000 A 
ATOM      7  N   UNL     1      -3.330  12.801  20.732  0.00  0.00    +0.000 N 
ATOM      8  C   UNL     1      -3.298  13.030  22.105  0.00  0.00    +0.000 A 
ATOM      9  O   UNL     1      -4.216  13.515  22.752  0.00  0.00    +0.000 OA
ATOM     10  N   UNL     1      -2.147  12.674  22.743  0.00  0.00    +0.000 N 
ATOM     11  C   UNL     1      -1.004  12.233  22.143  0.00  0.00    +0.000 A 
ATOM     12  O   UNL     1       0.034  12.076  22.780  0.00  0.00    +0.000 OA
ATOM     13  H   UNL     1      -2.102  12.874  23.728  0.00  0.00    +0.000 HD
BRANCH   6  14
ATOM     14  N   UNL     1      -2.405  11.852  18.695  0.00  0.00    +0.000 N 
ATOM     15  H   UNL     1      -2.853  12.607  18.178  0.00  0.00    +0.000 HD
ATOM     16  H   UNL     1      -2.900  10.977  18.549  0.00  0.00    +0.000 HD
ENDBRANCH   6  14
BRANCH   7  17
ATOM     17  C   UNL     1      -4.548  13.234  20.039  0.00  0.00    +0.000 C 
BRANCH  17  18
ATOM     18  C   UNL     1      -5.652  12.187  19.947  0.00  0.00    +0.000 A 
ATOM     19  C   UNL     1      -5.720  11.229  18.923  0.00  0.00    +0.000 A 
ATOM     20  C   UNL     1      -6.693  10.224  18.942  0.00  0.00    +0.000 A 
ATOM     21  C   UNL     1      -7.615  10.160  19.982  0.00  0.00    +0.000 A 
ATOM     22  C   UNL     1      -7.580  11.113  20.996  0.00  0.00    +0.000 A 
ATOM     23  C   UNL     1      -6.606  12.117  20.979  0.00  0.00    +0.000 A 
ENDBRANCH  17  18
ENDBRANCH   7  17
ENDBRANCH   2   5
BRANCH   3  24
ATOM     24  C   UNL     1       1.141   9.087  19.470  0.00  0.00    +0.000 A 
ATOM     25  C   UNL     1       1.593   9.542  18.213  0.00  0.00    +0.000 A 
ATOM     26  C   UNL     1       2.493   8.786  17.451  0.00  0.00    +0.000 A 
ATOM     27  C   UNL     1       2.941   7.557  17.919  0.00  0.00    +0.000 A 
ATOM     28  C   UNL     1       2.485   7.090  19.158  0.00  0.00    +0.000 A 
ATOM     29  C   UNL     1       1.593   7.845  19.937  0.00  0.00    +0.000 A 
BRANCH  28  30
ATOM     30  S   UNL     1       3.059   5.494  19.717  0.00  0.00    +0.000 S 
ATOM     31  O   UNL     1       4.505   5.558  19.735  0.00  0.00    +0.000 OA
ATOM     32  O   UNL     1       2.303   5.138  20.898  0.00  0.00    +0.000 OA
BRANCH  30  33
ATOM     33  N   UNL     1       2.570   4.484  18.448  0.00  0.00    +0.000 NA
ATOM     34  C   UNL     1       1.296   3.725  18.623  0.00  0.00    +0.000 C 
ATOM     35  C   UNL     1       1.537   2.368  19.300  0.00  0.00    +0.000 C 
ATOM     36  O   UNL     1       2.527   1.594  18.605  0.00  0.00    +0.000 OA
ATOM     37  C   UNL     1       3.775   2.297  18.523  0.00  0.00    +0.000 C 
ATOM     38  C   UNL     1       3.609   3.634  17.800  0.00  0.00    +0.000 C 
ENDBRANCH  30  33
ENDBRANCH  28  30
ENDBRANCH   3  24
TORSDOF 7
ENDMDL
MODEL 5
REMARK VINA RESULT:      -7.7      2.608      3.995
REMARK  Name = 
REMARK  8 active torsions:
REMARK  status: ('A' for Active; 'I' for Inactive)
REMARK    1  A    between atoms: C_1  and  N_2
REMARK    2  A    between atoms: N_2  and  C_20
REMARK    3  A    between atoms: C_3  and  C_5
REMARK    4  A    between atoms: C_9  and  S_10
REMARK    5  A    between atoms: S_10  and  N_13
REMARK    6  A    between atoms: C_21  and  N_22
REMARK    7  A    between atoms: N_23  and  C_24
REMARK    8  A    between atoms: C_24  and  C_25
REMARK                            x       y       z     vdW  Elec       q    Type
REMARK                         _______ _______ _______ _____ _____    ______ ____
ROOT
ATOM      1  C   UNL     1       1.174   8.577  17.556  0.00  0.00    +0.000 C 
ATOM      2  N   UNL     1       1.412   9.137  18.892  0.00  0.00    +0.000 N 
ATOM      3  C   UNL     1       1.591   8.369  20.055  0.00  0.00    +0.000 C 
ATOM      4  O   UNL     1       1.474   8.864  21.181  0.00  0.00    +0.000 OA
ENDROOT
BRANCH   2   5
ATOM      5  C   UNL     1       0.945  10.458  19.052  0.00  0.00    +0.000 A 
ATOM      6  C   UNL     1      -0.230  10.749  19.666  0.00  0.00    +0.000 A 
ATOM      7  N   UNL     1      -0.638  12.083  19.794  0.00  0.00    +0.000 N 
ATOM      8  C   UNL     1       0.178  13.155  19.440  0.00  0.00    +0.000 A 
ATOM      9  O   UNL     1      -0.115  14.333  19.590  0.00  0.00    +0.000 OA
ATOM     10  N   UNL     1       1.383  12.833  18.890  0.00  0.00    +0.000 N 
ATOM     11  C   UNL     1       1.799  11.577  18.556  0.00  0.00    +0.000 A 
ATOM     12  O   UNL     1       2.838  11.392  17.929  0.00  0.00    +0.000 OA
ATOM     13  H   UNL     1       1.960  13.602  18.595  0.00  0.00    +0.000 HD
BRANCH   6  14
ATOM     14  N   UNL     1      -1.025   9.711  20.152  0.00  0.00    +0.000 N 
ATOM     15  H   UNL     1      -1.643   9.355  19.424  0.00  0.00    +0.000 HD
ATOM     16  H   UNL     1      -1.559   9.979  20.973  0.00  0.00    +0.000 HD
ENDBRANCH   6  14
BRANCH   7  17
ATOM     17  C   UNL     1      -1.956  12.433  20.335  0.00  0.00    +0.000 C 
BRANCH  17  18
ATOM     18  C   UNL     1      -3.124  12.242  19.376  0.00  0.00    +0.000 A 
ATOM     19  C   UNL     1      -2.972  11.764  18.064  0.00  0.00    +0.000 A 
ATOM     20  C   UNL     1      -4.086  11.506  17.259  0.00  0.00    +0.000 A 
ATOM     21  C   UNL     1      -5.370  11.723  17.748  0.00  0.00    +0.000 A 
ATOM     22  C   UNL     1      -5.544  12.218  19.038  0.00  0.00    +0.000 A 
ATOM     23  C   UNL     1      -4.430  12.474  19.845  0.00  0.00    +0.000 A 
ENDBRANCH  17  18
ENDBRANCH   7  17
ENDBRANCH   2   5
BRANCH   3  24
ATOM     24  C   UNL     1       2.034   6.936  20.016  0.00  0.00    +0.000 A 
ATOM     25  C   UNL     1       1.365   6.023  20.859  0.00  0.00    +0.000 A 
ATOM     26  C   UNL     1       1.813   4.703  20.995  0.00  0.00    +0.000 A 
ATOM     27  C   UNL     1       2.944   4.277  20.309  0.00  0.00    +0.000 A 
ATOM     28  C   UNL     1       3.623   5.180  19.483  0.00  0.00    +0.000 A 
ATOM     29  C   UNL     1       3.176   6.503  19.328  0.00  0.00    +0.000 A 
BRANCH  28  30
ATOM     30  S   UNL     1       5.088   4.607  18.638  0.00  0.00    +0.000 S 
ATOM     31  O   UNL     1       6.204   4.874  19.519  0.00  0.00    +0.000 OA
ATOM     32  O   UNL     1       4.821   3.276  18.138  0.00  0.00    +0.000 OA
BRANCH  30  33
ATOM     33  N   UNL     1       5.166   5.665  17.317  0.00  0.00    +0.000 NA
ATOM     34  C   UNL     1       5.329   5.064  15.961  0.00  0.00    +0.000 C 
ATOM     35  C   UNL     1       6.811   4.879  15.601  0.00  0.00    +0.000 C 
ATOM     36  O   UNL     1       7.548   6.104  15.733  0.00  0.00    +0.000 OA
ATOM     37  C   UNL     1       7.459   6.625  17.067  0.00  0.00    +0.000 C 
ATOM     38  C   UNL     1       6.004   6.889  17.460  0.00  0.00    +0.000 C 
ENDBRANCH  30  33
ENDBRANCH  28  30
ENDBRANCH   3  24
TORSDOF 7
ENDMDL
MODEL 6
REMARK VINA RESULT:      -7.5      2.040      3.484
REMARK  Name = 
REMARK  8 active torsions:
REMARK  status: ('A' for Active; 'I' for Inactive)
REMARK    1  A    between atoms: C_1  and  N_2
REMARK    2  A    between atoms: N_2  and  C_20
REMARK    3  A    between atoms: C_3  and  C_5
REMARK    4  A    between atoms: C_9  and  S_10
REMARK    5  A    between atoms: S_10  and  N_13
REMARK    6  A    between atoms: C_21  and  N_22
REMARK    7  A    between atoms: N_23  and  C_24
REMARK    8  A    between atoms: C_24  and  C_25
REMARK                            x       y       z     vdW  Elec       q    Type
REMARK                         _______ _______ _______ _____ _____    ______ ____
ROOT
ATOM      1  C   UNL     1       1.699  12.102  20.123  0.00  0.00    +0.000 C 
ATOM      2  N   UNL     1       0.420  11.382  20.162  0.00  0.00    +0.000 N 
ATOM      3  C   UNL     1       0.168  10.174  19.490  0.00  0.00    +0.000 C 
ATOM      4  O   UNL     1      -0.983   9.773  19.291  0.00  0.00    +0.000 OA
ENDROOT
BRANCH   2   5
ATOM      5  C   UNL     1      -0.689  12.199  20.467  0.00  0.00    +0.000 A 
ATOM      6  C   UNL     1      -1.215  12.280  21.715  0.00  0.00    +0.000 A 
ATOM      7  N   UNL     1      -2.317  13.112  21.954  0.00  0.00    +0.000 N 
ATOM      8  C   UNL     1      -2.826  13.980  20.991  0.00  0.00    +0.000 A 
ATOM      9  O   UNL     1      -3.746  14.764  21.176  0.00  0.00    +0.000 OA
ATOM     10  N   UNL     1      -2.231  13.927  19.765  0.00  0.00    +0.000 N 
ATOM     11  C   UNL     1      -1.278  13.031  19.378  0.00  0.00    +0.000 A 
ATOM     12  O   UNL     1      -0.903  12.959  18.210  0.00  0.00    +0.000 OA
ATOM     13  H   UNL     1      -2.620  14.522  19.054  0.00  0.00    +0.000 HD
BRANCH   6  14
ATOM     14  N   UNL     1      -0.657  11.523  22.745  0.00  0.00    +0.000 N 
ATOM     15  H   UNL     1      -0.193  10.694  22.377  0.00  0.00    +0.000 HD
ATOM     16  H   UNL     1      -1.339  11.264  23.453  0.00  0.00    +0.000 HD
ENDBRANCH   6  14
BRANCH   7  17
ATOM     17  C   UNL     1      -2.994  13.133  23.256  0.00  0.00    +0.000 C 
BRANCH  17  18
ATOM     18  C   UNL     1      -2.682  14.338  24.133  0.00  0.00    +0.000 A 
ATOM     19  C   UNL     1      -1.375  14.723  24.474  0.00  0.00    +0.000 A 
ATOM     20  C   UNL     1      -1.136  15.898  25.194  0.00  0.00    +0.000 A 
ATOM     21  C   UNL     1      -2.197  16.707  25.589  0.00  0.00    +0.000 A 
ATOM     22  C   UNL     1      -3.502  16.333  25.280  0.00  0.00    +0.000 A 
ATOM     23  C   UNL     1      -3.741  15.160  24.558  0.00  0.00    +0.000 A 
ENDBRANCH  17  18
ENDBRANCH   7  17
ENDBRANCH   2   5
BRANCH   3  24
ATOM     24  C   UNL     1       1.265   9.243  19.064  0.00  0.00    +0.000 A 
ATOM     25  C   UNL     1       1.978   9.569  17.890  0.00  0.00    +0.000 A 
ATOM     26  C   UNL     1       2.913   8.681  17.342  0.00  0.00    +0.000 A 
ATOM     27  C   UNL     1       3.137   7.448  17.943  0.00  0.00    +0.000 A 
ATOM     28  C   UNL     1       2.424   7.111  19.099  0.00  0.00    +0.000 A 
ATOM     29  C   UNL     1       1.494   7.998  19.666  0.00  0.00    +0.000 A 
BRANCH  28  30
ATOM     30  S   UNL     1       2.718   5.508  19.829  0.00  0.00    +0.000 S 
ATOM     31  O   UNL     1       4.153   5.324  19.860  0.00  0.00    +0.000 OA
ATOM     32  O   UNL     1       1.918   5.413  21.031  0.00  0.00    +0.000 OA
BRANCH  30  33
ATOM     33  N   UNL     1       2.056   4.469  18.667  0.00  0.00    +0.000 NA
ATOM     34  C   UNL     1       1.115   3.411  19.142  0.00  0.00    +0.000 C 
ATOM     35  C   UNL     1       1.861   2.125  19.528  0.00  0.00    +0.000 C 
ATOM     36  O   UNL     1       2.696   1.653  18.460  0.00  0.00    +0.000 OA
ATOM     37  C   UNL     1       3.658   2.646  18.072  0.00  0.00    +0.000 C 
ATOM     38  C   UNL     1       2.969   3.933  17.617  0.00  0.00    +0.000 C 
ENDBRANCH  30  33
ENDBRANCH  28  30
ENDBRANCH   3  24
TORSDOF 7
ENDMDL
MODEL 7
REMARK VINA RESULT:      -7.5      3.633     10.114
REMARK  Name = 
REMARK  8 active torsions:
REMARK  status: ('A' for Active; 'I' for Inactive)
REMARK    1  A    between atoms: C_1  and  N_2
REMARK    2  A    between atoms: N_2  and  C_20
REMARK    3  A    between atoms: C_3  and  C_5
REMARK    4  A    between atoms: C_9  and  S_10
REMARK    5  A    between atoms: S_10  and  N_13
REMARK    6  A    between atoms: C_21  and  N_22
REMARK    7  A    between atoms: N_23  and  C_24
REMARK    8  A    between atoms: C_24  and  C_25
REMARK                            x       y       z     vdW  Elec       q    Type
REMARK                         _______ _______ _______ _____ _____    ______ ____
ROOT
ATOM      1  C   UNL     1      -1.060  10.330  19.291  0.00  0.00    +0.000 C 
ATOM      2  N   UNL     1       0.123  10.085  20.125  0.00  0.00    +0.000 N 
ATOM      3  C   UNL     1       0.529  10.908  21.189  0.00  0.00    +0.000 C 
ATOM      4  O   UNL     1       1.674  10.850  21.651  0.00  0.00    +0.000 OA
ENDROOT
BRANCH   2   5
ATOM      5  C   UNL     1       1.112   9.297  19.500  0.00  0.00    +0.000 A 
ATOM      6  C   UNL     1       1.484   8.081  19.973  0.00  0.00    +0.000 A 
ATOM      7  N   UNL     1       2.472   7.345  19.304  0.00  0.00    +0.000 N 
ATOM      8  C   UNL     1       3.006   7.744  18.081  0.00  0.00    +0.000 A 
ATOM      9  O   UNL     1       3.824   7.104  17.436  0.00  0.00    +0.000 OA
ATOM     10  N   UNL     1       2.560   8.937  17.595  0.00  0.00    +0.000 N 
ATOM     11  C   UNL     1       1.743   9.811  18.249  0.00  0.00    +0.000 A 
ATOM     12  O   UNL     1       1.510  10.930  17.800  0.00  0.00    +0.000 OA
ATOM     13  H   UNL     1       2.971   9.250  16.731  0.00  0.00    +0.000 HD
BRANCH   6  14
ATOM     14  N   UNL     1       0.885   7.582  21.129  0.00  0.00    +0.000 N 
ATOM     15  H   UNL     1       0.289   6.784  20.915  0.00  0.00    +0.000 HD
ATOM     16  H   UNL     1       0.362   8.291  21.636  0.00  0.00    +0.000 HD
ENDBRANCH   6  14
BRANCH   7  17
ATOM     17  C   UNL     1       2.993   6.088  19.851  0.00  0.00    +0.000 C 
BRANCH  17  18
ATOM     18  C   UNL     1       2.233   4.834  19.438  0.00  0.00    +0.000 A 
ATOM     19  C   UNL     1       2.482   4.142  18.242  0.00  0.00    +0.000 A 
ATOM     20  C   UNL     1       1.831   2.937  17.959  0.00  0.00    +0.000 A 
ATOM     21  C   UNL     1       0.916   2.405  18.862  0.00  0.00    +0.000 A 
ATOM     22  C   UNL     1       0.637   3.086  20.044  0.00  0.00    +0.000 A 
ATOM     23  C   UNL     1       1.291   4.289  20.329  0.00  0.00    +0.000 A 
ENDBRANCH  17  18
ENDBRANCH   7  17
ENDBRANCH   2   5
BRANCH   3  24
ATOM     24  C   UNL     1      -0.416  11.830  21.902  0.00  0.00    +0.000 A 
ATOM     25  C   UNL     1      -1.327  11.254  22.813  0.00  0.00    +0.000 A 
ATOM     26  C   UNL     1      -2.339  12.020  23.406  0.00  0.00    +0.000 A 
ATOM     27  C   UNL     1      -2.471  13.366  23.086  0.00  0.00    +0.000 A 
ATOM     28  C   UNL     1      -1.581  13.942  22.173  0.00  0.00    +0.000 A 
ATOM     29  C   UNL     1      -0.554  13.187  21.581  0.00  0.00    +0.000 A 
BRANCH  28  30
ATOM     30  S   UNL     1      -1.797  15.667  21.764  0.00  0.00    +0.000 S 
ATOM     31  O   UNL     1      -2.986  15.752  20.945  0.00  0.00    +0.000 OA
ATOM     32  O   UNL     1      -1.662  16.433  22.985  0.00  0.00    +0.000 OA
BRANCH  30  33
ATOM     33  N   UNL     1      -0.440  15.969  20.796  0.00  0.00    +0.000 NA
ATOM     34  C   UNL     1       0.533  16.995  21.273  0.00  0.00    +0.000 C 
ATOM     35  C   UNL     1       0.159  18.400  20.778  0.00  0.00    +0.000 C 
ATOM     36  O   UNL     1       0.001  18.438  19.351  0.00  0.00    +0.000 OA
ATOM     37  C   UNL     1      -1.003  17.511  18.913  0.00  0.00    +0.000 C 
ATOM     38  C   UNL     1      -0.651  16.081  19.325  0.00  0.00    +0.000 C 
ENDBRANCH  30  33
ENDBRANCH  28  30
ENDBRANCH   3  24
TORSDOF 7
ENDMDL
MODEL 8
REMARK VINA RESULT:      -7.5      1.391      2.283
REMARK  Name = 
REMARK  8 active torsions:
REMARK  status: ('A' for Active; 'I' for Inactive)
REMARK    1  A    between atoms: C_1  and  N_2
REMARK    2  A    between atoms: N_2  and  C_20
REMARK    3  A    between atoms: C_3  and  C_5
REMARK    4  A    between atoms: C_9  and  S_10
REMARK    5  A    between atoms: S_10  and  N_13
REMARK    6  A    between atoms: C_21  and  N_22
REMARK    7  A    between atoms: N_23  and  C_24
REMARK    8  A    between atoms: C_24  and  C_25
REMARK                            x       y       z     vdW  Elec       q    Type
REMARK                         _______ _______ _______ _____ _____    ______ ____
ROOT
ATOM      1  C   UNL     1       1.231  11.865  20.202  0.00  0.00    +0.000 C 
ATOM      2  N   UNL     1       0.311  10.876  20.777  0.00  0.00    +0.000 N 
ATOM      3  C   UNL     1       0.196   9.547  20.335  0.00  0.00    +0.000 C 
ATOM      4  O   UNL     1      -0.786   8.853  20.622  0.00  0.00    +0.000 OA
ENDROOT
BRANCH   2   5
ATOM      5  C   UNL     1      -0.802  11.441  21.432  0.00  0.00    +0.000 A 
ATOM      6  C   UNL     1      -1.708  12.223  20.792  0.00  0.00    +0.000 A 
ATOM      7  N   UNL     1      -2.795  12.753  21.499  0.00  0.00    +0.000 N 
ATOM      8  C   UNL     1      -3.075  12.404  22.819  0.00  0.00    +0.000 A 
ATOM      9  O   UNL     1      -4.044  12.798  23.452  0.00  0.00    +0.000 OA
ATOM     10  N   UNL     1      -2.185  11.561  23.415  0.00  0.00    +0.000 N 
ATOM     11  C   UNL     1      -1.006  11.134  22.878  0.00  0.00    +0.000 A 
ATOM     12  O   UNL     1      -0.194  10.494  23.542  0.00  0.00    +0.000 OA
ATOM     13  H   UNL     1      -2.360  11.337  24.380  0.00  0.00    +0.000 HD
BRANCH   6  14
ATOM     14  N   UNL     1      -1.539  12.498  19.435  0.00  0.00    +0.000 N 
ATOM     15  H   UNL     1      -0.578  12.321  19.146  0.00  0.00    +0.000 HD
ATOM     16  H   UNL     1      -1.816  13.445  19.190  0.00  0.00    +0.000 HD
ENDBRANCH   6  14
BRANCH   7  17
ATOM     17  C   UNL     1      -3.724  13.704  20.878  0.00  0.00    +0.000 C 
BRANCH  17  18
ATOM     18  C   UNL     1      -3.435  15.173  21.156  0.00  0.00    +0.000 A 
ATOM     19  C   UNL     1      -2.274  15.826  20.712  0.00  0.00    +0.000 A 
ATOM     20  C   UNL     1      -2.104  17.201  20.902  0.00  0.00    +0.000 A 
ATOM     21  C   UNL     1      -3.088  17.947  21.542  0.00  0.00    +0.000 A 
ATOM     22  C   UNL     1      -4.237  17.317  22.011  0.00  0.00    +0.000 A 
ATOM     23  C   UNL     1      -4.409  15.942  21.819  0.00  0.00    +0.000 A 
ENDBRANCH  17  18
ENDBRANCH   7  17
ENDBRANCH   2   5
BRANCH   3  24
ATOM     24  C   UNL     1       1.290   8.849  19.582  0.00  0.00    +0.000 A 
ATOM     25  C   UNL     1       1.665   9.385  18.331  0.00  0.00    +0.000 A 
ATOM     26  C   UNL     1       2.568   8.713  17.497  0.00  0.00    +0.000 A 
ATOM     27  C   UNL     1       3.096   7.489  17.887  0.00  0.00    +0.000 A 
ATOM     28  C   UNL     1       2.718   6.942  19.120  0.00  0.00    +0.000 A 
ATOM     29  C   UNL     1       1.823   7.613  19.970  0.00  0.00    +0.000 A 
BRANCH  28  30
ATOM     30  S   UNL     1       3.394   5.354  19.577  0.00  0.00    +0.000 S 
ATOM     31  O   UNL     1       4.833   5.504  19.584  0.00  0.00    +0.000 OA
ATOM     32  O   UNL     1       2.677   4.884  20.742  0.00  0.00    +0.000 OA
BRANCH  30  33
ATOM     33  N   UNL     1       2.949   4.392  18.255  0.00  0.00    +0.000 NA
ATOM     34  C   UNL     1       1.498   4.092  18.077  0.00  0.00    +0.000 C 
ATOM     35  C   UNL     1       1.086   2.825  18.840  0.00  0.00    +0.000 C 
ATOM     36  O   UNL     1       1.908   1.701  18.490  0.00  0.00    +0.000 OA
ATOM     37  C   UNL     1       3.294   1.967  18.751  0.00  0.00    +0.000 C 
ATOM     38  C   UNL     1       3.779   3.187  17.966  0.00  0.00    +0.000 C 
ENDBRANCH  30  33
ENDBRANCH  28  30
ENDBRANCH   3  24
TORSDOF 7
ENDMDL
MODEL 9
REMARK VINA RESULT:      -7.4      3.095      9.981
REMARK  Name = 
REMARK  8 active torsions:
REMARK  status: ('A' for Active; 'I' for Inactive)
REMARK    1  A    between atoms: C_1  and  N_2
REMARK    2  A    between atoms: N_2  and  C_20
REMARK    3  A    between atoms: C_3  and  C_5
REMARK    4  A    between atoms: C_9  and  S_10
REMARK    5  A    between atoms: S_10  and  N_13
REMARK    6  A    between atoms: C_21  and  N_22
REMARK    7  A    between atoms: N_23  and  C_24
REMARK    8  A    between atoms: C_24  and  C_25
REMARK                            x       y       z     vdW  Elec       q    Type
REMARK                         _______ _______ _______ _____ _____    ______ ____
ROOT
ATOM      1  C   UNL     1      -1.233  10.606  19.751  0.00  0.00    +0.000 C 
ATOM      2  N   UNL     1       0.132  10.632  20.291  0.00  0.00    +0.000 N 
ATOM      3  C   UNL     1       0.694  11.722  20.977  0.00  0.00    +0.000 C 
ATOM      4  O   UNL     1       1.916  11.827  21.132  0.00  0.00    +0.000 OA
ENDROOT
BRANCH   2   5
ATOM      5  C   UNL     1       1.018   9.739  19.653  0.00  0.00    +0.000 A 
ATOM      6  C   UNL     1       1.349   8.534  20.183  0.00  0.00    +0.000 A 
ATOM      7  N   UNL     1       2.234   7.691  19.498  0.00  0.00    +0.000 N 
ATOM      8  C   UNL     1       2.695   7.970  18.214  0.00  0.00    +0.000 A 
ATOM      9  O   UNL     1       3.420   7.234  17.559  0.00  0.00    +0.000 OA
ATOM     10  N   UNL     1       2.289   9.156  17.678  0.00  0.00    +0.000 N 
ATOM     11  C   UNL     1       1.581  10.125  18.326  0.00  0.00    +0.000 A 
ATOM     12  O   UNL     1       1.384  11.225  17.816  0.00  0.00    +0.000 OA
ATOM     13  H   UNL     1       2.650   9.382  16.766  0.00  0.00    +0.000 HD
BRANCH   6  14
ATOM     14  N   UNL     1       0.812   8.155  21.413  0.00  0.00    +0.000 N 
ATOM     15  H   UNL     1       1.452   7.544  21.917  0.00  0.00    +0.000 HD
ATOM     16  H   UNL     1      -0.101   7.718  21.323  0.00  0.00    +0.000 HD
ENDBRANCH   6  14
BRANCH   7  17
ATOM     17  C   UNL     1       2.717   6.440  20.094  0.00  0.00    +0.000 C 
BRANCH  17  18
ATOM     18  C   UNL     1       1.981   5.182  19.651  0.00  0.00    +0.000 A 
ATOM     19  C   UNL     1       1.977   4.719  18.325  0.00  0.00    +0.000 A 
ATOM     20  C   UNL     1       1.375   3.503  17.989  0.00  0.00    +0.000 A 
ATOM     21  C   UNL     1       0.762   2.729  18.970  0.00  0.00    +0.000 A 
ATOM     22  C   UNL     1       0.734   3.180  20.287  0.00  0.00    +0.000 A 
ATOM     23  C   UNL     1       1.339   4.395  20.624  0.00  0.00    +0.000 A 
ENDBRANCH  17  18
ENDBRANCH   7  17
ENDBRANCH   2   5
BRANCH   3  24
ATOM     24  C   UNL     1      -0.141  12.769  21.652  0.00  0.00    +0.000 A 
ATOM     25  C   UNL     1       0.421  14.055  21.804  0.00  0.00    +0.000 A 
ATOM     26  C   UNL     1      -0.229  15.044  22.553  0.00  0.00    +0.000 A 
ATOM     27  C   UNL     1      -1.438  14.763  23.177  0.00  0.00    +0.000 A 
ATOM     28  C   UNL     1      -1.996  13.486  23.045  0.00  0.00    +0.000 A 
ATOM     29  C   UNL     1      -1.359  12.489  22.286  0.00  0.00    +0.000 A 
BRANCH  28  30
ATOM     30  S   UNL     1      -3.536  13.152  23.883  0.00  0.00    +0.000 S 
ATOM     31  O   UNL     1      -3.655  11.712  23.970  0.00  0.00    +0.000 OA
ATOM     32  O   UNL     1      -3.591  13.988  25.063  0.00  0.00    +0.000 OA
BRANCH  30  33
ATOM     33  N   UNL     1      -4.673  13.731  22.768  0.00  0.00    +0.000 NA
ATOM     34  C   UNL     1      -5.097  15.156  22.893  0.00  0.00    +0.000 C 
ATOM     35  C   UNL     1      -6.296  15.307  23.840  0.00  0.00    +0.000 C 
ATOM     36  O   UNL     1      -7.389  14.459  23.456  0.00  0.00    +0.000 OA
ATOM     37  C   UNL     1      -6.993  13.079  23.428  0.00  0.00    +0.000 C 
ATOM     38  C   UNL     1      -5.838  12.856  22.451  0.00  0.00    +0.000 C 
ENDBRANCH  30  33
ENDBRANCH  28  30
ENDBRANCH   3  24
TORSDOF 7
ENDMDL
