MODEL 1
REMARK VINA RESULT:      -7.7      0.000      0.000
REMARK  Name = 
REMARK  10 active torsions:
REMARK  status: ('A' for Active; 'I' for Inactive)
REMARK    1  A    between atoms: C_1  and  C_2
REMARK    2  A    between atoms: C_4  and  C_5
REMARK    3  A    between atoms: N_10  and  C_11
REMARK    4  A    between atoms: C_11  and  C_12
REMARK    5  A    between atoms: C_24  and  O_25
REMARK    6  A    between atoms: O_25  and  C_26
REMARK    7  A    between atoms: C_26  and  C_27
REMARK    8  A    between atoms: C_27  and  C_28
REMARK    9  A    between atoms: C_28  and  C_29
REMARK   10  A    between atoms: C_29  and  O_30
REMARK                            x       y       z     vdW  Elec       q    Type
REMARK                         _______ _______ _______ _____ _____    ______ ____
ROOT
ATOM      1  C   UNL     1       2.500   7.665  18.304  0.00  0.00    +0.000 C 
ATOM      2  O   UNL     1       2.724   8.075  17.161  0.00  0.00    +0.000 OA
ATOM      3  N   UNL     1       1.863   8.463  19.243  0.00  0.00    +0.000 N 
ATOM      4  C   UNL     1       1.419   9.800  18.836  0.00  0.00    +0.000 C 
ATOM      5  C   UNL     1      -0.035  10.082  19.289  0.00  0.00    +0.000 C 
ATOM      6  N   UNL     1      -0.319   9.806  20.721  0.00  0.00    +0.000 NA
ATOM      7  C   UNL     1       0.129   8.429  21.012  0.00  0.00    +0.000 C 
ATOM      8  C   UNL     1       1.596   8.155  20.654  0.00  0.00    +0.000 C 
ENDROOT
BRANCH   1  12
ATOM      9  C   UNL     1       2.627   3.146  17.113  0.00  0.00    +0.000 C 
ATOM     10  C   UNL     1       2.379   3.818  18.461  0.00  0.00    +0.000 C 
ATOM     11  C   UNL     1       2.096   5.265  18.250  0.00  0.00    +0.000 C 
ATOM     12  C   UNL     1       2.905   6.245  18.661  0.00  0.00    +0.000 C 
ATOM     13  O   UNL     1       4.060   6.033  19.336  0.00  0.00    +0.000 OA
ATOM     14  C   UNL     1       4.494   4.727  19.671  0.00  0.00    +0.000 C 
ATOM     15  C   UNL     1       3.517   3.569  19.450  0.00  0.00    +0.000 C 
BRANCH  14  16
ATOM     16  O   UNL     1       5.743   4.443  19.027  0.00  0.00    +0.000 OA
BRANCH  16  17
ATOM     17  C   UNL     1       6.647   5.548  19.146  0.00  0.00    +0.000 C 
BRANCH  17  18
ATOM     18  C   UNL     1       7.330   5.795  17.808  0.00  0.00    +0.000 C 
BRANCH  18  19
ATOM     19  C   UNL     1       6.339   5.691  16.653  0.00  0.00    +0.000 C 
BRANCH  19  20
ATOM     20  C   UNL     1       6.807   4.705  15.594  0.00  0.00    +0.000 C 
BRANCH  20  21
ATOM     21  O   UNL     1       7.668   5.362  14.673  0.00  0.00    +0.000 OA
ATOM     22  H   UNL     1       8.579   5.103  14.893  0.00  0.00    +0.000 HD
ENDBRANCH  20  21
ENDBRANCH  19  20
ENDBRANCH  18  19
ENDBRANCH  17  18
ENDBRANCH  16  17
ENDBRANCH  14  16
ENDBRANCH   1  12
BRANCH   6  23
ATOM     23  C   UNL     1       0.323  10.818  21.578  0.00  0.00    +0.000 C 
BRANCH  23  24
ATOM     24  C   UNL     1      -0.638  11.796  22.226  0.00  0.00    +0.000 A 
ATOM     25  C   UNL     1      -0.360  13.182  22.225  0.00  0.00    +0.000 A 
ATOM     26  C   UNL     1      -1.213  14.092  22.860  0.00  0.00    +0.000 A 
ATOM     27  C   UNL     1      -2.339  13.590  23.478  0.00  0.00    +0.000 A 
ATOM     28  C   UNL     1      -2.631  12.248  23.469  0.00  0.00    +0.000 A 
ATOM     29  C   UNL     1      -1.806  11.327  22.856  0.00  0.00    +0.000 A 
ATOM     30  O   UNL     1      -3.788  11.965  24.126  0.00  0.00    +0.000 OA
ATOM     31  C   UNL     1      -4.184  13.282  24.557  0.00  0.00    +0.000 C 
ATOM     32  O   UNL     1      -3.270  14.320  24.149  0.00  0.00    +0.000 OA
ENDBRANCH  23  24
ENDBRANCH   6  23
TORSDOF 9
ENDMDL
MODEL 2
REMARK VINA RESULT:      -7.4      2.292     10.206
REMARK  Name = 
REMARK  10 active torsions:
REMARK  status: ('A' for Active; 'I' for Inactive)
REMARK    1  A    between atoms: C_1  and  C_2
REMARK    2  A    between atoms: C_4  and  C_5
REMARK    3  A    between atoms: N_10  and  C_11
REMARK    4  A    between atoms: C_11  and  C_12
REMARK    5  A    between atoms: C_24  and  O_25
REMARK    6  A    between atoms: O_25  and  C_26
REMARK    7  A    between atoms: C_26  and  C_27
REMARK    8  A    between atoms: C_27  and  C_28
REMARK    9  A    between atoms: C_28  and  C_29
REMARK   10  A    between atoms: C_29  and  O_30
REMARK                            x       y       z     vdW  Elec       q    Type
REMARK                         _______ _______ _______ _____ _____    ______ ____
ROOT
ATOM      1  C   UNL     1       0.834   8.393  20.911  0.00  0.00    +0.000 C 
ATOM      2  O   UNL     1       0.169   8.080  21.903  0.00  0.00    +0.000 OA
ATOM      3  N   UNL     1       1.686   7.486  20.299  0.00  0.00    +0.000 N 
ATOM      4  C   UNL     1       1.749   6.121  20.832  0.00  0.00    +0.000 C 
ATOM      5  C   UNL     1       1.662   5.062  19.705  0.00  0.00    +0.000 C 
ATOM      6  N   UNL     1       2.597   5.267  18.568  0.00  0.00    +0.000 NA
ATOM      7  C   UNL     1       2.424   6.652  18.086  0.00  0.00    +0.000 C 
ATOM      8  C   UNL     1       2.597   7.724  19.172  0.00  0.00    +0.000 C 
ENDROOT
BRANCH   1  12
ATOM      9  C   UNL     1      -1.941  11.614  18.966  0.00  0.00    +0.000 C 
ATOM     10  C   UNL     1      -0.483  11.254  18.693  0.00  0.00    +0.000 C 
ATOM     11  C   UNL     1      -0.169   9.941  19.322  0.00  0.00    +0.000 C 
ATOM     12  C   UNL     1       0.680   9.794  20.343  0.00  0.00    +0.000 C 
ATOM     13  O   UNL     1       1.367  10.818  20.902  0.00  0.00    +0.000 OA
ATOM     14  C   UNL     1       1.239  12.146  20.425  0.00  0.00    +0.000 C 
ATOM     15  C   UNL     1       0.476  12.365  19.116  0.00  0.00    +0.000 C 
BRANCH  14  16
ATOM     16  O   UNL     1       0.701  12.988  21.452  0.00  0.00    +0.000 OA
BRANCH  16  17
ATOM     17  C   UNL     1      -0.323  13.845  20.934  0.00  0.00    +0.000 C 
BRANCH  17  18
ATOM     18  C   UNL     1      -1.565  13.744  21.808  0.00  0.00    +0.000 C 
BRANCH  18  19
ATOM     19  C   UNL     1      -1.261  13.029  23.121  0.00  0.00    +0.000 C 
BRANCH  19  20
ATOM     20  C   UNL     1      -1.623  11.553  23.056  0.00  0.00    +0.000 C 
BRANCH  20  21
ATOM     21  O   UNL     1      -0.457  10.764  23.254  0.00  0.00    +0.000 OA
ATOM     22  H   UNL     1       0.301  11.372  23.302  0.00  0.00    +0.000 HD
ENDBRANCH  20  21
ENDBRANCH  19  20
ENDBRANCH  18  19
ENDBRANCH  17  18
ENDBRANCH  16  17
ENDBRANCH  14  16
ENDBRANCH   1  12
BRANCH   6  23
ATOM     23  C   UNL     1       3.979   4.963  18.977  0.00  0.00    +0.000 C 
BRANCH  23  24
ATOM     24  C   UNL     1       5.005   5.079  17.865  0.00  0.00    +0.000 A 
ATOM     25  C   UNL     1       6.131   5.920  18.014  0.00  0.00    +0.000 A 
ATOM     26  C   UNL     1       7.062   6.074  16.979  0.00  0.00    +0.000 A 
ATOM     27  C   UNL     1       6.846   5.368  15.814  0.00  0.00    +0.000 A 
ATOM     28  C   UNL     1       5.767   4.532  15.665  0.00  0.00    +0.000 A 
ATOM     29  C   UNL     1       4.830   4.365  16.665  0.00  0.00    +0.000 A 
ATOM     30  O   UNL     1       5.744   3.926  14.447  0.00  0.00    +0.000 OA
ATOM     31  C   UNL     1       6.928   4.486  13.845  0.00  0.00    +0.000 C 
ATOM     32  O   UNL     1       7.634   5.402  14.707  0.00  0.00    +0.000 OA
ENDBRANCH  23  24
ENDBRANCH   6  23
TORSDOF 9
ENDMDL
MODEL 3
REMARK VINA RESULT:      -7.3      1.271      1.531
REMARK  Name = 
REMARK  10 active torsions:
REMARK  status: ('A' for Active; 'I' for Inactive)
REMARK    1  A    between atoms: C_1  and  C_2
REMARK    2  A    between atoms: C_4  and  C_5
REMARK    3  A    between atoms: N_10  and  C_11
REMARK    4  A    between atoms: C_11  and  C_12
REMARK    5  A    between atoms: C_24  and  O_25
REMARK    6  A    between atoms: O_25  and  C_26
REMARK    7  A    between atoms: C_26  and  C_27
REMARK    8  A    between atoms: C_27  and  C_28
REMARK    9  A    between atoms: C_28  and  C_29
REMARK   10  A    between atoms: C_29  and  O_30
REMARK                            x       y       z     vdW  Elec       q    Type
REMARK                         _______ _______ _______ _____ _____    ______ ____
ROOT
ATOM      1  C   UNL     1       2.381   7.540  18.682  0.00  0.00    +0.000 C 
ATOM      2  O   UNL     1       2.643   7.862  17.519  0.00  0.00    +0.000 OA
ATOM      3  N   UNL     1       1.741   8.416  19.546  0.00  0.00    +0.000 N 
ATOM      4  C   UNL     1       1.338   9.730  19.032  0.00  0.00    +0.000 C 
ATOM      5  C   UNL     1      -0.120  10.075  19.426  0.00  0.00    +0.000 C 
ATOM      6  N   UNL     1      -0.445   9.909  20.867  0.00  0.00    +0.000 NA
ATOM      7  C   UNL     1      -0.036   8.548  21.267  0.00  0.00    +0.000 C 
ATOM      8  C   UNL     1       1.433   8.217  20.967  0.00  0.00    +0.000 C 
ENDROOT
BRANCH   1  12
ATOM      9  C   UNL     1       1.111   3.075  19.237  0.00  0.00    +0.000 C 
ATOM     10  C   UNL     1       1.936   3.998  20.130  0.00  0.00    +0.000 C 
ATOM     11  C   UNL     1       1.763   5.408  19.681  0.00  0.00    +0.000 C 
ATOM     12  C   UNL     1       2.744   6.141  19.150  0.00  0.00    +0.000 C 
ATOM     13  O   UNL     1       4.011   5.692  18.981  0.00  0.00    +0.000 OA
ATOM     14  C   UNL     1       4.395   4.387  19.378  0.00  0.00    +0.000 C 
ATOM     15  C   UNL     1       3.400   3.570  20.209  0.00  0.00    +0.000 C 
BRANCH  14  16
ATOM     16  O   UNL     1       4.818   3.630  18.237  0.00  0.00    +0.000 OA
BRANCH  16  17
ATOM     17  C   UNL     1       5.553   4.448  17.319  0.00  0.00    +0.000 C 
BRANCH  17  18
ATOM     18  C   UNL     1       6.999   4.562  17.780  0.00  0.00    +0.000 C 
BRANCH  18  19
ATOM     19  C   UNL     1       7.482   6.009  17.735  0.00  0.00    +0.000 C 
BRANCH  19  20
ATOM     20  C   UNL     1       8.017   6.468  19.082  0.00  0.00    +0.000 C 
BRANCH  20  21
ATOM     21  O   UNL     1       7.688   5.511  20.081  0.00  0.00    +0.000 OA
ATOM     22  H   UNL     1       7.843   5.928  20.946  0.00  0.00    +0.000 HD
ENDBRANCH  20  21
ENDBRANCH  19  20
ENDBRANCH  18  19
ENDBRANCH  17  18
ENDBRANCH  16  17
ENDBRANCH  14  16
ENDBRANCH   1  12
BRANCH   6  23
ATOM     23  C   UNL     1       0.200  10.966  21.665  0.00  0.00    +0.000 C 
BRANCH  23  24
ATOM     24  C   UNL     1      -0.764  11.933  22.326  0.00  0.00    +0.000 A 
ATOM     25  C   UNL     1      -0.484  13.318  22.353  0.00  0.00    +0.000 A 
ATOM     26  C   UNL     1      -1.341  14.217  23.000  0.00  0.00    +0.000 A 
ATOM     27  C   UNL     1      -2.471  13.705  23.601  0.00  0.00    +0.000 A 
ATOM     28  C   UNL     1      -2.765  12.364  23.564  0.00  0.00    +0.000 A 
ATOM     29  C   UNL     1      -1.936  11.453  22.939  0.00  0.00    +0.000 A 
ATOM     30  O   UNL     1      -3.926  12.069  24.208  0.00  0.00    +0.000 OA
ATOM     31  C   UNL     1      -4.323  13.378  24.662  0.00  0.00    +0.000 C 
ATOM     32  O   UNL     1      -3.405  14.423  24.280  0.00  0.00    +0.000 OA
ENDBRANCH  23  24
ENDBRANCH   6  23
TORSDOF 9
ENDMDL
MODEL 4
REMARK VINA RESULT:      -7.3      1.394      1.630
REMARK  Name = 
REMARK  10 active torsions:
REMARK  status: ('A' for Active; 'I' for Inactive)
REMARK    1  A    between atoms: C_1  and  C_2
REMARK    2  A    between atoms: C_4  and  C_5
REMARK    3  A    between atoms: N_10  and  C_11
REMARK    4  A    between atoms: C_11  and  C_12
REMARK    5  A    between atoms: C_24  and  O_25
REMARK    6  A    between atoms: O_25  and  C_26
REMARK    7  A    between atoms: C_26  and  C_27
REMARK    8  A    between atoms: C_27  and  C_28
REMARK    9  A    between atoms: C_28  and  C_29
REMARK   10  A    between atoms: C_29  and  O_30
REMARK                            x       y       z     vdW  Elec       q    Type
REMARK                         _______ _______ _______ _____ _____    ______ ____
ROOT
ATOM      1  C   UNL     1       2.435   7.894  18.299  0.00  0.00    +0.000 C 
ATOM      2  O   UNL     1       2.515   8.413  17.181  0.00  0.00    +0.000 OA
ATOM      3  N   UNL     1       1.795   8.539  19.348  0.00  0.00    +0.000 N 
ATOM      4  C   UNL     1       1.173   9.842  19.088  0.00  0.00    +0.000 C 
ATOM      5  C   UNL     1      -0.260   9.917  19.671  0.00  0.00    +0.000 C 
ATOM      6  N   UNL     1      -0.390   9.502  21.093  0.00  0.00    +0.000 NA
ATOM      7  C   UNL     1       0.231   8.170  21.233  0.00  0.00    +0.000 C 
ATOM      8  C   UNL     1       1.684   8.097  20.743  0.00  0.00    +0.000 C 
ENDROOT
BRANCH   1  12
ATOM      9  C   UNL     1       2.276   3.322  17.336  0.00  0.00    +0.000 C 
ATOM     10  C   UNL     1       2.585   4.060  18.636  0.00  0.00    +0.000 C 
ATOM     11  C   UNL     1       2.167   5.484  18.511  0.00  0.00    +0.000 C 
ATOM     12  C   UNL     1       3.023   6.509  18.503  0.00  0.00    +0.000 C 
ATOM     13  O   UNL     1       4.364   6.369  18.633  0.00  0.00    +0.000 OA
ATOM     14  C   UNL     1       4.965   5.097  18.801  0.00  0.00    +0.000 C 
ATOM     15  C   UNL     1       4.045   3.900  19.059  0.00  0.00    +0.000 C 
BRANCH  14  16
ATOM     16  O   UNL     1       5.838   4.815  17.700  0.00  0.00    +0.000 OA
BRANCH  16  17
ATOM     17  C   UNL     1       7.181   5.224  17.989  0.00  0.00    +0.000 C 
BRANCH  17  18
ATOM     18  C   UNL     1       7.434   6.602  17.394  0.00  0.00    +0.000 C 
BRANCH  18  19
ATOM     19  C   UNL     1       8.140   7.514  18.392  0.00  0.00    +0.000 C 
BRANCH  19  20
ATOM     20  C   UNL     1       8.156   8.961  17.922  0.00  0.00    +0.000 C 
BRANCH  20  21
ATOM     21  O   UNL     1       8.911   9.752  18.830  0.00  0.00    +0.000 OA
ATOM     22  H   UNL     1       9.340  10.456  18.314  0.00  0.00    +0.000 HD
ENDBRANCH  20  21
ENDBRANCH  19  20
ENDBRANCH  18  19
ENDBRANCH  17  18
ENDBRANCH  16  17
ENDBRANCH  14  16
ENDBRANCH   1  12
BRANCH   6  23
ATOM     23  C   UNL     1       0.206  10.516  21.981  0.00  0.00    +0.000 C 
BRANCH  23  24
ATOM     24  C   UNL     1      -0.752  11.603  22.428  0.00  0.00    +0.000 A 
ATOM     25  C   UNL     1      -0.441  12.965  22.212  0.00  0.00    +0.000 A 
ATOM     26  C   UNL     1      -1.292  13.982  22.661  0.00  0.00    +0.000 A 
ATOM     27  C   UNL     1      -2.449  13.608  23.311  0.00  0.00    +0.000 A 
ATOM     28  C   UNL     1      -2.773  12.288  23.509  0.00  0.00    +0.000 A 
ATOM     29  C   UNL     1      -1.950  11.264  23.083  0.00  0.00    +0.000 A 
ATOM     30  O   UNL     1      -3.957  12.136  24.161  0.00  0.00    +0.000 OA
ATOM     31  C   UNL     1      -4.335  13.513  24.359  0.00  0.00    +0.000 C 
ATOM     32  O   UNL     1      -3.383  14.454  23.821  0.00  0.00    +0.000 OA
ENDBRANCH  23  24
ENDBRANCH   6  23
TORSDOF 9
ENDMDL
MODEL 5
REMARK VINA RESULT:      -7.2      3.203     10.085
REMARK  Name = 
REMARK  10 active torsions:
REMARK  status: ('A' for Active; 'I' for Inactive)
REMARK    1  A    between atoms: C_1  and  C_2
REMARK    2  A    between atoms: C_4  and  C_5
REMARK    3  A    between atoms: N_10  and  C_11
REMARK    4  A    between atoms: C_11  and  C_12
REMARK    5  A    between atoms: C_24  and  O_25
REMARK    6  A    between atoms: O_25  and  C_26
REMARK    7  A    between atoms: C_26  and  C_27
REMARK    8  A    between atoms: C_27  and  C_28
REMARK    9  A    between atoms: C_28  and  C_29
REMARK   10  A    between atoms: C_29  and  O_30
REMARK                            x       y       z     vdW  Elec       q    Type
REMARK                         _______ _______ _______ _____ _____    ______ ____
ROOT
ATOM      1  C   UNL     1       0.459   8.800  20.904  0.00  0.00    +0.000 C 
ATOM      2  O   UNL     1      -0.159   8.461  21.918  0.00  0.00    +0.000 OA
ATOM      3  N   UNL     1       1.426   7.979  20.342  0.00  0.00    +0.000 N 
ATOM      4  C   UNL     1       1.673   6.671  20.957  0.00  0.00    +0.000 C 
ATOM      5  C   UNL     1       1.730   5.543  19.897  0.00  0.00    +0.000 C 
ATOM      6  N   UNL     1       2.630   5.802  18.742  0.00  0.00    +0.000 NA
ATOM      7  C   UNL     1       2.271   7.119  18.178  0.00  0.00    +0.000 C 
ATOM      8  C   UNL     1       2.296   8.268  19.195  0.00  0.00    +0.000 C 
ENDROOT
BRANCH   1  12
ATOM      9  C   UNL     1       1.927  12.615  18.635  0.00  0.00    +0.000 C 
ATOM     10  C   UNL     1       0.869  12.443  19.723  0.00  0.00    +0.000 C 
ATOM     11  C   UNL     1       1.021  11.104  20.357  0.00  0.00    +0.000 C 
ATOM     12  C   UNL     1       0.116  10.128  20.252  0.00  0.00    +0.000 C 
ATOM     13  O   UNL     1      -1.052  10.256  19.578  0.00  0.00    +0.000 OA
ATOM     14  C   UNL     1      -1.408  11.466  18.932  0.00  0.00    +0.000 C 
ATOM     15  C   UNL     1      -0.544  12.701  19.201  0.00  0.00    +0.000 C 
BRANCH  14  16
ATOM     16  O   UNL     1      -1.531  11.253  17.520  0.00  0.00    +0.000 OA
BRANCH  16  17
ATOM     17  C   UNL     1      -1.767   9.871  17.226  0.00  0.00    +0.000 C 
BRANCH  17  18
ATOM     18  C   UNL     1      -2.624   9.754  15.973  0.00  0.00    +0.000 C 
BRANCH  18  19
ATOM     19  C   UNL     1      -3.283  11.086  15.628  0.00  0.00    +0.000 C 
BRANCH  19  20
ATOM     20  C   UNL     1      -4.579  11.290  16.396  0.00  0.00    +0.000 C 
BRANCH  20  21
ATOM     21  O   UNL     1      -4.388  12.269  17.409  0.00  0.00    +0.000 OA
ATOM     22  H   UNL     1      -5.139  12.885  17.362  0.00  0.00    +0.000 HD
ENDBRANCH  20  21
ENDBRANCH  19  20
ENDBRANCH  18  19
ENDBRANCH  17  18
ENDBRANCH  16  17
ENDBRANCH  14  16
ENDBRANCH   1  12
BRANCH   6  23
ATOM     23  C   UNL     1       4.040   5.714  19.158  0.00  0.00    +0.000 C 
BRANCH  23  24
ATOM     24  C   UNL     1       5.026   5.569  18.014  0.00  0.00    +0.000 A 
ATOM     25  C   UNL     1       6.315   6.144  18.102  0.00  0.00    +0.000 A 
ATOM     26  C   UNL     1       7.219   6.059  17.036  0.00  0.00    +0.000 A 
ATOM     27  C   UNL     1       6.811   5.386  15.903  0.00  0.00    +0.000 A 
ATOM     28  C   UNL     1       5.570   4.805  15.813  0.00  0.00    +0.000 A 
ATOM     29  C   UNL     1       4.656   4.878  16.845  0.00  0.00    +0.000 A 
ATOM     30  O   UNL     1       5.372   4.186  14.619  0.00  0.00    +0.000 OA
ATOM     31  C   UNL     1       6.628   4.453  13.964  0.00  0.00    +0.000 C 
ATOM     32  O   UNL     1       7.548   5.213  14.773  0.00  0.00    +0.000 OA
ENDBRANCH  23  24
ENDBRANCH   6  23
TORSDOF 9
ENDMDL
MODEL 6
REMARK VINA RESULT:      -7.2      1.240      1.852
REMARK  Name = 
REMARK  10 active torsions:
REMARK  status: ('A' for Active; 'I' for Inactive)
REMARK    1  A    between atoms: C_1  and  C_2
REMARK    2  A    between atoms: C_4  and  C_5
REMARK    3  A    between atoms: N_10  and  C_11
REMARK    4  A    between atoms: C_11  and  C_12
REMARK    5  A    between atoms: C_24  and  O_25
REMARK    6  A    between atoms: O_25  and  C_26
REMARK    7  A    between atoms: C_26  and  C_27
REMARK    8  A    between atoms: C_27  and  C_28
REMARK    9  A    between atoms: C_28  and  C_29
REMARK   10  A    between atoms: C_29  and  O_30
REMARK                            x       y       z     vdW  Elec       q    Type
REMARK                         _______ _______ _______ _____ _____    ______ ____
ROOT
ATOM      1  C   UNL     1       2.310   7.280  19.042  0.00  0.00    +0.000 C 
ATOM      2  O   UNL     1       2.670   7.564  17.896  0.00  0.00    +0.000 OA
ATOM      3  N   UNL     1       1.677   8.213  19.851  0.00  0.00    +0.000 N 
ATOM      4  C   UNL     1       1.403   9.543  19.296  0.00  0.00    +0.000 C 
ATOM      5  C   UNL     1      -0.050   9.995  19.587  0.00  0.00    +0.000 C 
ATOM      6  N   UNL     1      -0.480   9.876  21.005  0.00  0.00    +0.000 NA
ATOM      7  C   UNL     1      -0.195   8.496  21.448  0.00  0.00    +0.000 C 
ATOM      8  C   UNL     1       1.263   8.059  21.251  0.00  0.00    +0.000 C 
ENDROOT
BRANCH   1  12
ATOM      9  C   UNL     1       0.861   2.840  19.254  0.00  0.00    +0.000 C 
ATOM     10  C   UNL     1       1.507   3.732  20.311  0.00  0.00    +0.000 C 
ATOM     11  C   UNL     1       1.458   5.152  19.860  0.00  0.00    +0.000 C 
ATOM     12  C   UNL     1       2.542   5.867  19.550  0.00  0.00    +0.000 C 
ATOM     13  O   UNL     1       3.807   5.391  19.633  0.00  0.00    +0.000 OA
ATOM     14  C   UNL     1       4.076   4.072  20.078  0.00  0.00    +0.000 C 
ATOM     15  C   UNL     1       2.917   3.269  20.676  0.00  0.00    +0.000 C 
BRANCH  14  16
ATOM     16  O   UNL     1       4.705   3.319  19.032  0.00  0.00    +0.000 OA
BRANCH  16  17
ATOM     17  C   UNL     1       5.270   4.186  18.042  0.00  0.00    +0.000 C 
BRANCH  17  18
ATOM     18  C   UNL     1       4.582   3.951  16.704  0.00  0.00    +0.000 C 
BRANCH  18  19
ATOM     19  C   UNL     1       5.455   4.417  15.543  0.00  0.00    +0.000 C 
BRANCH  19  20
ATOM     20  C   UNL     1       6.924   4.481  15.932  0.00  0.00    +0.000 C 
BRANCH  20  21
ATOM     21  O   UNL     1       7.487   5.706  15.481  0.00  0.00    +0.000 OA
ATOM     22  H   UNL     1       7.479   5.688  14.508  0.00  0.00    +0.000 HD
ENDBRANCH  20  21
ENDBRANCH  19  20
ENDBRANCH  18  19
ENDBRANCH  17  18
ENDBRANCH  16  17
ENDBRANCH  14  16
ENDBRANCH   1  12
BRANCH   6  23
ATOM     23  C   UNL     1       0.184  10.899  21.832  0.00  0.00    +0.000 C 
BRANCH  23  24
ATOM     24  C   UNL     1      -0.745  11.965  22.380  0.00  0.00    +0.000 A 
ATOM     25  C   UNL     1      -1.944  11.603  23.037  0.00  0.00    +0.000 A 
ATOM     26  C   UNL     1      -2.834  12.577  23.506  0.00  0.00    +0.000 A 
ATOM     27  C   UNL     1      -2.495  13.900  23.315  0.00  0.00    +0.000 A 
ATOM     28  C   UNL     1      -1.324  14.265  22.698  0.00  0.00    +0.000 A 
ATOM     29  C   UNL     1      -0.430  13.328  22.219  0.00  0.00    +0.000 A 
ATOM     30  O   UNL     1      -1.178  15.615  22.618  0.00  0.00    +0.000 OA
ATOM     31  C   UNL     1      -2.398  16.056  23.247  0.00  0.00    +0.000 C 
ATOM     32  O   UNL     1      -3.239  14.973  23.694  0.00  0.00    +0.000 OA
ENDBRANCH  23  24
ENDBRANCH   6  23
TORSDOF 9
ENDMDL
MODEL 7
REMARK VINA RESULT:      -7.1      0.973      1.649
REMARK  Name = 
REMARK  10 active torsions:
REMARK  status: ('A' for Active; 'I' for Inactive)
REMARK    1  A    between atoms: C_1  and  C_2
REMARK    2  A    between atoms: C_4  and  C_5
REMARK    3  A    between atoms: N_10  and  C_11
REMARK    4  A    between atoms: C_11  and  C_12
REMARK    5  A    between atoms: C_24  and  O_25
REMARK    6  A    between atoms: O_25  and  C_26
REMARK    7  A    between atoms: C_26  and  C_27
REMARK    8  A    between atoms: C_27  and  C_28
REMARK    9  A    between atoms: C_28  and  C_29
REMARK   10  A    between atoms: C_29  and  O_30
REMARK                            x       y       z     vdW  Elec       q    Type
REMARK                         _______ _______ _______ _____ _____    ______ ____
ROOT
ATOM      1  C   UNL     1       2.275   7.935  18.464  0.00  0.00    +0.000 C 
ATOM      2  O   UNL     1       2.420   8.423  17.339  0.00  0.00    +0.000 OA
ATOM      3  N   UNL     1       1.640   8.637  19.478  0.00  0.00    +0.000 N 
ATOM      4  C   UNL     1       1.101   9.966  19.172  0.00  0.00    +0.000 C 
ATOM      5  C   UNL     1      -0.343  10.133  19.706  0.00  0.00    +0.000 C 
ATOM      6  N   UNL     1      -0.541   9.759  21.131  0.00  0.00    +0.000 NA
ATOM      7  C   UNL     1      -0.002   8.397  21.318  0.00  0.00    +0.000 C 
ATOM      8  C   UNL     1       1.460   8.233  20.878  0.00  0.00    +0.000 C 
ENDROOT
BRANCH   1  12
ATOM      9  C   UNL     1       2.157   3.404  17.316  0.00  0.00    +0.000 C 
ATOM     10  C   UNL     1       2.253   4.088  18.678  0.00  0.00    +0.000 C 
ATOM     11  C   UNL     1       1.905   5.530  18.535  0.00  0.00    +0.000 C 
ATOM     12  C   UNL     1       2.778   6.523  18.716  0.00  0.00    +0.000 C 
ATOM     13  O   UNL     1       4.071   6.333  19.073  0.00  0.00    +0.000 OA
ATOM     14  C   UNL     1       4.595   5.035  19.297  0.00  0.00    +0.000 C 
ATOM     15  C   UNL     1       3.610   3.863  19.343  0.00  0.00    +0.000 C 
BRANCH  14  16
ATOM     16  O   UNL     1       5.641   4.758  18.356  0.00  0.00    +0.000 OA
BRANCH  16  17
ATOM     17  C   UNL     1       5.333   5.303  17.067  0.00  0.00    +0.000 C 
BRANCH  17  18
ATOM     18  C   UNL     1       5.567   4.247  15.997  0.00  0.00    +0.000 C 
BRANCH  18  19
ATOM     19  C   UNL     1       6.973   4.352  15.415  0.00  0.00    +0.000 C 
BRANCH  19  20
ATOM     20  C   UNL     1       6.957   4.891  13.993  0.00  0.00    +0.000 C 
BRANCH  20  21
ATOM     21  O   UNL     1       8.153   5.618  13.742  0.00  0.00    +0.000 OA
ATOM     22  H   UNL     1       8.891   4.986  13.787  0.00  0.00    +0.000 HD
ENDBRANCH  20  21
ENDBRANCH  19  20
ENDBRANCH  18  19
ENDBRANCH  17  18
ENDBRANCH  16  17
ENDBRANCH  14  16
ENDBRANCH   1  12
BRANCH   6  23
ATOM     23  C   UNL     1       0.082  10.757  22.017  0.00  0.00    +0.000 C 
BRANCH  23  24
ATOM     24  C   UNL     1      -0.854  11.852  22.489  0.00  0.00    +0.000 A 
ATOM     25  C   UNL     1      -2.085  11.527  23.105  0.00  0.00    +0.000 A 
ATOM     26  C   UNL     1      -2.981  12.526  23.503  0.00  0.00    +0.000 A 
ATOM     27  C   UNL     1      -2.616  13.838  23.284  0.00  0.00    +0.000 A 
ATOM     28  C   UNL     1      -1.415  14.168  22.707  0.00  0.00    +0.000 A 
ATOM     29  C   UNL     1      -0.514  13.204  22.298  0.00  0.00    +0.000 A 
ATOM     30  O   UNL     1      -1.247  15.512  22.589  0.00  0.00    +0.000 OA
ATOM     31  C   UNL     1      -2.486  15.989  23.151  0.00  0.00    +0.000 C 
ATOM     32  O   UNL     1      -3.361  14.932  23.596  0.00  0.00    +0.000 OA
ENDBRANCH  23  24
ENDBRANCH   6  23
TORSDOF 9
ENDMDL
MODEL 8
REMARK VINA RESULT:      -7.1      0.967      1.201
REMARK  Name = 
REMARK  10 active torsions:
REMARK  status: ('A' for Active; 'I' for Inactive)
REMARK    1  A    between atoms: C_1  and  C_2
REMARK    2  A    between atoms: C_4  and  C_5
REMARK    3  A    between atoms: N_10  and  C_11
REMARK    4  A    between atoms: C_11  and  C_12
REMARK    5  A    between atoms: C_24  and  O_25
REMARK    6  A    between atoms: O_25  and  C_26
REMARK    7  A    between atoms: C_26  and  C_27
REMARK    8  A    between atoms: C_27  and  C_28
REMARK    9  A    between atoms: C_28  and  C_29
REMARK   10  A    between atoms: C_29  and  O_30
REMARK                            x       y       z     vdW  Elec       q    Type
REMARK                         _______ _______ _______ _____ _____    ______ ____
ROOT
ATOM      1  C   UNL     1       2.409   7.490  18.668  0.00  0.00    +0.000 C 
ATOM      2  O   UNL     1       2.689   7.831  17.515  0.00  0.00    +0.000 OA
ATOM      3  N   UNL     1       1.767   8.358  19.540  0.00  0.00    +0.000 N 
ATOM      4  C   UNL     1       1.387   9.686  19.047  0.00  0.00    +0.000 C 
ATOM      5  C   UNL     1      -0.072  10.041  19.428  0.00  0.00    +0.000 C 
ATOM      6  N   UNL     1      -0.418   9.852  20.862  0.00  0.00    +0.000 NA
ATOM      7  C   UNL     1      -0.031   8.478  21.241  0.00  0.00    +0.000 C 
ATOM      8  C   UNL     1       1.438   8.135  20.954  0.00  0.00    +0.000 C 
ENDROOT
BRANCH   1  12
ATOM      9  C   UNL     1       1.184   2.984  18.886  0.00  0.00    +0.000 C 
ATOM     10  C   UNL     1       1.884   3.880  19.905  0.00  0.00    +0.000 C 
ATOM     11  C   UNL     1       1.731   5.306  19.500  0.00  0.00    +0.000 C 
ATOM     12  C   UNL     1       2.748   6.078  19.114  0.00  0.00    +0.000 C 
ATOM     13  O   UNL     1       4.036   5.660  19.069  0.00  0.00    +0.000 OA
ATOM     14  C   UNL     1       4.402   4.344  19.451  0.00  0.00    +0.000 C 
ATOM     15  C   UNL     1       3.340   3.474  20.128  0.00  0.00    +0.000 C 
BRANCH  14  16
ATOM     16  O   UNL     1       4.966   3.647  18.333  0.00  0.00    +0.000 OA
BRANCH  16  17
ATOM     17  C   UNL     1       4.561   4.244  17.095  0.00  0.00    +0.000 C 
BRANCH  17  18
ATOM     18  C   UNL     1       5.534   3.846  15.994  0.00  0.00    +0.000 C 
BRANCH  18  19
ATOM     19  C   UNL     1       6.783   4.722  16.016  0.00  0.00    +0.000 C 
BRANCH  19  20
ATOM     20  C   UNL     1       6.469   6.141  16.465  0.00  0.00    +0.000 C 
BRANCH  20  21
ATOM     21  O   UNL     1       7.678   6.835  16.742  0.00  0.00    +0.000 OA
ATOM     22  H   UNL     1       8.393   6.374  16.270  0.00  0.00    +0.000 HD
ENDBRANCH  20  21
ENDBRANCH  19  20
ENDBRANCH  18  19
ENDBRANCH  17  18
ENDBRANCH  16  17
ENDBRANCH  14  16
ENDBRANCH   1  12
BRANCH   6  23
ATOM     23  C   UNL     1       0.229  10.885  21.689  0.00  0.00    +0.000 C 
BRANCH  23  24
ATOM     24  C   UNL     1      -0.730  11.871  22.329  0.00  0.00    +0.000 A 
ATOM     25  C   UNL     1      -0.427  13.251  22.356  0.00  0.00    +0.000 A 
ATOM     26  C   UNL     1      -1.279  14.167  22.985  0.00  0.00    +0.000 A 
ATOM     27  C   UNL     1      -2.429  13.676  23.567  0.00  0.00    +0.000 A 
ATOM     28  C   UNL     1      -2.745  12.341  23.529  0.00  0.00    +0.000 A 
ATOM     29  C   UNL     1      -1.922  11.414  22.922  0.00  0.00    +0.000 A 
ATOM     30  O   UNL     1      -3.923  12.069  24.152  0.00  0.00    +0.000 OA
ATOM     31  C   UNL     1      -4.306  13.386  24.595  0.00  0.00    +0.000 C 
ATOM     32  O   UNL     1      -3.362  14.413  24.226  0.00  0.00    +0.000 OA
ENDBRANCH  23  24
ENDBRANCH   6  23
TORSDOF 9
ENDMDL
MODEL 9
REMARK VINA RESULT:      -7.1      3.006      4.373
REMARK  Name = 
REMARK  10 active torsions:
REMARK  status: ('A' for Active; 'I' for Inactive)
REMARK    1  A    between atoms: C_1  and  C_2
REMARK    2  A    between atoms: C_4  and  C_5
REMARK    3  A    between atoms: N_10  and  C_11
REMARK    4  A    between atoms: C_11  and  C_12
REMARK    5  A    between atoms: C_24  and  O_25
REMARK    6  A    between atoms: O_25  and  C_26
REMARK    7  A    between atoms: C_26  and  C_27
REMARK    8  A    between atoms: C_27  and  C_28
REMARK    9  A    between atoms: C_28  and  C_29
REMARK   10  A    between atoms: C_29  and  O_30
REMARK                            x       y       z     vdW  Elec       q    Type
REMARK                         _______ _______ _______ _____ _____    ______ ____
ROOT
ATOM      1  C   UNL     1       3.788   5.486  18.841  0.00  0.00    +0.000 C 
ATOM      2  O   UNL     1       3.592   4.763  19.822  0.00  0.00    +0.000 OA
ATOM      3  N   UNL     1       2.952   6.556  18.555  0.00  0.00    +0.000 N 
ATOM      4  C   UNL     1       1.844   6.839  19.474  0.00  0.00    +0.000 C 
ATOM      5  C   UNL     1       1.764   8.345  19.826  0.00  0.00    +0.000 C 
ATOM      6  N   UNL     1       1.782   9.270  18.663  0.00  0.00    +0.000 NA
ATOM      7  C   UNL     1       2.952   8.924  17.830  0.00  0.00    +0.000 C 
ATOM      8  C   UNL     1       3.001   7.453  17.394  0.00  0.00    +0.000 C 
ENDROOT
BRANCH   1  12
ATOM      9  C   UNL     1       5.464   4.495  14.590  0.00  0.00    +0.000 C 
ATOM     10  C   UNL     1       5.882   3.997  15.971  0.00  0.00    +0.000 C 
ATOM     11  C   UNL     1       4.823   4.334  16.963  0.00  0.00    +0.000 C 
ATOM     12  C   UNL     1       4.993   5.207  17.959  0.00  0.00    +0.000 C 
ATOM     13  O   UNL     1       6.154   5.864  18.193  0.00  0.00    +0.000 OA
ATOM     14  C   UNL     1       7.300   5.657  17.384  0.00  0.00    +0.000 C 
ATOM     15  C   UNL     1       7.265   4.505  16.375  0.00  0.00    +0.000 C 
BRANCH  14  16
ATOM     16  O   UNL     1       7.662   6.876  16.724  0.00  0.00    +0.000 OA
BRANCH  16  17
ATOM     17  C   UNL     1       7.269   8.018  17.495  0.00  0.00    +0.000 C 
BRANCH  17  18
ATOM     18  C   UNL     1       8.431   8.470  18.368  0.00  0.00    +0.000 C 
BRANCH  18  19
ATOM     19  C   UNL     1       8.677   9.969  18.227  0.00  0.00    +0.000 C 
BRANCH  19  20
ATOM     20  C   UNL     1       9.458  10.526  19.408  0.00  0.00    +0.000 C 
BRANCH  20  21
ATOM     21  O   UNL     1       9.277  11.934  19.482  0.00  0.00    +0.000 OA
ATOM     22  H   UNL     1      10.160  12.338  19.526  0.00  0.00    +0.000 HD
ENDBRANCH  20  21
ENDBRANCH  19  20
ENDBRANCH  18  19
ENDBRANCH  17  18
ENDBRANCH  16  17
ENDBRANCH  14  16
ENDBRANCH   1  12
BRANCH   6  23
ATOM     23  C   UNL     1       0.507   9.201  17.929  0.00  0.00    +0.000 C 
BRANCH  23  24
ATOM     24  C   UNL     1      -0.545  10.187  18.400  0.00  0.00    +0.000 A 
ATOM     25  C   UNL     1      -0.230  11.159  19.378  0.00  0.00    +0.000 A 
ATOM     26  C   UNL     1      -1.202  12.045  19.858  0.00  0.00    +0.000 A 
ATOM     27  C   UNL     1      -2.474  11.944  19.335  0.00  0.00    +0.000 A 
ATOM     28  C   UNL     1      -2.788  11.018  18.369  0.00  0.00    +0.000 A 
ATOM     29  C   UNL     1      -1.852  10.128  17.883  0.00  0.00    +0.000 A 
ATOM     30  O   UNL     1      -4.091  11.091  17.985  0.00  0.00    +0.000 OA
ATOM     31  C   UNL     1      -4.562  12.162  18.827  0.00  0.00    +0.000 C 
ATOM     32  O   UNL     1      -3.541  12.710  19.686  0.00  0.00    +0.000 OA
ENDBRANCH  23  24
ENDBRANCH   6  23
TORSDOF 9
ENDMDL
