MODEL 1
REMARK VINA RESULT:      -7.9      0.000      0.000
REMARK  Name = 
REMARK  5 active torsions:
REMARK  status: ('A' for Active; 'I' for Inactive)
REMARK    1  A    between atoms: C_1  and  C_2
REMARK    2  A    between atoms: C_6  and  C_7
REMARK    3  A    between atoms: C_7  and  N_8
REMARK    4  A    between atoms: C_13  and  C_14
REMARK    5  A    between atoms: C_15  and  C_16
REMARK                            x       y       z     vdW  Elec       q    Type
REMARK                         _______ _______ _______ _____ _____    ______ ____
ROOT
ATOM      1  N   UNL     1       2.558   7.749  18.881  0.00  0.00    +0.000 N 
ATOM      2  C   UNL     1       2.604   8.500  17.734  0.00  0.00    +0.000 A 
ATOM      3  N   UNL     1       1.625   9.348  17.630  0.00  0.00    +0.000 NA
ATOM      4  C   UNL     1       1.065   9.338  18.869  0.00  0.00    +0.000 A 
ATOM      5  C   UNL     1       0.139  10.261  19.340  0.00  0.00    +0.000 A 
ATOM      6  C   UNL     1       0.030  10.413  20.721  0.00  0.00    +0.000 A 
ATOM      7  C   UNL     1      -0.297  11.803  21.202  0.00  0.00    +0.000 C 
ATOM      8  C   UNL     1       0.424   9.361  21.574  0.00  0.00    +0.000 A 
ATOM      9  C   UNL     1      -0.052   9.401  23.018  0.00  0.00    +0.000 C 
ATOM     10  C   UNL     1       1.195   8.268  21.060  0.00  0.00    +0.000 A 
ATOM     11  C   UNL     1       1.633   8.366  19.715  0.00  0.00    +0.000 A 
ENDROOT
BRANCH   1  12
ATOM     12  C   UNL     1       3.236   6.451  18.933  0.00  0.00    +0.000 C 
BRANCH  12  18
ATOM     13  C   UNL     1       1.357   2.651  21.792  0.00  0.00    +0.000 C 
ATOM     14  C   UNL     1       1.523   3.328  20.458  0.00  0.00    +0.000 A 
ATOM     15  C   UNL     1       1.023   2.719  19.306  0.00  0.00    +0.000 A 
ATOM     16  C   UNL     1       1.168   3.346  18.069  0.00  0.00    +0.000 A 
ATOM     17  C   UNL     1       1.835   4.563  17.944  0.00  0.00    +0.000 A 
ATOM     18  C   UNL     1       2.362   5.212  19.063  0.00  0.00    +0.000 A 
ATOM     19  C   UNL     1       2.172   4.582  20.331  0.00  0.00    +0.000 A 
ENDBRANCH  12  18
ENDBRANCH   1  12
TORSDOF 2
ENDMDL
MODEL 2
REMARK VINA RESULT:      -7.8      4.712      7.054
REMARK  Name = 
REMARK  5 active torsions:
REMARK  status: ('A' for Active; 'I' for Inactive)
REMARK    1  A    between atoms: C_1  and  C_2
REMARK    2  A    between atoms: C_6  and  C_7
REMARK    3  A    between atoms: C_7  and  N_8
REMARK    4  A    between atoms: C_13  and  C_14
REMARK    5  A    between atoms: C_15  and  C_16
REMARK                            x       y       z     vdW  Elec       q    Type
REMARK                         _______ _______ _______ _____ _____    ______ ____
ROOT
ATOM      1  N   UNL     1       5.628   4.991  16.955  0.00  0.00    +0.000 N 
ATOM      2  C   UNL     1       5.477   6.350  17.054  0.00  0.00    +0.000 A 
ATOM      3  N   UNL     1       4.246   6.721  17.252  0.00  0.00    +0.000 NA
ATOM      4  C   UNL     1       3.610   5.559  17.553  0.00  0.00    +0.000 A 
ATOM      5  C   UNL     1       2.331   5.458  18.088  0.00  0.00    +0.000 A 
ATOM      6  C   UNL     1       2.013   4.287  18.774  0.00  0.00    +0.000 A 
ATOM      7  C   UNL     1       1.070   4.447  19.937  0.00  0.00    +0.000 C 
ATOM      8  C   UNL     1       2.721   3.099  18.496  0.00  0.00    +0.000 A 
ATOM      9  C   UNL     1       2.115   1.785  18.964  0.00  0.00    +0.000 C 
ATOM     10  C   UNL     1       3.939   3.147  17.743  0.00  0.00    +0.000 A 
ATOM     11  C   UNL     1       4.440   4.431  17.411  0.00  0.00    +0.000 A 
ENDROOT
BRANCH   1  12
ATOM     12  C   UNL     1       6.787   4.434  16.251  0.00  0.00    +0.000 C 
BRANCH  12  18
ATOM     13  C   UNL     1       5.091   2.723  11.740  0.00  0.00    +0.000 C 
ATOM     14  C   UNL     1       6.001   3.610  12.547  0.00  0.00    +0.000 A 
ATOM     15  C   UNL     1       6.971   4.378  11.901  0.00  0.00    +0.000 A 
ATOM     16  C   UNL     1       7.812   5.206  12.643  0.00  0.00    +0.000 A 
ATOM     17  C   UNL     1       7.731   5.266  14.032  0.00  0.00    +0.000 A 
ATOM     18  C   UNL     1       6.784   4.514  14.731  0.00  0.00    +0.000 A 
ATOM     19  C   UNL     1       5.901   3.699  13.958  0.00  0.00    +0.000 A 
ENDBRANCH  12  18
ENDBRANCH   1  12
TORSDOF 2
ENDMDL
MODEL 3
REMARK VINA RESULT:      -7.6      3.017      4.863
REMARK  Name = 
REMARK  5 active torsions:
REMARK  status: ('A' for Active; 'I' for Inactive)
REMARK    1  A    between atoms: C_1  and  C_2
REMARK    2  A    between atoms: C_6  and  C_7
REMARK    3  A    between atoms: C_7  and  N_8
REMARK    4  A    between atoms: C_13  and  C_14
REMARK    5  A    between atoms: C_15  and  C_16
REMARK                            x       y       z     vdW  Elec       q    Type
REMARK                         _______ _______ _______ _____ _____    ______ ____
ROOT
ATOM      1  N   UNL     1       2.522   4.598  18.811  0.00  0.00    +0.000 N 
ATOM      2  C   UNL     1       2.036   4.055  19.974  0.00  0.00    +0.000 A 
ATOM      3  N   UNL     1       1.890   4.924  20.929  0.00  0.00    +0.000 NA
ATOM      4  C   UNL     1       2.036   6.118  20.297  0.00  0.00    +0.000 A 
ATOM      5  C   UNL     1       1.721   7.358  20.838  0.00  0.00    +0.000 A 
ATOM      6  C   UNL     1       1.467   8.401  19.948  0.00  0.00    +0.000 A 
ATOM      7  C   UNL     1       0.436   9.404  20.395  0.00  0.00    +0.000 C 
ATOM      8  C   UNL     1       2.000   8.353  18.644  0.00  0.00    +0.000 A 
ATOM      9  C   UNL     1       2.031   9.644  17.841  0.00  0.00    +0.000 C 
ATOM     10  C   UNL     1       2.546   7.130  18.134  0.00  0.00    +0.000 A 
ATOM     11  C   UNL     1       2.409   5.976  18.946  0.00  0.00    +0.000 A 
ENDROOT
BRANCH   1  12
ATOM     12  C   UNL     1       3.211   3.745  17.839  0.00  0.00    +0.000 C 
BRANCH  12  18
ATOM     13  C   UNL     1       6.625   4.419  14.092  0.00  0.00    +0.000 C 
ATOM     14  C   UNL     1       6.265   4.428  15.554  0.00  0.00    +0.000 A 
ATOM     15  C   UNL     1       7.255   4.663  16.509  0.00  0.00    +0.000 A 
ATOM     16  C   UNL     1       6.925   4.679  17.864  0.00  0.00    +0.000 A 
ATOM     17  C   UNL     1       5.625   4.432  18.298  0.00  0.00    +0.000 A 
ATOM     18  C   UNL     1       4.597   4.182  17.386  0.00  0.00    +0.000 A 
ATOM     19  C   UNL     1       4.937   4.208  15.999  0.00  0.00    +0.000 A 
ENDBRANCH  12  18
ENDBRANCH   1  12
TORSDOF 2
ENDMDL
MODEL 4
REMARK VINA RESULT:      -7.5      2.837      4.558
REMARK  Name = 
REMARK  5 active torsions:
REMARK  status: ('A' for Active; 'I' for Inactive)
REMARK    1  A    between atoms: C_1  and  C_2
REMARK    2  A    between atoms: C_6  and  C_7
REMARK    3  A    between atoms: C_7  and  N_8
REMARK    4  A    between atoms: C_13  and  C_14
REMARK    5  A    between atoms: C_15  and  C_16
REMARK                            x       y       z     vdW  Elec       q    Type
REMARK                         _______ _______ _______ _____ _____    ______ ____
ROOT
ATOM      1  N   UNL     1       2.575   4.620  18.722  0.00  0.00    +0.000 N 
ATOM      2  C   UNL     1       2.121   4.054  19.886  0.00  0.00    +0.000 A 
ATOM      3  N   UNL     1       1.985   4.907  20.858  0.00  0.00    +0.000 NA
ATOM      4  C   UNL     1       2.103   6.112  20.240  0.00  0.00    +0.000 A 
ATOM      5  C   UNL     1       1.783   7.340  20.807  0.00  0.00    +0.000 A 
ATOM      6  C   UNL     1       1.496   8.392  19.939  0.00  0.00    +0.000 A 
ATOM      7  C   UNL     1       0.462   9.375  20.424  0.00  0.00    +0.000 C 
ATOM      8  C   UNL     1       2.001   8.371  18.623  0.00  0.00    +0.000 A 
ATOM      9  C   UNL     1       1.997   9.674  17.839  0.00  0.00    +0.000 C 
ATOM     10  C   UNL     1       2.551   7.163  18.082  0.00  0.00    +0.000 A 
ATOM     11  C   UNL     1       2.447   5.995  18.880  0.00  0.00    +0.000 A 
ENDROOT
BRANCH   1  12
ATOM     12  C   UNL     1       3.253   3.791  17.722  0.00  0.00    +0.000 C 
BRANCH  12  18
ATOM     13  C   UNL     1       7.739   5.687  19.281  0.00  0.00    +0.000 C 
ATOM     14  C   UNL     1       6.874   5.086  18.206  0.00  0.00    +0.000 A 
ATOM     15  C   UNL     1       7.367   4.965  16.907  0.00  0.00    +0.000 A 
ATOM     16  C   UNL     1       6.571   4.403  15.909  0.00  0.00    +0.000 A 
ATOM     17  C   UNL     1       5.269   3.982  16.170  0.00  0.00    +0.000 A 
ATOM     18  C   UNL     1       4.722   4.087  17.451  0.00  0.00    +0.000 A 
ATOM     19  C   UNL     1       5.559   4.626  18.474  0.00  0.00    +0.000 A 
ENDBRANCH  12  18
ENDBRANCH   1  12
TORSDOF 2
ENDMDL
MODEL 5
REMARK VINA RESULT:      -7.4      2.940      6.039
REMARK  Name = 
REMARK  5 active torsions:
REMARK  status: ('A' for Active; 'I' for Inactive)
REMARK    1  A    between atoms: C_1  and  C_2
REMARK    2  A    between atoms: C_6  and  C_7
REMARK    3  A    between atoms: C_7  and  N_8
REMARK    4  A    between atoms: C_13  and  C_14
REMARK    5  A    between atoms: C_15  and  C_16
REMARK                            x       y       z     vdW  Elec       q    Type
REMARK                         _______ _______ _______ _____ _____    ______ ____
ROOT
ATOM      1  N   UNL     1       3.259   6.617  18.540  0.00  0.00    +0.000 N 
ATOM      2  C   UNL     1       2.725   7.480  19.464  0.00  0.00    +0.000 A 
ATOM      3  N   UNL     1       1.756   6.960  20.158  0.00  0.00    +0.000 NA
ATOM      4  C   UNL     1       1.831   5.636  19.863  0.00  0.00    +0.000 A 
ATOM      5  C   UNL     1       1.169   4.622  20.545  0.00  0.00    +0.000 A 
ATOM      6  C   UNL     1       1.697   3.335  20.454  0.00  0.00    +0.000 A 
ATOM      7  C   UNL     1       1.541   2.476  21.681  0.00  0.00    +0.000 C 
ATOM      8  C   UNL     1       2.504   2.987  19.351  0.00  0.00    +0.000 A 
ATOM      9  C   UNL     1       2.745   1.510  19.085  0.00  0.00    +0.000 C 
ATOM     10  C   UNL     1       3.021   4.007  18.487  0.00  0.00    +0.000 A 
ATOM     11  C   UNL     1       2.784   5.352  18.866  0.00  0.00    +0.000 A 
ENDROOT
BRANCH   1  12
ATOM     12  C   UNL     1       3.966   7.146  17.370  0.00  0.00    +0.000 C 
BRANCH  12  18
ATOM     13  C   UNL     1       6.152   4.077  13.914  0.00  0.00    +0.000 C 
ATOM     14  C   UNL     1       6.198   4.816  15.224  0.00  0.00    +0.000 A 
ATOM     15  C   UNL     1       7.289   4.646  16.078  0.00  0.00    +0.000 A 
ATOM     16  C   UNL     1       7.339   5.333  17.290  0.00  0.00    +0.000 A 
ATOM     17  C   UNL     1       6.301   6.171  17.693  0.00  0.00    +0.000 A 
ATOM     18  C   UNL     1       5.182   6.372  16.881  0.00  0.00    +0.000 A 
ATOM     19  C   UNL     1       5.159   5.695  15.624  0.00  0.00    +0.000 A 
ENDBRANCH  12  18
ENDBRANCH   1  12
TORSDOF 2
ENDMDL
MODEL 6
REMARK VINA RESULT:      -7.1      4.488      7.377
REMARK  Name = 
REMARK  5 active torsions:
REMARK  status: ('A' for Active; 'I' for Inactive)
REMARK    1  A    between atoms: C_1  and  C_2
REMARK    2  A    between atoms: C_6  and  C_7
REMARK    3  A    between atoms: C_7  and  N_8
REMARK    4  A    between atoms: C_13  and  C_14
REMARK    5  A    between atoms: C_15  and  C_16
REMARK                            x       y       z     vdW  Elec       q    Type
REMARK                         _______ _______ _______ _____ _____    ______ ____
ROOT
ATOM      1  N   UNL     1       5.197   5.978  16.743  0.00  0.00    +0.000 N 
ATOM      2  C   UNL     1       6.317   6.710  17.045  0.00  0.00    +0.000 A 
ATOM      3  N   UNL     1       7.383   6.306  16.420  0.00  0.00    +0.000 NA
ATOM      4  C   UNL     1       6.896   5.451  15.483  0.00  0.00    +0.000 A 
ATOM      5  C   UNL     1       7.613   4.948  14.404  0.00  0.00    +0.000 A 
ATOM      6  C   UNL     1       6.885   4.499  13.303  0.00  0.00    +0.000 A 
ATOM      7  C   UNL     1       7.537   4.705  11.961  0.00  0.00    +0.000 C 
ATOM      8  C   UNL     1       5.546   4.089  13.470  0.00  0.00    +0.000 A 
ATOM      9  C   UNL     1       4.912   3.264  12.361  0.00  0.00    +0.000 C 
ATOM     10  C   UNL     1       4.844   4.400  14.680  0.00  0.00    +0.000 A 
ATOM     11  C   UNL     1       5.513   5.226  15.618  0.00  0.00    +0.000 A 
ENDROOT
BRANCH   1  12
ATOM     12  C   UNL     1       4.072   5.943  17.682  0.00  0.00    +0.000 C 
BRANCH  12  18
ATOM     13  C   UNL     1       0.563   2.406  18.830  0.00  0.00    +0.000 C 
ATOM     14  C   UNL     1       1.974   2.924  18.908  0.00  0.00    +0.000 A 
ATOM     15  C   UNL     1       2.915   2.258  19.693  0.00  0.00    +0.000 A 
ATOM     16  C   UNL     1       4.225   2.731  19.762  0.00  0.00    +0.000 A 
ATOM     17  C   UNL     1       4.618   3.884  19.086  0.00  0.00    +0.000 A 
ATOM     18  C   UNL     1       3.715   4.595  18.292  0.00  0.00    +0.000 A 
ATOM     19  C   UNL     1       2.386   4.079  18.195  0.00  0.00    +0.000 A 
ENDBRANCH  12  18
ENDBRANCH   1  12
TORSDOF 2
ENDMDL
MODEL 7
REMARK VINA RESULT:      -7.0      2.397      3.567
REMARK  Name = 
REMARK  5 active torsions:
REMARK  status: ('A' for Active; 'I' for Inactive)
REMARK    1  A    between atoms: C_1  and  C_2
REMARK    2  A    between atoms: C_6  and  C_7
REMARK    3  A    between atoms: C_7  and  N_8
REMARK    4  A    between atoms: C_13  and  C_14
REMARK    5  A    between atoms: C_15  and  C_16
REMARK                            x       y       z     vdW  Elec       q    Type
REMARK                         _______ _______ _______ _____ _____    ______ ____
ROOT
ATOM      1  N   UNL     1       2.873   7.175  18.809  0.00  0.00    +0.000 N 
ATOM      2  C   UNL     1       3.089   7.895  17.661  0.00  0.00    +0.000 A 
ATOM      3  N   UNL     1       2.229   8.853  17.482  0.00  0.00    +0.000 NA
ATOM      4  C   UNL     1       1.589   8.932  18.678  0.00  0.00    +0.000 A 
ATOM      5  C   UNL     1       0.752   9.968  19.075  0.00  0.00    +0.000 A 
ATOM      6  C   UNL     1       0.567  10.155  20.444  0.00  0.00    +0.000 A 
ATOM      7  C   UNL     1       0.379  11.582  20.888  0.00  0.00    +0.000 C 
ATOM      8  C   UNL     1       0.771   9.078  21.331  0.00  0.00    +0.000 A 
ATOM      9  C   UNL     1       0.206   9.200  22.738  0.00  0.00    +0.000 C 
ATOM     10  C   UNL     1       1.437   7.892  20.882  0.00  0.00    +0.000 A 
ATOM     11  C   UNL     1       1.975   7.913  19.571  0.00  0.00    +0.000 A 
ENDROOT
BRANCH   1  12
ATOM     12  C   UNL     1       3.384   5.806  18.920  0.00  0.00    +0.000 C 
BRANCH  12  18
ATOM     13  C   UNL     1       5.981   3.971  14.915  0.00  0.00    +0.000 C 
ATOM     14  C   UNL     1       5.951   4.530  16.312  0.00  0.00    +0.000 A 
ATOM     15  C   UNL     1       7.130   4.599  17.056  0.00  0.00    +0.000 A 
ATOM     16  C   UNL     1       7.108   5.122  18.348  0.00  0.00    +0.000 A 
ATOM     17  C   UNL     1       5.922   5.553  18.938  0.00  0.00    +0.000 A 
ATOM     18  C   UNL     1       4.712   5.500  18.242  0.00  0.00    +0.000 A 
ATOM     19  C   UNL     1       4.751   5.000  16.905  0.00  0.00    +0.000 A 
ENDBRANCH  12  18
ENDBRANCH   1  12
TORSDOF 2
ENDMDL
MODEL 8
REMARK VINA RESULT:      -7.0      1.691      6.331
REMARK  Name = 
REMARK  5 active torsions:
REMARK  status: ('A' for Active; 'I' for Inactive)
REMARK    1  A    between atoms: C_1  and  C_2
REMARK    2  A    between atoms: C_6  and  C_7
REMARK    3  A    between atoms: C_7  and  N_8
REMARK    4  A    between atoms: C_13  and  C_14
REMARK    5  A    between atoms: C_15  and  C_16
REMARK                            x       y       z     vdW  Elec       q    Type
REMARK                         _______ _______ _______ _____ _____    ______ ____
ROOT
ATOM      1  N   UNL     1       3.544   6.753  17.721  0.00  0.00    +0.000 N 
ATOM      2  C   UNL     1       4.913   6.716  17.638  0.00  0.00    +0.000 A 
ATOM      3  N   UNL     1       5.442   5.700  18.253  0.00  0.00    +0.000 NA
ATOM      4  C   UNL     1       4.374   4.904  18.524  0.00  0.00    +0.000 A 
ATOM      5  C   UNL     1       4.445   3.582  18.950  0.00  0.00    +0.000 A 
ATOM      6  C   UNL     1       3.331   2.775  18.724  0.00  0.00    +0.000 A 
ATOM      7  C   UNL     1       3.623   1.326  18.435  0.00  0.00    +0.000 C 
ATOM      8  C   UNL     1       2.059   3.364  18.570  0.00  0.00    +0.000 A 
ATOM      9  C   UNL     1       0.839   2.467  18.707  0.00  0.00    +0.000 C 
ATOM     10  C   UNL     1       1.941   4.776  18.354  0.00  0.00    +0.000 A 
ATOM     11  C   UNL     1       3.146   5.503  18.184  0.00  0.00    +0.000 A 
ENDROOT
BRANCH   1  12
ATOM     12  C   UNL     1       2.835   8.024  17.552  0.00  0.00    +0.000 C 
BRANCH  12  18
ATOM     13  C   UNL     1      -0.838  11.139  19.271  0.00  0.00    +0.000 C 
ATOM     14  C   UNL     1       0.140  10.018  19.496  0.00  0.00    +0.000 A 
ATOM     15  C   UNL     1       0.292   9.477  20.774  0.00  0.00    +0.000 A 
ATOM     16  C   UNL     1       1.191   8.434  20.987  0.00  0.00    +0.000 A 
ATOM     17  C   UNL     1       1.978   7.930  19.953  0.00  0.00    +0.000 A 
ATOM     18  C   UNL     1       1.873   8.439  18.657  0.00  0.00    +0.000 A 
ATOM     19  C   UNL     1       0.920   9.480  18.440  0.00  0.00    +0.000 A 
ENDBRANCH  12  18
ENDBRANCH   1  12
TORSDOF 2
ENDMDL
MODEL 9
REMARK VINA RESULT:      -7.0      4.274      7.087
REMARK  Name = 
REMARK  5 active torsions:
REMARK  status: ('A' for Active; 'I' for Inactive)
REMARK    1  A    between atoms: C_1  and  C_2
REMARK    2  A    between atoms: C_6  and  C_7
REMARK    3  A    between atoms: C_7  and  N_8
REMARK    4  A    between atoms: C_13  and  C_14
REMARK    5  A    between atoms: C_15  and  C_16
REMARK                            x       y       z     vdW  Elec       q    Type
REMARK                         _______ _______ _______ _____ _____    ______ ____
ROOT
ATOM      1  N   UNL     1       4.944   6.268  16.942  0.00  0.00    +0.000 N 
ATOM      2  C   UNL     1       6.036   7.006  17.323  0.00  0.00    +0.000 A 
ATOM      3  N   UNL     1       7.155   6.570  16.826  0.00  0.00    +0.000 NA
ATOM      4  C   UNL     1       6.755   5.678  15.882  0.00  0.00    +0.000 A 
ATOM      5  C   UNL     1       7.571   5.125  14.901  0.00  0.00    +0.000 A 
ATOM      6  C   UNL     1       6.952   4.633  13.753  0.00  0.00    +0.000 A 
ATOM      7  C   UNL     1       7.736   4.778  12.476  0.00  0.00    +0.000 C 
ATOM      8  C   UNL     1       5.599   4.238  13.803  0.00  0.00    +0.000 A 
ATOM      9  C   UNL     1       5.071   3.369  12.672  0.00  0.00    +0.000 C 
ATOM     10  C   UNL     1       4.783   4.604  14.922  0.00  0.00    +0.000 A 
ATOM     11  C   UNL     1       5.363   5.465  15.887  0.00  0.00    +0.000 A 
ENDROOT
BRANCH   1  12
ATOM     12  C   UNL     1       3.732   6.279  17.765  0.00  0.00    +0.000 C 
BRANCH  12  18
ATOM     13  C   UNL     1       4.529   1.917  20.313  0.00  0.00    +0.000 C 
ATOM     14  C   UNL     1       3.658   2.789  19.449  0.00  0.00    +0.000 A 
ATOM     15  C   UNL     1       2.449   2.292  18.960  0.00  0.00    +0.000 A 
ATOM     16  C   UNL     1       1.635   3.098  18.165  0.00  0.00    +0.000 A 
ATOM     17  C   UNL     1       2.015   4.392  17.814  0.00  0.00    +0.000 A 
ATOM     18  C   UNL     1       3.218   4.937  18.269  0.00  0.00    +0.000 A 
ATOM     19  C   UNL     1       4.025   4.118  19.116  0.00  0.00    +0.000 A 
ENDBRANCH  12  18
ENDBRANCH   1  12
TORSDOF 2
ENDMDL
