MODEL 1
REMARK VINA RESULT:      -8.7      0.000      0.000
REMARK  Name = 
REMARK  8 active torsions:
REMARK  status: ('A' for Active; 'I' for Inactive)
REMARK    1  A    between atoms: C_1  and  N_2
REMARK    2  A    between atoms: N_2  and  C_3
REMARK    3  A    between atoms: N_2  and  C_4
REMARK    4  A    between atoms: C_7  and  C_8
REMARK    5  A    between atoms: C_11  and  N_12
REMARK    6  A    between atoms: N_15  and  C_16
REMARK    7  A    between atoms: C_16  and  C_17
REMARK    8  A    between atoms: N_19  and  C_20
REMARK                            x       y       z     vdW  Elec       q    Type
REMARK                         _______ _______ _______ _____ _____    ______ ____
ROOT
ATOM      1  C   UNL     1       1.956   7.193  20.133  0.00  0.00    +0.000 A 
ATOM      2  N   UNL     1       2.951   6.697  19.414  0.00  0.00    +0.000 NA
ATOM      3  C   UNL     1       3.082   5.363  19.790  0.00  0.00    +0.000 A 
ATOM      4  C   UNL     1       3.961   4.330  19.336  0.00  0.00    +0.000 A 
ATOM      5  C   UNL     1       3.741   3.089  20.001  0.00  0.00    +0.000 A 
ATOM      6 CL   UNL     1       4.748   1.691  19.778  0.00  0.00    +0.000 Cl
ATOM      7  C   UNL     1       2.732   2.948  20.963  0.00  0.00    +0.000 A 
ATOM      8  N   UNL     1       1.890   3.915  21.387  0.00  0.00    +0.000 NA
ATOM      9  C   UNL     1       2.134   5.073  20.762  0.00  0.00    +0.000 A 
ATOM     10  N   UNL     1       1.465   6.237  20.984  0.00  0.00    +0.000 N 
ATOM     11  H   UNL     1       0.734   6.354  21.665  0.00  0.00    +0.000 HD
ENDROOT
BRANCH   1  15
ATOM     12  C   UNL     1       0.380  11.233  19.992  0.00  0.00    +0.000 A 
ATOM     13  C   UNL     1       0.870  10.584  18.847  0.00  0.00    +0.000 A 
ATOM     14  C   UNL     1       1.388   9.281  18.887  0.00  0.00    +0.000 A 
ATOM     15  C   UNL     1       1.420   8.557  20.081  0.00  0.00    +0.000 A 
ATOM     16  C   UNL     1       0.927   9.174  21.230  0.00  0.00    +0.000 A 
ATOM     17  C   UNL     1       0.414  10.483  21.181  0.00  0.00    +0.000 A 
BRANCH  12  19
ATOM     18  C   UNL     1      -1.556  12.775  20.082  0.00  0.00    +0.000 C 
ATOM     19  N   UNL     1      -0.124  12.533  19.947  0.00  0.00    +0.000 N 
ATOM     20  C   UNL     1       0.671  13.586  19.322  0.00  0.00    +0.000 C 
ENDBRANCH  12  19
ENDBRANCH   1  15
BRANCH   4  21
ATOM     21  N   UNL     1       4.917   4.535  18.346  0.00  0.00    +0.000 N 
ATOM     22  C   UNL     1       4.601   4.533  16.913  0.00  0.00    +0.000 C 
ATOM     23  C   UNL     1       5.212   5.765  16.189  0.00  0.00    +0.000 C 
ATOM     24  N   UNL     1       6.647   6.050  16.459  0.00  0.00    +0.000 NA
ATOM     25  C   UNL     1       6.818   6.076  17.940  0.00  0.00    +0.000 C 
ATOM     26  C   UNL     1       6.318   4.822  18.693  0.00  0.00    +0.000 C 
BRANCH  24  27
ATOM     27  C   UNL     1       7.479   5.011  15.810  0.00  0.00    +0.000 C 
BRANCH  27  28
ATOM     28  C   UNL     1       7.098   4.791  14.349  0.00  0.00    +0.000 C 
ATOM     29  O   UNL     1       7.566   5.521  13.477  0.00  0.00    +0.000 OA
ATOM     30  N   UNL     1       6.222   3.735  14.158  0.00  0.00    +0.000 N 
ATOM     31  H   UNL     1       5.775   3.390  15.003  0.00  0.00    +0.000 HD
BRANCH  30  32
ATOM     32  C   UNL     1       5.754   3.260  12.916  0.00  0.00    +0.000 A 
ATOM     33  C   UNL     1       4.544   3.675  12.352  0.00  0.00    +0.000 A 
ATOM     34  C   UNL     1       4.102   3.151  11.135  0.00  0.00    +0.000 A 
ATOM     35  C   UNL     1       4.873   2.212  10.460  0.00  0.00    +0.000 A 
ATOM     36  C   UNL     1       6.095   1.810  10.996  0.00  0.00    +0.000 A 
ATOM     37  C   UNL     1       6.539   2.337  12.216  0.00  0.00    +0.000 A 
ENDBRANCH  30  32
ENDBRANCH  27  28
ENDBRANCH  24  27
ENDBRANCH   4  21
TORSDOF 6
ENDMDL
MODEL 2
REMARK VINA RESULT:      -8.6      0.129      1.294
REMARK  Name = 
REMARK  8 active torsions:
REMARK  status: ('A' for Active; 'I' for Inactive)
REMARK    1  A    between atoms: C_1  and  N_2
REMARK    2  A    between atoms: N_2  and  C_3
REMARK    3  A    between atoms: N_2  and  C_4
REMARK    4  A    between atoms: C_7  and  C_8
REMARK    5  A    between atoms: C_11  and  N_12
REMARK    6  A    between atoms: N_15  and  C_16
REMARK    7  A    between atoms: C_16  and  C_17
REMARK    8  A    between atoms: N_19  and  C_20
REMARK                            x       y       z     vdW  Elec       q    Type
REMARK                         _______ _______ _______ _____ _____    ______ ____
ROOT
ATOM      1  C   UNL     1       1.953   7.202  20.042  0.00  0.00    +0.000 A 
ATOM      2  N   UNL     1       2.952   6.705  19.328  0.00  0.00    +0.000 NA
ATOM      3  C   UNL     1       3.094   5.377  19.719  0.00  0.00    +0.000 A 
ATOM      4  C   UNL     1       3.982   4.347  19.277  0.00  0.00    +0.000 A 
ATOM      5  C   UNL     1       3.772   3.111  19.957  0.00  0.00    +0.000 A 
ATOM      6 CL   UNL     1       4.791   1.719  19.749  0.00  0.00    +0.000 Cl
ATOM      7  C   UNL     1       2.764   2.972  20.921  0.00  0.00    +0.000 A 
ATOM      8  N   UNL     1       1.914   3.938  21.333  0.00  0.00    +0.000 NA
ATOM      9  C   UNL     1       2.149   5.091  20.695  0.00  0.00    +0.000 A 
ATOM     10  N   UNL     1       1.469   6.251  20.903  0.00  0.00    +0.000 N 
ATOM     11  H   UNL     1       0.737   6.370  21.583  0.00  0.00    +0.000 HD
ENDROOT
BRANCH   1  15
ATOM     12  C   UNL     1       0.325  11.218  19.830  0.00  0.00    +0.000 A 
ATOM     13  C   UNL     1       0.358  10.490  21.031  0.00  0.00    +0.000 A 
ATOM     14  C   UNL     1       0.876   9.188  21.105  0.00  0.00    +0.000 A 
ATOM     15  C   UNL     1       1.406   8.561  19.974  0.00  0.00    +0.000 A 
ATOM     16  C   UNL     1       1.397   9.268  18.773  0.00  0.00    +0.000 A 
ATOM     17  C   UNL     1       0.872  10.571  18.708  0.00  0.00    +0.000 A 
BRANCH  12  19
ATOM     18  C   UNL     1       0.682  13.669  19.794  0.00  0.00    +0.000 C 
ATOM     19  N   UNL     1      -0.201  12.508  19.762  0.00  0.00    +0.000 N 
ATOM     20  C   UNL     1      -1.600  12.729  20.118  0.00  0.00    +0.000 C 
ENDBRANCH  12  19
ENDBRANCH   1  15
BRANCH   4  21
ATOM     21  N   UNL     1       4.936   4.548  18.285  0.00  0.00    +0.000 N 
ATOM     22  C   UNL     1       4.616   4.550  16.853  0.00  0.00    +0.000 C 
ATOM     23  C   UNL     1       5.231   5.779  16.129  0.00  0.00    +0.000 C 
ATOM     24  N   UNL     1       6.668   6.057  16.395  0.00  0.00    +0.000 NA
ATOM     25  C   UNL     1       6.844   6.079  17.877  0.00  0.00    +0.000 C 
ATOM     26  C   UNL     1       6.339   4.827  18.628  0.00  0.00    +0.000 C 
BRANCH  24  27
ATOM     27  C   UNL     1       7.493   5.014  15.743  0.00  0.00    +0.000 C 
BRANCH  27  28
ATOM     28  C   UNL     1       7.082   4.772  14.293  0.00  0.00    +0.000 C 
ATOM     29  O   UNL     1       7.471   5.536  13.411  0.00  0.00    +0.000 OA
ATOM     30  N   UNL     1       6.276   3.658  14.125  0.00  0.00    +0.000 N 
ATOM     31  H   UNL     1       5.881   3.281  14.981  0.00  0.00    +0.000 HD
BRANCH  30  32
ATOM     32  C   UNL     1       5.803   3.156  12.895  0.00  0.00    +0.000 A 
ATOM     33  C   UNL     1       6.491   2.190  12.155  0.00  0.00    +0.000 A 
ATOM     34  C   UNL     1       6.002   1.748  10.923  0.00  0.00    +0.000 A 
ATOM     35  C   UNL     1       4.810   2.258  10.423  0.00  0.00    +0.000 A 
ATOM     36  C   UNL     1       4.099   3.200  11.164  0.00  0.00    +0.000 A 
ATOM     37  C   UNL     1       4.588   3.643  12.400  0.00  0.00    +0.000 A 
ENDBRANCH  30  32
ENDBRANCH  27  28
ENDBRANCH  24  27
ENDBRANCH   4  21
TORSDOF 6
ENDMDL
MODEL 3
REMARK VINA RESULT:      -8.1      4.881     10.210
REMARK  Name = 
REMARK  8 active torsions:
REMARK  status: ('A' for Active; 'I' for Inactive)
REMARK    1  A    between atoms: C_1  and  N_2
REMARK    2  A    between atoms: N_2  and  C_3
REMARK    3  A    between atoms: N_2  and  C_4
REMARK    4  A    between atoms: C_7  and  C_8
REMARK    5  A    between atoms: C_11  and  N_12
REMARK    6  A    between atoms: N_15  and  C_16
REMARK    7  A    between atoms: C_16  and  C_17
REMARK    8  A    between atoms: N_19  and  C_20
REMARK                            x       y       z     vdW  Elec       q    Type
REMARK                         _______ _______ _______ _____ _____    ______ ____
ROOT
ATOM      1  C   UNL     1       1.316   8.338  20.464  0.00  0.00    +0.000 A 
ATOM      2  N   UNL     1       1.443   9.607  20.109  0.00  0.00    +0.000 NA
ATOM      3  C   UNL     1       0.652  10.343  20.986  0.00  0.00    +0.000 A 
ATOM      4  C   UNL     1       0.420  11.750  21.103  0.00  0.00    +0.000 A 
ATOM      5  C   UNL     1      -0.474  12.073  22.166  0.00  0.00    +0.000 A 
ATOM      6 CL   UNL     1      -1.068  13.678  22.463  0.00  0.00    +0.000 Cl
ATOM      7  C   UNL     1      -1.009  11.078  22.995  0.00  0.00    +0.000 A 
ATOM      8  N   UNL     1      -0.783   9.749  22.898  0.00  0.00    +0.000 NA
ATOM      9  C   UNL     1       0.041   9.474  21.879  0.00  0.00    +0.000 A 
ATOM     10  N   UNL     1       0.443   8.227  21.516  0.00  0.00    +0.000 N 
ATOM     11  H   UNL     1       0.138   7.377  21.959  0.00  0.00    +0.000 HD
ENDROOT
BRANCH   1  15
ATOM     12  C   UNL     1       3.278   4.913  18.662  0.00  0.00    +0.000 A 
ATOM     13  C   UNL     1       2.631   4.832  19.906  0.00  0.00    +0.000 A 
ATOM     14  C   UNL     1       2.001   5.937  20.499  0.00  0.00    +0.000 A 
ATOM     15  C   UNL     1       1.975   7.178  19.856  0.00  0.00    +0.000 A 
ATOM     16  C   UNL     1       2.597   7.280  18.612  0.00  0.00    +0.000 A 
ATOM     17  C   UNL     1       3.229   6.168  18.029  0.00  0.00    +0.000 A 
BRANCH  12  19
ATOM     18  C   UNL     1       4.544   3.927  16.776  0.00  0.00    +0.000 C 
ATOM     19  N   UNL     1       3.910   3.812  18.085  0.00  0.00    +0.000 N 
ATOM     20  C   UNL     1       3.561   2.469  18.537  0.00  0.00    +0.000 C 
ENDBRANCH  12  19
ENDBRANCH   1  15
BRANCH   4  21
ATOM     21  N   UNL     1       1.017  12.685  20.265  0.00  0.00    +0.000 N 
ATOM     22  C   UNL     1       0.421  13.121  18.996  0.00  0.00    +0.000 C 
ATOM     23  C   UNL     1       0.413  14.669  18.867  0.00  0.00    +0.000 C 
ATOM     24  N   UNL     1       1.692  15.367  19.168  0.00  0.00    +0.000 NA
ATOM     25  C   UNL     1       2.157  14.876  20.498  0.00  0.00    +0.000 C 
ATOM     26  C   UNL     1       2.279  13.341  20.637  0.00  0.00    +0.000 C 
BRANCH  24  27
ATOM     27  C   UNL     1       2.665  15.087  18.088  0.00  0.00    +0.000 C 
BRANCH  27  28
ATOM     28  C   UNL     1       4.003  15.785  18.317  0.00  0.00    +0.000 C 
ATOM     29  O   UNL     1       4.057  17.013  18.339  0.00  0.00    +0.000 OA
ATOM     30  N   UNL     1       5.063  14.909  18.488  0.00  0.00    +0.000 N 
ATOM     31  H   UNL     1       4.871  13.947  18.222  0.00  0.00    +0.000 HD
BRANCH  30  32
ATOM     32  C   UNL     1       6.394  15.266  18.782  0.00  0.00    +0.000 A 
ATOM     33  C   UNL     1       6.813  15.651  20.058  0.00  0.00    +0.000 A 
ATOM     34  C   UNL     1       8.135  16.032  20.296  0.00  0.00    +0.000 A 
ATOM     35  C   UNL     1       9.061  16.019  19.259  0.00  0.00    +0.000 A 
ATOM     36  C   UNL     1       8.665  15.609  17.987  0.00  0.00    +0.000 A 
ATOM     37  C   UNL     1       7.338  15.226  17.749  0.00  0.00    +0.000 A 
ENDBRANCH  30  32
ENDBRANCH  27  28
ENDBRANCH  24  27
ENDBRANCH   4  21
TORSDOF 6
ENDMDL
MODEL 4
REMARK VINA RESULT:      -8.1      4.851     10.131
REMARK  Name = 
REMARK  8 active torsions:
REMARK  status: ('A' for Active; 'I' for Inactive)
REMARK    1  A    between atoms: C_1  and  N_2
REMARK    2  A    between atoms: N_2  and  C_3
REMARK    3  A    between atoms: N_2  and  C_4
REMARK    4  A    between atoms: C_7  and  C_8
REMARK    5  A    between atoms: C_11  and  N_12
REMARK    6  A    between atoms: N_15  and  C_16
REMARK    7  A    between atoms: C_16  and  C_17
REMARK    8  A    between atoms: N_19  and  C_20
REMARK                            x       y       z     vdW  Elec       q    Type
REMARK                         _______ _______ _______ _____ _____    ______ ____
ROOT
ATOM      1  C   UNL     1       1.263   8.375  20.480  0.00  0.00    +0.000 A 
ATOM      2  N   UNL     1       1.388   9.646  20.130  0.00  0.00    +0.000 NA
ATOM      3  C   UNL     1       0.601  10.378  21.013  0.00  0.00    +0.000 A 
ATOM      4  C   UNL     1       0.369  11.784  21.137  0.00  0.00    +0.000 A 
ATOM      5  C   UNL     1      -0.520  12.102  22.206  0.00  0.00    +0.000 A 
ATOM      6 CL   UNL     1      -1.113  13.706  22.512  0.00  0.00    +0.000 Cl
ATOM      7  C   UNL     1      -1.050  11.104  23.034  0.00  0.00    +0.000 A 
ATOM      8  N   UNL     1      -0.825   9.776  22.930  0.00  0.00    +0.000 NA
ATOM      9  C   UNL     1      -0.006   9.505  21.906  0.00  0.00    +0.000 A 
ATOM     10  N   UNL     1       0.396   8.260  21.536  0.00  0.00    +0.000 N 
ATOM     11  H   UNL     1       0.093   7.407  21.977  0.00  0.00    +0.000 HD
ENDROOT
BRANCH   1  15
ATOM     12  C   UNL     1       3.192   4.942  18.660  0.00  0.00    +0.000 A 
ATOM     13  C   UNL     1       3.207   6.210  18.058  0.00  0.00    +0.000 A 
ATOM     14  C   UNL     1       2.579   7.323  18.637  0.00  0.00    +0.000 A 
ATOM     15  C   UNL     1       1.920   7.217  19.865  0.00  0.00    +0.000 A 
ATOM     16  C   UNL     1       1.903   5.971  20.490  0.00  0.00    +0.000 A 
ATOM     17  C   UNL     1       2.532   4.861  19.899  0.00  0.00    +0.000 A 
BRANCH  12  19
ATOM     18  C   UNL     1       4.806   4.020  17.022  0.00  0.00    +0.000 C 
ATOM     19  N   UNL     1       3.810   3.838  18.073  0.00  0.00    +0.000 N 
ATOM     20  C   UNL     1       3.166   2.530  18.157  0.00  0.00    +0.000 C 
ENDBRANCH  12  19
ENDBRANCH   1  15
BRANCH   4  21
ATOM     21  N   UNL     1       0.961  12.723  20.300  0.00  0.00    +0.000 N 
ATOM     22  C   UNL     1       0.325  13.217  19.073  0.00  0.00    +0.000 C 
ATOM     23  C   UNL     1       0.368  14.768  18.989  0.00  0.00    +0.000 C 
ATOM     24  N   UNL     1       1.683  15.412  19.251  0.00  0.00    +0.000 NA
ATOM     25  C   UNL     1       2.190  14.864  20.543  0.00  0.00    +0.000 C 
ATOM     26  C   UNL     1       2.262  13.323  20.633  0.00  0.00    +0.000 C 
BRANCH  24  27
ATOM     27  C   UNL     1       2.597  15.130  18.120  0.00  0.00    +0.000 C 
BRANCH  27  28
ATOM     28  C   UNL     1       3.982  15.737  18.328  0.00  0.00    +0.000 C 
ATOM     29  O   UNL     1       4.116  16.958  18.365  0.00  0.00    +0.000 OA
ATOM     30  N   UNL     1       4.985  14.791  18.462  0.00  0.00    +0.000 N 
ATOM     31  H   UNL     1       4.726  13.847  18.188  0.00  0.00    +0.000 HD
BRANCH  30  32
ATOM     32  C   UNL     1       6.344  15.056  18.731  0.00  0.00    +0.000 A 
ATOM     33  C   UNL     1       7.310  15.160  17.727  0.00  0.00    +0.000 A 
ATOM     34  C   UNL     1       8.652  15.387  18.041  0.00  0.00    +0.000 A 
ATOM     35  C   UNL     1       9.041  15.529  19.368  0.00  0.00    +0.000 A 
ATOM     36  C   UNL     1       8.084  15.457  20.379  0.00  0.00    +0.000 A 
ATOM     37  C   UNL     1       6.738  15.229  20.062  0.00  0.00    +0.000 A 
ENDBRANCH  30  32
ENDBRANCH  27  28
ENDBRANCH  24  27
ENDBRANCH   4  21
TORSDOF 6
ENDMDL
MODEL 5
REMARK VINA RESULT:      -8.1      4.869     10.163
REMARK  Name = 
REMARK  8 active torsions:
REMARK  status: ('A' for Active; 'I' for Inactive)
REMARK    1  A    between atoms: C_1  and  N_2
REMARK    2  A    between atoms: N_2  and  C_3
REMARK    3  A    between atoms: N_2  and  C_4
REMARK    4  A    between atoms: C_7  and  C_8
REMARK    5  A    between atoms: C_11  and  N_12
REMARK    6  A    between atoms: N_15  and  C_16
REMARK    7  A    between atoms: C_16  and  C_17
REMARK    8  A    between atoms: N_19  and  C_20
REMARK                            x       y       z     vdW  Elec       q    Type
REMARK                         _______ _______ _______ _____ _____    ______ ____
ROOT
ATOM      1  C   UNL     1       1.241   8.409  20.520  0.00  0.00    +0.000 A 
ATOM      2  N   UNL     1       1.380   9.673  20.154  0.00  0.00    +0.000 NA
ATOM      3  C   UNL     1       0.592  10.424  21.022  0.00  0.00    +0.000 A 
ATOM      4  C   UNL     1       0.373  11.834  21.126  0.00  0.00    +0.000 A 
ATOM      5  C   UNL     1      -0.522  12.174  22.183  0.00  0.00    +0.000 A 
ATOM      6 CL   UNL     1      -1.102  13.787  22.464  0.00  0.00    +0.000 Cl
ATOM      7  C   UNL     1      -1.068  11.191  23.019  0.00  0.00    +0.000 A 
ATOM      8  N   UNL     1      -0.854   9.860  22.935  0.00  0.00    +0.000 NA
ATOM      9  C   UNL     1      -0.029   9.569  21.921  0.00  0.00    +0.000 A 
ATOM     10  N   UNL     1       0.364   8.315  21.570  0.00  0.00    +0.000 N 
ATOM     11  H   UNL     1       0.050   7.471  22.019  0.00  0.00    +0.000 HD
ENDROOT
BRANCH   1  15
ATOM     12  C   UNL     1       3.178   4.950  18.756  0.00  0.00    +0.000 A 
ATOM     13  C   UNL     1       2.495   4.877  19.981  0.00  0.00    +0.000 A 
ATOM     14  C   UNL     1       1.872   5.993  20.561  0.00  0.00    +0.000 A 
ATOM     15  C   UNL     1       1.891   7.237  19.924  0.00  0.00    +0.000 A 
ATOM     16  C   UNL     1       2.551   7.332  18.700  0.00  0.00    +0.000 A 
ATOM     17  C   UNL     1       3.175   6.209  18.129  0.00  0.00    +0.000 A 
BRANCH  12  19
ATOM     18  C   UNL     1       3.826   2.564  18.900  0.00  0.00    +0.000 C 
ATOM     19  N   UNL     1       3.803   3.839  18.191  0.00  0.00    +0.000 N 
ATOM     20  C   UNL     1       4.805   4.036  17.148  0.00  0.00    +0.000 C 
ENDBRANCH  12  19
ENDBRANCH   1  15
BRANCH   4  21
ATOM     21  N   UNL     1       0.981  12.756  20.281  0.00  0.00    +0.000 N 
ATOM     22  C   UNL     1       0.370  13.222  19.030  0.00  0.00    +0.000 C 
ATOM     23  C   UNL     1       0.411  14.770  18.913  0.00  0.00    +0.000 C 
ATOM     24  N   UNL     1       1.718  15.424  19.191  0.00  0.00    +0.000 NA
ATOM     25  C   UNL     1       2.198  14.906  20.505  0.00  0.00    +0.000 C 
ATOM     26  C   UNL     1       2.272  13.368  20.630  0.00  0.00    +0.000 C 
BRANCH  24  27
ATOM     27  C   UNL     1       2.657  15.121  18.086  0.00  0.00    +0.000 C 
BRANCH  27  28
ATOM     28  C   UNL     1       4.034  15.742  18.308  0.00  0.00    +0.000 C 
ATOM     29  O   UNL     1       4.152  16.965  18.364  0.00  0.00    +0.000 OA
ATOM     30  N   UNL     1       5.049  14.808  18.431  0.00  0.00    +0.000 N 
ATOM     31  H   UNL     1       4.803  13.865  18.142  0.00  0.00    +0.000 HD
BRANCH  30  32
ATOM     32  C   UNL     1       6.403  15.086  18.708  0.00  0.00    +0.000 A 
ATOM     33  C   UNL     1       7.388  15.128  17.718  0.00  0.00    +0.000 A 
ATOM     34  C   UNL     1       8.724  15.372  18.043  0.00  0.00    +0.000 A 
ATOM     35  C   UNL     1       9.090  15.592  19.366  0.00  0.00    +0.000 A 
ATOM     36  C   UNL     1       8.114  15.583  20.361  0.00  0.00    +0.000 A 
ATOM     37  C   UNL     1       6.774  15.339  20.034  0.00  0.00    +0.000 A 
ENDBRANCH  30  32
ENDBRANCH  27  28
ENDBRANCH  24  27
ENDBRANCH   4  21
TORSDOF 6
ENDMDL
MODEL 6
REMARK VINA RESULT:      -7.7      5.230      9.627
REMARK  Name = 
REMARK  8 active torsions:
REMARK  status: ('A' for Active; 'I' for Inactive)
REMARK    1  A    between atoms: C_1  and  N_2
REMARK    2  A    between atoms: N_2  and  C_3
REMARK    3  A    between atoms: N_2  and  C_4
REMARK    4  A    between atoms: C_7  and  C_8
REMARK    5  A    between atoms: C_11  and  N_12
REMARK    6  A    between atoms: N_15  and  C_16
REMARK    7  A    between atoms: C_16  and  C_17
REMARK    8  A    between atoms: N_19  and  C_20
REMARK                            x       y       z     vdW  Elec       q    Type
REMARK                         _______ _______ _______ _____ _____    ______ ____
ROOT
ATOM      1  C   UNL     1       3.990  15.405  18.702  0.00  0.00    +0.000 A 
ATOM      2  N   UNL     1       3.435  14.265  19.083  0.00  0.00    +0.000 NA
ATOM      3  C   UNL     1       2.063  14.493  19.138  0.00  0.00    +0.000 A 
ATOM      4  C   UNL     1       0.969  13.628  19.457  0.00  0.00    +0.000 A 
ATOM      5  C   UNL     1      -0.293  14.288  19.380  0.00  0.00    +0.000 A 
ATOM      6 CL   UNL     1      -1.790  13.548  19.857  0.00  0.00    +0.000 Cl
ATOM      7  C   UNL     1      -0.390  15.632  18.994  0.00  0.00    +0.000 A 
ATOM      8  N   UNL     1       0.638  16.449  18.678  0.00  0.00    +0.000 NA
ATOM      9  C   UNL     1       1.810  15.810  18.781  0.00  0.00    +0.000 A 
ATOM     10  N   UNL     1       3.027  16.369  18.544  0.00  0.00    +0.000 N 
ATOM     11  H   UNL     1       3.175  17.333  18.296  0.00  0.00    +0.000 HD
ENDROOT
BRANCH   1  15
ATOM     12  C   UNL     1       8.209  16.178  18.049  0.00  0.00    +0.000 A 
ATOM     13  C   UNL     1       7.612  14.957  17.695  0.00  0.00    +0.000 A 
ATOM     14  C   UNL     1       6.250  14.697  17.911  0.00  0.00    +0.000 A 
ATOM     15  C   UNL     1       5.415  15.665  18.476  0.00  0.00    +0.000 A 
ATOM     16  C   UNL     1       5.981  16.891  18.823  0.00  0.00    +0.000 A 
ATOM     17  C   UNL     1       7.348  17.140  18.607  0.00  0.00    +0.000 A 
BRANCH  12  19
ATOM     18  C   UNL     1      10.533  15.335  17.899  0.00  0.00    +0.000 C 
ATOM     19  N   UNL     1       9.566  16.425  17.841  0.00  0.00    +0.000 N 
ATOM     20  C   UNL     1      10.081  17.779  18.023  0.00  0.00    +0.000 C 
ENDBRANCH  12  19
ENDBRANCH   1  15
BRANCH   4  21
ATOM     21  N   UNL     1       1.139  12.290  19.797  0.00  0.00    +0.000 N 
ATOM     22  C   UNL     1       0.909  11.771  21.150  0.00  0.00    +0.000 C 
ATOM     23  C   UNL     1       0.024  10.494  21.133  0.00  0.00    +0.000 C 
ATOM     24  N   UNL     1       0.412   9.429  20.169  0.00  0.00    +0.000 NA
ATOM     25  C   UNL     1       0.560  10.078  18.834  0.00  0.00    +0.000 C 
ATOM     26  C   UNL     1       1.515  11.293  18.783  0.00  0.00    +0.000 C 
BRANCH  24  27
ATOM     27  C   UNL     1       1.666   8.791  20.630  0.00  0.00    +0.000 C 
BRANCH  27  28
ATOM     28  C   UNL     1       1.937   7.466  19.922  0.00  0.00    +0.000 C 
ATOM     29  O   UNL     1       2.287   7.462  18.743  0.00  0.00    +0.000 OA
ATOM     30  N   UNL     1       1.751   6.357  20.731  0.00  0.00    +0.000 N 
ATOM     31  H   UNL     1       1.254   6.538  21.599  0.00  0.00    +0.000 HD
BRANCH  30  32
ATOM     32  C   UNL     1       1.991   5.016  20.368  0.00  0.00    +0.000 A 
ATOM     33  C   UNL     1       3.264   4.531  20.055  0.00  0.00    +0.000 A 
ATOM     34  C   UNL     1       3.450   3.203  19.664  0.00  0.00    +0.000 A 
ATOM     35  C   UNL     1       2.364   2.338  19.597  0.00  0.00    +0.000 A 
ATOM     36  C   UNL     1       1.093   2.800  19.935  0.00  0.00    +0.000 A 
ATOM     37  C   UNL     1       0.907   4.133  20.327  0.00  0.00    +0.000 A 
ENDBRANCH  30  32
ENDBRANCH  27  28
ENDBRANCH  24  27
ENDBRANCH   4  21
TORSDOF 6
ENDMDL
MODEL 7
REMARK VINA RESULT:      -7.7      5.031     10.202
REMARK  Name = 
REMARK  8 active torsions:
REMARK  status: ('A' for Active; 'I' for Inactive)
REMARK    1  A    between atoms: C_1  and  N_2
REMARK    2  A    between atoms: N_2  and  C_3
REMARK    3  A    between atoms: N_2  and  C_4
REMARK    4  A    between atoms: C_7  and  C_8
REMARK    5  A    between atoms: C_11  and  N_12
REMARK    6  A    between atoms: N_15  and  C_16
REMARK    7  A    between atoms: C_16  and  C_17
REMARK    8  A    between atoms: N_19  and  C_20
REMARK                            x       y       z     vdW  Elec       q    Type
REMARK                         _______ _______ _______ _____ _____    ______ ____
ROOT
ATOM      1  C   UNL     1       0.957   9.174  20.640  0.00  0.00    +0.000 A 
ATOM      2  N   UNL     1       1.162  10.427  20.266  0.00  0.00    +0.000 NA
ATOM      3  C   UNL     1       0.389  11.222  21.107  0.00  0.00    +0.000 A 
ATOM      4  C   UNL     1       0.232  12.641  21.193  0.00  0.00    +0.000 A 
ATOM      5  C   UNL     1      -0.671  13.032  22.225  0.00  0.00    +0.000 A 
ATOM      6 CL   UNL     1      -1.183  14.673  22.476  0.00  0.00    +0.000 Cl
ATOM      7  C   UNL     1      -1.280  12.085  23.057  0.00  0.00    +0.000 A 
ATOM      8  N   UNL     1      -1.125  10.744  22.991  0.00  0.00    +0.000 NA
ATOM      9  C   UNL     1      -0.291  10.405  22.000  0.00  0.00    +0.000 A 
ATOM     10  N   UNL     1       0.052   9.131  21.670  0.00  0.00    +0.000 N 
ATOM     11  H   UNL     1      -0.310   8.307  22.120  0.00  0.00    +0.000 HD
ENDROOT
BRANCH   1  15
ATOM     12  C   UNL     1       2.748   5.597  18.960  0.00  0.00    +0.000 A 
ATOM     13  C   UNL     1       2.782   6.832  18.291  0.00  0.00    +0.000 A 
ATOM     14  C   UNL     1       2.198   7.991  18.825  0.00  0.00    +0.000 A 
ATOM     15  C   UNL     1       1.567   7.967  20.071  0.00  0.00    +0.000 A 
ATOM     16  C   UNL     1       1.533   6.757  20.762  0.00  0.00    +0.000 A 
ATOM     17  C   UNL     1       2.117   5.600  20.216  0.00  0.00    +0.000 A 
BRANCH  12  19
ATOM     18  C   UNL     1       2.523   3.533  17.610  0.00  0.00    +0.000 C 
ATOM     19  N   UNL     1       3.322   4.447  18.418  0.00  0.00    +0.000 N 
ATOM     20  C   UNL     1       4.546   3.914  19.008  0.00  0.00    +0.000 C 
ENDBRANCH  12  19
ENDBRANCH   1  15
BRANCH   4  21
ATOM     21  N   UNL     1       0.900  13.526  20.353  0.00  0.00    +0.000 N 
ATOM     22  C   UNL     1       0.286  14.119  19.160  0.00  0.00    +0.000 C 
ATOM     23  C   UNL     1       0.504  15.656  19.105  0.00  0.00    +0.000 C 
ATOM     24  N   UNL     1       1.893  16.139  19.335  0.00  0.00    +0.000 NA
ATOM     25  C   UNL     1       2.375  15.506  20.596  0.00  0.00    +0.000 C 
ATOM     26  C   UNL     1       2.272  13.965  20.653  0.00  0.00    +0.000 C 
BRANCH  24  27
ATOM     27  C   UNL     1       2.730  15.782  18.166  0.00  0.00    +0.000 C 
BRANCH  27  28
ATOM     28  C   UNL     1       4.207  16.093  18.395  0.00  0.00    +0.000 C 
ATOM     29  O   UNL     1       4.559  17.246  18.638  0.00  0.00    +0.000 OA
ATOM     30  N   UNL     1       5.028  14.981  18.300  0.00  0.00    +0.000 N 
ATOM     31  H   UNL     1       4.596  14.163  17.880  0.00  0.00    +0.000 HD
BRANCH  30  32
ATOM     32  C   UNL     1       6.418  14.956  18.530  0.00  0.00    +0.000 A 
ATOM     33  C   UNL     1       7.040  15.734  19.510  0.00  0.00    +0.000 A 
ATOM     34  C   UNL     1       8.427  15.705  19.677  0.00  0.00    +0.000 A 
ATOM     35  C   UNL     1       9.208  14.884  18.874  0.00  0.00    +0.000 A 
ATOM     36  C   UNL     1       8.599  14.080  17.911  0.00  0.00    +0.000 A 
ATOM     37  C   UNL     1       7.208  14.110  17.744  0.00  0.00    +0.000 A 
ENDBRANCH  30  32
ENDBRANCH  27  28
ENDBRANCH  24  27
ENDBRANCH   4  21
TORSDOF 6
ENDMDL
MODEL 8
REMARK VINA RESULT:      -7.6      0.576      1.016
REMARK  Name = 
REMARK  8 active torsions:
REMARK  status: ('A' for Active; 'I' for Inactive)
REMARK    1  A    between atoms: C_1  and  N_2
REMARK    2  A    between atoms: N_2  and  C_3
REMARK    3  A    between atoms: N_2  and  C_4
REMARK    4  A    between atoms: C_7  and  C_8
REMARK    5  A    between atoms: C_11  and  N_12
REMARK    6  A    between atoms: N_15  and  C_16
REMARK    7  A    between atoms: C_16  and  C_17
REMARK    8  A    between atoms: N_19  and  C_20
REMARK                            x       y       z     vdW  Elec       q    Type
REMARK                         _______ _______ _______ _____ _____    ______ ____
ROOT
ATOM      1  C   UNL     1       1.826   7.476  20.123  0.00  0.00    +0.000 A 
ATOM      2  N   UNL     1       2.811   6.988  19.385  0.00  0.00    +0.000 NA
ATOM      3  C   UNL     1       2.960   5.656  19.758  0.00  0.00    +0.000 A 
ATOM      4  C   UNL     1       3.839   4.630  19.286  0.00  0.00    +0.000 A 
ATOM      5  C   UNL     1       3.642   3.387  19.955  0.00  0.00    +0.000 A 
ATOM      6 CL   UNL     1       4.656   1.998  19.712  0.00  0.00    +0.000 Cl
ATOM      7  C   UNL     1       2.652   3.236  20.936  0.00  0.00    +0.000 A 
ATOM      8  N   UNL     1       1.809   4.197  21.375  0.00  0.00    +0.000 NA
ATOM      9  C   UNL     1       2.033   5.357  20.747  0.00  0.00    +0.000 A 
ATOM     10  N   UNL     1       1.358   6.515  20.982  0.00  0.00    +0.000 N 
ATOM     11  H   UNL     1       0.639   6.625  21.676  0.00  0.00    +0.000 HD
ENDROOT
BRANCH   1  15
ATOM     12  C   UNL     1       0.214  11.503  20.014  0.00  0.00    +0.000 A 
ATOM     13  C   UNL     1       0.721  10.872  18.867  0.00  0.00    +0.000 A 
ATOM     14  C   UNL     1       1.251   9.573  18.896  0.00  0.00    +0.000 A 
ATOM     15  C   UNL     1       1.278   8.836  20.082  0.00  0.00    +0.000 A 
ATOM     16  C   UNL     1       0.766   9.434  21.233  0.00  0.00    +0.000 A 
ATOM     17  C   UNL     1       0.242  10.738  21.194  0.00  0.00    +0.000 A 
BRANCH  12  19
ATOM     18  C   UNL     1      -1.743  13.021  20.020  0.00  0.00    +0.000 C 
ATOM     19  N   UNL     1      -0.302  12.798  19.980  0.00  0.00    +0.000 N 
ATOM     20  C   UNL     1       0.522  13.881  19.452  0.00  0.00    +0.000 C 
ENDBRANCH  12  19
ENDBRANCH   1  15
BRANCH   4  21
ATOM     21  N   UNL     1       4.775   4.843  18.280  0.00  0.00    +0.000 N 
ATOM     22  C   UNL     1       6.020   5.592  18.488  0.00  0.00    +0.000 C 
ATOM     23  C   UNL     1       7.251   4.827  17.928  0.00  0.00    +0.000 C 
ATOM     24  N   UNL     1       7.128   4.292  16.545  0.00  0.00    +0.000 NA
ATOM     25  C   UNL     1       5.857   3.514  16.486  0.00  0.00    +0.000 C 
ATOM     26  C   UNL     1       4.588   4.272  16.937  0.00  0.00    +0.000 C 
BRANCH  24  27
ATOM     27  C   UNL     1       7.147   5.419  15.584  0.00  0.00    +0.000 C 
BRANCH  27  28
ATOM     28  C   UNL     1       6.961   4.955  14.142  0.00  0.00    +0.000 C 
ATOM     29  O   UNL     1       7.721   5.362  13.265  0.00  0.00    +0.000 OA
ATOM     30  N   UNL     1       5.900   4.079  13.975  0.00  0.00    +0.000 N 
ATOM     31  H   UNL     1       5.256   4.030  14.760  0.00  0.00    +0.000 HD
BRANCH  30  32
ATOM     32  C   UNL     1       5.535   3.439  12.773  0.00  0.00    +0.000 A 
ATOM     33  C   UNL     1       4.356   3.735  12.083  0.00  0.00    +0.000 A 
ATOM     34  C   UNL     1       4.017   3.049  10.915  0.00  0.00    +0.000 A 
ATOM     35  C   UNL     1       4.862   2.067  10.413  0.00  0.00    +0.000 A 
ATOM     36  C   UNL     1       6.056   1.781  11.075  0.00  0.00    +0.000 A 
ATOM     37  C   UNL     1       6.396   2.470  12.246  0.00  0.00    +0.000 A 
ENDBRANCH  30  32
ENDBRANCH  27  28
ENDBRANCH  24  27
ENDBRANCH   4  21
TORSDOF 6
ENDMDL
MODEL 9
REMARK VINA RESULT:      -7.6      4.666     10.153
REMARK  Name = 
REMARK  8 active torsions:
REMARK  status: ('A' for Active; 'I' for Inactive)
REMARK    1  A    between atoms: C_1  and  N_2
REMARK    2  A    between atoms: N_2  and  C_3
REMARK    3  A    between atoms: N_2  and  C_4
REMARK    4  A    between atoms: C_7  and  C_8
REMARK    5  A    between atoms: C_11  and  N_12
REMARK    6  A    between atoms: N_15  and  C_16
REMARK    7  A    between atoms: C_16  and  C_17
REMARK    8  A    between atoms: N_19  and  C_20
REMARK                            x       y       z     vdW  Elec       q    Type
REMARK                         _______ _______ _______ _____ _____    ______ ____
ROOT
ATOM      1  C   UNL     1       1.279   8.267  20.483  0.00  0.00    +0.000 A 
ATOM      2  N   UNL     1       1.311   9.561  20.206  0.00  0.00    +0.000 NA
ATOM      3  C   UNL     1       0.511  10.188  21.156  0.00  0.00    +0.000 A 
ATOM      4  C   UNL     1       0.196  11.567  21.372  0.00  0.00    +0.000 A 
ATOM      5  C   UNL     1      -0.673  11.764  22.485  0.00  0.00    +0.000 A 
ATOM      6 CL   UNL     1      -1.355  13.306  22.905  0.00  0.00    +0.000 Cl
ATOM      7  C   UNL     1      -1.110  10.687  23.268  0.00  0.00    +0.000 A 
ATOM      8  N   UNL     1      -0.805   9.385  23.077  0.00  0.00    +0.000 NA
ATOM      9  C   UNL     1      -0.008   9.228  22.014  0.00  0.00    +0.000 A 
ATOM     10  N   UNL     1       0.458   8.034  21.557  0.00  0.00    +0.000 N 
ATOM     11  H   UNL     1       0.225   7.140  21.955  0.00  0.00    +0.000 HD
ENDROOT
BRANCH   1  15
ATOM     12  C   UNL     1       3.379   5.095  18.397  0.00  0.00    +0.000 A 
ATOM     13  C   UNL     1       2.744   4.882  19.631  0.00  0.00    +0.000 A 
ATOM     14  C   UNL     1       2.070   5.904  20.315  0.00  0.00    +0.000 A 
ATOM     15  C   UNL     1       1.985   7.192  19.779  0.00  0.00    +0.000 A 
ATOM     16  C   UNL     1       2.595   7.426  18.547  0.00  0.00    +0.000 A 
ATOM     17  C   UNL     1       3.272   6.395  17.872  0.00  0.00    +0.000 A 
BRANCH  12  19
ATOM     18  C   UNL     1       4.941   4.386  16.610  0.00  0.00    +0.000 C 
ATOM     19  N   UNL     1       4.057   4.076  17.728  0.00  0.00    +0.000 N 
ATOM     20  C   UNL     1       3.558   2.707  17.819  0.00  0.00    +0.000 C 
ENDBRANCH  12  19
ENDBRANCH   1  15
BRANCH   4  21
ATOM     21  N   UNL     1       0.698  12.589  20.574  0.00  0.00    +0.000 N 
ATOM     22  C   UNL     1       2.130  12.761  20.298  0.00  0.00    +0.000 C 
ATOM     23  C   UNL     1       2.402  12.962  18.781  0.00  0.00    +0.000 C 
ATOM     24  N   UNL     1       1.558  13.969  18.082  0.00  0.00    +0.000 NA
ATOM     25  C   UNL     1       0.136  13.649  18.402  0.00  0.00    +0.000 C 
ATOM     26  C   UNL     1      -0.202  13.542  19.907  0.00  0.00    +0.000 C 
BRANCH  24  27
ATOM     27  C   UNL     1       1.948  15.325  18.531  0.00  0.00    +0.000 C 
BRANCH  27  28
ATOM     28  C   UNL     1       3.312  15.745  17.990  0.00  0.00    +0.000 C 
ATOM     29  O   UNL     1       3.407  16.188  16.847  0.00  0.00    +0.000 OA
ATOM     30  N   UNL     1       4.345  15.572  18.898  0.00  0.00    +0.000 N 
ATOM     31  H   UNL     1       4.117  14.996  19.702  0.00  0.00    +0.000 HD
BRANCH  30  32
ATOM     32  C   UNL     1       5.692  15.935  18.698  0.00  0.00    +0.000 A 
ATOM     33  C   UNL     1       6.226  17.146  19.146  0.00  0.00    +0.000 A 
ATOM     34  C   UNL     1       7.559  17.480  18.894  0.00  0.00    +0.000 A 
ATOM     35  C   UNL     1       8.380  16.598  18.202  0.00  0.00    +0.000 A 
ATOM     36  C   UNL     1       7.868  15.373  17.774  0.00  0.00    +0.000 A 
ATOM     37  C   UNL     1       6.532  15.039  18.028  0.00  0.00    +0.000 A 
ENDBRANCH  30  32
ENDBRANCH  27  28
ENDBRANCH  24  27
ENDBRANCH   4  21
TORSDOF 6
ENDMDL
