MODEL 1
REMARK VINA RESULT:      -7.3      0.000      0.000
REMARK  Name = 
REMARK  5 active torsions:
REMARK  status: ('A' for Active; 'I' for Inactive)
REMARK    1  A    between atoms: C_1  and  C_2
REMARK    2  A    between atoms: C_8  and  C_10
REMARK    3  A    between atoms: C_14  and  C_15
REMARK    4  A    between atoms: C_22  and  C_23
REMARK    5  A    between atoms: N_25  and  C_26
REMARK                            x       y       z     vdW  Elec       q    Type
REMARK                         _______ _______ _______ _____ _____    ______ ____
ROOT
ATOM      1  C   UNL     1      -1.003  17.330  23.097  0.00  0.00    +0.000 C 
ATOM      2  C   UNL     1      -1.520  16.181  23.931  0.00  0.00    +0.000 C 
ATOM      3  O   UNL     1      -1.453  16.226  25.157  0.00  0.00    +0.000 OA
ATOM      4  N   UNL     1      -2.070  15.104  23.261  0.00  0.00    +0.000 N 
ATOM      5  C   UNL     1      -2.787  14.048  24.007  0.00  0.00    +0.000 C 
ATOM      6  C   UNL     1      -4.243  13.863  23.519  0.00  0.00    +0.000 C 
ATOM      7  N   UNL     1      -4.355  13.841  22.045  0.00  0.00    +0.000 N 
ATOM      8  C   UNL     1      -5.231  12.919  21.452  0.00  0.00    +0.000 C 
ATOM      9  O   UNL     1      -5.892  12.138  22.142  0.00  0.00    +0.000 OA
ATOM     10  C   UNL     1      -3.649  14.952  21.391  0.00  0.00    +0.000 C 
ATOM     11  C   UNL     1      -2.159  14.971  21.791  0.00  0.00    +0.000 C 
ENDROOT
BRANCH   8  12
ATOM     12  C   UNL     1      -5.436  12.828  19.967  0.00  0.00    +0.000 A 
ATOM     13  C   UNL     1      -6.496  13.528  19.385  0.00  0.00    +0.000 A 
ATOM     14  C   UNL     1      -6.739  13.428  18.003  0.00  0.00    +0.000 A 
ATOM     15  C   UNL     1      -5.931  12.620  17.193  0.00  0.00    +0.000 A 
ATOM     16  C   UNL     1      -4.887  11.891  17.757  0.00  0.00    +0.000 A 
ATOM     17  C   UNL     1      -4.689  11.998  19.138  0.00  0.00    +0.000 A 
BRANCH  16  18
ATOM     18  C   UNL     1      -4.031  10.990  16.988  0.00  0.00    +0.000 A 
ATOM     19  C   UNL     1      -3.396   9.793  17.243  0.00  0.00    +0.000 A 
ATOM     20  C   UNL     1      -2.618   9.490  16.096  0.00  0.00    +0.000 A 
ATOM     21  C   UNL     1      -2.855  10.497  15.194  0.00  0.00    +0.000 A 
ATOM     22  O   UNL     1      -3.720  11.403  15.717  0.00  0.00    +0.000 OA
ENDBRANCH  16  18
ENDBRANCH   8  12
BRANCH  11  23
ATOM     23  C   UNL     1      -1.372  13.715  21.342  0.00  0.00    +0.000 C 
ATOM     24  O   UNL     1      -0.809  12.965  22.129  0.00  0.00    +0.000 OA
ATOM     25  N   UNL     1      -1.414  13.459  19.979  0.00  0.00    +0.000 N 
ATOM     26  H   UNL     1      -1.574  14.278  19.402  0.00  0.00    +0.000 HD
BRANCH  25  27
ATOM     27  C   UNL     1      -0.633  12.417  19.427  0.00  0.00    +0.000 A 
ATOM     28  C   UNL     1      -1.069  11.085  19.422  0.00  0.00    +0.000 A 
ATOM     29  C   UNL     1      -0.227  10.069  18.959  0.00  0.00    +0.000 A 
ATOM     30  C   UNL     1       1.047  10.389  18.511  0.00  0.00    +0.000 A 
ATOM     31 CL   UNL     1       2.100   9.139  17.975  0.00  0.00    +0.000 Cl
ATOM     32  C   UNL     1       1.482  11.714  18.498  0.00  0.00    +0.000 A 
ATOM     33  C   UNL     1       0.632  12.734  18.934  0.00  0.00    +0.000 A 
ENDBRANCH  25  27
ENDBRANCH  11  23
TORSDOF 4
ENDMDL
MODEL 2
REMARK VINA RESULT:      -7.2      2.548      5.040
REMARK  Name = 
REMARK  5 active torsions:
REMARK  status: ('A' for Active; 'I' for Inactive)
REMARK    1  A    between atoms: C_1  and  C_2
REMARK    2  A    between atoms: C_8  and  C_10
REMARK    3  A    between atoms: C_14  and  C_15
REMARK    4  A    between atoms: C_22  and  C_23
REMARK    5  A    between atoms: N_25  and  C_26
REMARK                            x       y       z     vdW  Elec       q    Type
REMARK                         _______ _______ _______ _____ _____    ______ ____
ROOT
ATOM      1  C   UNL     1      -6.631  14.856  23.523  0.00  0.00    +0.000 C 
ATOM      2  C   UNL     1      -5.505  15.727  23.019  0.00  0.00    +0.000 C 
ATOM      3  O   UNL     1      -5.546  16.945  23.174  0.00  0.00    +0.000 OA
ATOM      4  N   UNL     1      -4.442  15.099  22.396  0.00  0.00    +0.000 N 
ATOM      5  C   UNL     1      -3.213  15.855  22.073  0.00  0.00    +0.000 C 
ATOM      6  C   UNL     1      -1.951  15.237  22.719  0.00  0.00    +0.000 C 
ATOM      7  N   UNL     1      -1.894  13.768  22.576  0.00  0.00    +0.000 N 
ATOM      8  C   UNL     1      -0.660  13.168  22.279  0.00  0.00    +0.000 C 
ATOM      9  O   UNL     1       0.357  13.851  22.135  0.00  0.00    +0.000 OA
ATOM     10  C   UNL     1      -3.144  13.096  22.962  0.00  0.00    +0.000 C 
ATOM     11  C   UNL     1      -4.338  13.644  22.151  0.00  0.00    +0.000 C 
ENDROOT
BRANCH   8  12
ATOM     12  C   UNL     1      -0.489  11.683  22.134  0.00  0.00    +0.000 A 
ATOM     13  C   UNL     1      -0.934  10.846  23.160  0.00  0.00    +0.000 A 
ATOM     14  C   UNL     1      -0.748   9.455  23.072  0.00  0.00    +0.000 A 
ATOM     15  C   UNL     1      -0.107   8.889  21.964  0.00  0.00    +0.000 A 
ATOM     16  C   UNL     1       0.371   9.707  20.943  0.00  0.00    +0.000 A 
ATOM     17  C   UNL     1       0.188  11.088  21.074  0.00  0.00    +0.000 A 
BRANCH  16  18
ATOM     18  C   UNL     1       1.092   9.197  19.778  0.00  0.00    +0.000 A 
ATOM     19  C   UNL     1       1.798   8.046  19.496  0.00  0.00    +0.000 A 
ATOM     20  C   UNL     1       2.355   8.216  18.202  0.00  0.00    +0.000 A 
ATOM     21  C   UNL     1       1.925   9.441  17.756  0.00  0.00    +0.000 A 
ATOM     22  O   UNL     1       1.149  10.037  18.695  0.00  0.00    +0.000 OA
ENDBRANCH  16  18
ENDBRANCH   8  12
BRANCH  11  23
ATOM     23  C   UNL     1      -4.232  13.388  20.628  0.00  0.00    +0.000 C 
ATOM     24  O   UNL     1      -4.783  14.094  19.793  0.00  0.00    +0.000 OA
ATOM     25  N   UNL     1      -3.403  12.334  20.271  0.00  0.00    +0.000 N 
ATOM     26  H   UNL     1      -3.297  11.622  20.987  0.00  0.00    +0.000 HD
BRANCH  25  27
ATOM     27  C   UNL     1      -3.323  11.917  18.922  0.00  0.00    +0.000 A 
ATOM     28  C   UNL     1      -4.467  11.722  18.135  0.00  0.00    +0.000 A 
ATOM     29  C   UNL     1      -4.352  11.213  16.839  0.00  0.00    +0.000 A 
ATOM     30  C   UNL     1      -3.097  10.895  16.338  0.00  0.00    +0.000 A 
ATOM     31 CL   UNL     1      -2.954  10.233  14.757  0.00  0.00    +0.000 Cl
ATOM     32  C   UNL     1      -1.953  11.100  17.109  0.00  0.00    +0.000 A 
ATOM     33  C   UNL     1      -2.063  11.636  18.395  0.00  0.00    +0.000 A 
ENDBRANCH  25  27
ENDBRANCH  11  23
TORSDOF 4
ENDMDL
MODEL 3
REMARK VINA RESULT:      -7.2      1.737      2.056
REMARK  Name = 
REMARK  5 active torsions:
REMARK  status: ('A' for Active; 'I' for Inactive)
REMARK    1  A    between atoms: C_1  and  C_2
REMARK    2  A    between atoms: C_8  and  C_10
REMARK    3  A    between atoms: C_14  and  C_15
REMARK    4  A    between atoms: C_22  and  C_23
REMARK    5  A    between atoms: N_25  and  C_26
REMARK                            x       y       z     vdW  Elec       q    Type
REMARK                         _______ _______ _______ _____ _____    ______ ____
ROOT
ATOM      1  C   UNL     1      -1.864  17.217  23.168  0.00  0.00    +0.000 C 
ATOM      2  C   UNL     1      -2.426  16.090  24.003  0.00  0.00    +0.000 C 
ATOM      3  O   UNL     1      -2.411  16.161  25.230  0.00  0.00    +0.000 OA
ATOM      4  N   UNL     1      -2.955  15.003  23.334  0.00  0.00    +0.000 N 
ATOM      5  C   UNL     1      -3.712  13.968  24.070  0.00  0.00    +0.000 C 
ATOM      6  C   UNL     1      -5.147  13.783  23.524  0.00  0.00    +0.000 C 
ATOM      7  N   UNL     1      -5.197  13.731  22.048  0.00  0.00    +0.000 N 
ATOM      8  C   UNL     1      -6.054  12.802  21.437  0.00  0.00    +0.000 C 
ATOM      9  O   UNL     1      -6.750  12.042  22.114  0.00  0.00    +0.000 OA
ATOM     10  C   UNL     1      -4.454  14.822  21.401  0.00  0.00    +0.000 C 
ATOM     11  C   UNL     1      -2.982  14.839  21.864  0.00  0.00    +0.000 C 
ENDROOT
BRANCH   8  12
ATOM     12  C   UNL     1      -6.196  12.682  19.946  0.00  0.00    +0.000 A 
ATOM     13  C   UNL     1      -7.378  13.114  19.340  0.00  0.00    +0.000 A 
ATOM     14  C   UNL     1      -7.557  12.973  17.952  0.00  0.00    +0.000 A 
ATOM     15  C   UNL     1      -6.561  12.391  17.159  0.00  0.00    +0.000 A 
ATOM     16  C   UNL     1      -5.386  11.927  17.747  0.00  0.00    +0.000 A 
ATOM     17  C   UNL     1      -5.252  12.063  19.133  0.00  0.00    +0.000 A 
BRANCH  16  18
ATOM     18  C   UNL     1      -4.322  11.265  16.996  0.00  0.00    +0.000 A 
ATOM     19  C   UNL     1      -4.081  11.015  15.660  0.00  0.00    +0.000 A 
ATOM     20  C   UNL     1      -2.907  10.220  15.599  0.00  0.00    +0.000 A 
ATOM     21  C   UNL     1      -2.479  10.065  16.894  0.00  0.00    +0.000 A 
ATOM     22  O   UNL     1      -3.319  10.705  17.746  0.00  0.00    +0.000 OA
ENDBRANCH  16  18
ENDBRANCH   8  12
BRANCH  11  23
ATOM     23  C   UNL     1      -2.188  13.568  21.476  0.00  0.00    +0.000 C 
ATOM     24  O   UNL     1      -2.288  13.027  20.382  0.00  0.00    +0.000 OA
ATOM     25  N   UNL     1      -1.294  13.124  22.440  0.00  0.00    +0.000 N 
ATOM     26  H   UNL     1      -1.533  13.390  23.390  0.00  0.00    +0.000 HD
BRANCH  25  27
ATOM     27  C   UNL     1      -0.603  11.903  22.261  0.00  0.00    +0.000 A 
ATOM     28  C   UNL     1       0.417  11.759  21.311  0.00  0.00    +0.000 A 
ATOM     29  C   UNL     1       1.007  10.510  21.093  0.00  0.00    +0.000 A 
ATOM     30  C   UNL     1       0.570   9.413  21.821  0.00  0.00    +0.000 A 
ATOM     31 CL   UNL     1       1.267   7.867  21.531  0.00  0.00    +0.000 Cl
ATOM     32  C   UNL     1      -0.433   9.551  22.779  0.00  0.00    +0.000 A 
ATOM     33  C   UNL     1      -1.005  10.804  23.019  0.00  0.00    +0.000 A 
ENDBRANCH  25  27
ENDBRANCH  11  23
TORSDOF 4
ENDMDL
MODEL 4
REMARK VINA RESULT:      -7.2      3.964      6.625
REMARK  Name = 
REMARK  5 active torsions:
REMARK  status: ('A' for Active; 'I' for Inactive)
REMARK    1  A    between atoms: C_1  and  C_2
REMARK    2  A    between atoms: C_8  and  C_10
REMARK    3  A    between atoms: C_14  and  C_15
REMARK    4  A    between atoms: C_22  and  C_23
REMARK    5  A    between atoms: N_25  and  C_26
REMARK                            x       y       z     vdW  Elec       q    Type
REMARK                         _______ _______ _______ _____ _____    ______ ____
ROOT
ATOM      1  C   UNL     1      -4.178  13.014  20.749  0.00  0.00    +0.000 C 
ATOM      2  C   UNL     1      -3.365  12.763  21.998  0.00  0.00    +0.000 C 
ATOM      3  O   UNL     1      -3.848  12.986  23.106  0.00  0.00    +0.000 OA
ATOM      4  N   UNL     1      -2.083  12.272  21.837  0.00  0.00    +0.000 N 
ATOM      5  C   UNL     1      -1.312  11.801  23.007  0.00  0.00    +0.000 C 
ATOM      6  C   UNL     1      -0.859  10.329  22.863  0.00  0.00    +0.000 C 
ATOM      7  N   UNL     1      -0.307  10.026  21.527  0.00  0.00    +0.000 N 
ATOM      8  C   UNL     1       0.828   9.204  21.438  0.00  0.00    +0.000 C 
ATOM      9  O   UNL     1       1.359   8.746  22.453  0.00  0.00    +0.000 OA
ATOM     10  C   UNL     1      -1.161  10.491  20.425  0.00  0.00    +0.000 C 
ATOM     11  C   UNL     1      -1.431  12.007  20.536  0.00  0.00    +0.000 C 
ENDROOT
BRANCH   8  12
ATOM     12  C   UNL     1       1.455   8.818  20.129  0.00  0.00    +0.000 A 
ATOM     13  C   UNL     1       1.384   9.707  19.055  0.00  0.00    +0.000 A 
ATOM     14  C   UNL     1       1.924   9.355  17.805  0.00  0.00    +0.000 A 
ATOM     15  C   UNL     1       2.530   8.107  17.615  0.00  0.00    +0.000 A 
ATOM     16  C   UNL     1       2.585   7.193  18.665  0.00  0.00    +0.000 A 
ATOM     17  C   UNL     1       2.019   7.569  19.887  0.00  0.00    +0.000 A 
BRANCH  16  18
ATOM     18  C   UNL     1       3.157   5.855  18.532  0.00  0.00    +0.000 A 
ATOM     19  C   UNL     1       3.717   5.131  17.500  0.00  0.00    +0.000 A 
ATOM     20  C   UNL     1       3.980   3.832  18.007  0.00  0.00    +0.000 A 
ATOM     21  C   UNL     1       3.603   3.851  19.327  0.00  0.00    +0.000 A 
ATOM     22  O   UNL     1       3.118   5.074  19.659  0.00  0.00    +0.000 OA
ENDBRANCH  16  18
ENDBRANCH   8  12
BRANCH  11  23
ATOM     23  C   UNL     1      -0.158  12.881  20.415  0.00  0.00    +0.000 C 
ATOM     24  O   UNL     1       0.425  13.348  21.385  0.00  0.00    +0.000 OA
ATOM     25  N   UNL     1       0.318  13.037  19.121  0.00  0.00    +0.000 N 
ATOM     26  H   UNL     1      -0.387  12.938  18.398  0.00  0.00    +0.000 HD
BRANCH  25  27
ATOM     27  C   UNL     1       1.397  13.915  18.861  0.00  0.00    +0.000 A 
ATOM     28  C   UNL     1       2.707  13.450  18.682  0.00  0.00    +0.000 A 
ATOM     29  C   UNL     1       3.761  14.355  18.529  0.00  0.00    +0.000 A 
ATOM     30  C   UNL     1       3.502  15.718  18.561  0.00  0.00    +0.000 A 
ATOM     31 CL   UNL     1       4.801  16.835  18.410  0.00  0.00    +0.000 Cl
ATOM     32  C   UNL     1       2.199  16.188  18.723  0.00  0.00    +0.000 A 
ATOM     33  C   UNL     1       1.140  15.286  18.849  0.00  0.00    +0.000 A 
ENDBRANCH  25  27
ENDBRANCH  11  23
TORSDOF 4
ENDMDL
MODEL 5
REMARK VINA RESULT:      -7.0      1.379      1.729
REMARK  Name = 
REMARK  5 active torsions:
REMARK  status: ('A' for Active; 'I' for Inactive)
REMARK    1  A    between atoms: C_1  and  C_2
REMARK    2  A    between atoms: C_8  and  C_10
REMARK    3  A    between atoms: C_14  and  C_15
REMARK    4  A    between atoms: C_22  and  C_23
REMARK    5  A    between atoms: N_25  and  C_26
REMARK                            x       y       z     vdW  Elec       q    Type
REMARK                         _______ _______ _______ _____ _____    ______ ____
ROOT
ATOM      1  C   UNL     1      -3.609  18.459  23.480  0.00  0.00    +0.000 C 
ATOM      2  C   UNL     1      -3.844  17.205  24.289  0.00  0.00    +0.000 C 
ATOM      3  O   UNL     1      -3.942  17.266  25.513  0.00  0.00    +0.000 OA
ATOM      4  N   UNL     1      -3.951  16.012  23.600  0.00  0.00    +0.000 N 
ATOM      5  C   UNL     1      -4.393  14.784  24.296  0.00  0.00    +0.000 C 
ATOM      6  C   UNL     1      -5.652  14.159  23.651  0.00  0.00    +0.000 C 
ATOM      7  N   UNL     1      -5.574  14.105  22.176  0.00  0.00    +0.000 N 
ATOM      8  C   UNL     1      -6.046  12.958  21.519  0.00  0.00    +0.000 C 
ATOM      9  O   UNL     1      -6.513  12.010  22.156  0.00  0.00    +0.000 OA
ATOM     10  C   UNL     1      -5.170  15.381  21.568  0.00  0.00    +0.000 C 
ATOM     11  C   UNL     1      -3.817  15.860  22.135  0.00  0.00    +0.000 C 
ENDROOT
BRANCH   8  12
ATOM     12  C   UNL     1      -6.033  12.811  20.024  0.00  0.00    +0.000 A 
ATOM     13  C   UNL     1      -7.100  13.325  19.283  0.00  0.00    +0.000 A 
ATOM     14  C   UNL     1      -7.136  13.163  17.886  0.00  0.00    +0.000 A 
ATOM     15  C   UNL     1      -6.113  12.480  17.219  0.00  0.00    +0.000 A 
ATOM     16  C   UNL     1      -5.054  11.935  17.942  0.00  0.00    +0.000 A 
ATOM     17  C   UNL     1      -5.062  12.095  19.332  0.00  0.00    +0.000 A 
BRANCH  16  18
ATOM     18  C   UNL     1      -3.974  11.167  17.325  0.00  0.00    +0.000 A 
ATOM     19  C   UNL     1      -3.091  10.201  17.762  0.00  0.00    +0.000 A 
ATOM     20  C   UNL     1      -2.207   9.939  16.684  0.00  0.00    +0.000 A 
ATOM     21  C   UNL     1      -2.625  10.729  15.642  0.00  0.00    +0.000 A 
ATOM     22  O   UNL     1      -3.702  11.465  16.014  0.00  0.00    +0.000 OA
ENDBRANCH  16  18
ENDBRANCH   8  12
BRANCH  11  23
ATOM     23  C   UNL     1      -2.635  14.909  21.825  0.00  0.00    +0.000 C 
ATOM     24  O   UNL     1      -1.791  14.601  22.657  0.00  0.00    +0.000 OA
ATOM     25  N   UNL     1      -2.642  14.371  20.546  0.00  0.00    +0.000 N 
ATOM     26  H   UNL     1      -3.129  14.933  19.855  0.00  0.00    +0.000 HD
BRANCH  25  27
ATOM     27  C   UNL     1      -1.551  13.591  20.097  0.00  0.00    +0.000 A 
ATOM     28  C   UNL     1      -0.665  14.050  19.112  0.00  0.00    +0.000 A 
ATOM     29  C   UNL     1       0.340  13.211  18.621  0.00  0.00    +0.000 A 
ATOM     30  C   UNL     1       0.450  11.918  19.112  0.00  0.00    +0.000 A 
ATOM     31 CL   UNL     1       1.662  10.870  18.485  0.00  0.00    +0.000 Cl
ATOM     32  C   UNL     1      -0.417  11.459  20.103  0.00  0.00    +0.000 A 
ATOM     33  C   UNL     1      -1.405  12.305  20.615  0.00  0.00    +0.000 A 
ENDBRANCH  25  27
ENDBRANCH  11  23
TORSDOF 4
ENDMDL
MODEL 6
REMARK VINA RESULT:      -7.0      2.685      5.200
REMARK  Name = 
REMARK  5 active torsions:
REMARK  status: ('A' for Active; 'I' for Inactive)
REMARK    1  A    between atoms: C_1  and  C_2
REMARK    2  A    between atoms: C_8  and  C_10
REMARK    3  A    between atoms: C_14  and  C_15
REMARK    4  A    between atoms: C_22  and  C_23
REMARK    5  A    between atoms: N_25  and  C_26
REMARK                            x       y       z     vdW  Elec       q    Type
REMARK                         _______ _______ _______ _____ _____    ______ ____
ROOT
ATOM      1  C   UNL     1      -5.402  15.459  24.160  0.00  0.00    +0.000 C 
ATOM      2  C   UNL     1      -4.273  16.183  23.465  0.00  0.00    +0.000 C 
ATOM      3  O   UNL     1      -4.140  17.397  23.598  0.00  0.00    +0.000 OA
ATOM      4  N   UNL     1      -3.408  15.426  22.697  0.00  0.00    +0.000 N 
ATOM      5  C   UNL     1      -2.163  16.023  22.167  0.00  0.00    +0.000 C 
ATOM      6  C   UNL     1      -0.899  15.255  22.619  0.00  0.00    +0.000 C 
ATOM      7  N   UNL     1      -1.045  13.789  22.502  0.00  0.00    +0.000 N 
ATOM      8  C   UNL     1       0.043  13.041  22.028  0.00  0.00    +0.000 C 
ATOM      9  O   UNL     1       1.100  13.592  21.709  0.00  0.00    +0.000 OA
ATOM     10  C   UNL     1      -2.290  13.280  23.096  0.00  0.00    +0.000 C 
ATOM     11  C   UNL     1      -3.522  13.969  22.472  0.00  0.00    +0.000 C 
ENDROOT
BRANCH   8  12
ATOM     12  C   UNL     1       0.007  11.546  21.891  0.00  0.00    +0.000 A 
ATOM     13  C   UNL     1      -0.641  10.791  22.873  0.00  0.00    +0.000 A 
ATOM     14  C   UNL     1      -0.653   9.387  22.795  0.00  0.00    +0.000 A 
ATOM     15  C   UNL     1      -0.012   8.724  21.741  0.00  0.00    +0.000 A 
ATOM     16  C   UNL     1       0.664   9.456  20.767  0.00  0.00    +0.000 A 
ATOM     17  C   UNL     1       0.675  10.850  20.889  0.00  0.00    +0.000 A 
BRANCH  16  18
ATOM     18  C   UNL     1       1.398   8.837  19.665  0.00  0.00    +0.000 A 
ATOM     19  C   UNL     1       1.629   9.161  18.344  0.00  0.00    +0.000 A 
ATOM     20  C   UNL     1       2.337   8.071  17.775  0.00  0.00    +0.000 A 
ATOM     21  C   UNL     1       2.531   7.166  18.789  0.00  0.00    +0.000 A 
ATOM     22  O   UNL     1       1.979   7.626  19.940  0.00  0.00    +0.000 OA
ENDBRANCH  16  18
ENDBRANCH   8  12
BRANCH  11  23
ATOM     23  C   UNL     1      -3.693  13.697  20.957  0.00  0.00    +0.000 C 
ATOM     24  O   UNL     1      -4.252  14.479  20.198  0.00  0.00    +0.000 OA
ATOM     25  N   UNL     1      -3.099  12.528  20.505  0.00  0.00    +0.000 N 
ATOM     26  H   UNL     1      -2.993  11.809  21.214  0.00  0.00    +0.000 HD
BRANCH  25  27
ATOM     27  C   UNL     1      -3.292  12.101  19.170  0.00  0.00    +0.000 A 
ATOM     28  C   UNL     1      -4.563  11.794  18.665  0.00  0.00    +0.000 A 
ATOM     29  C   UNL     1      -4.701  11.279  17.373  0.00  0.00    +0.000 A 
ATOM     30  C   UNL     1      -3.571  11.068  16.596  0.00  0.00    +0.000 A 
ATOM     31 CL   UNL     1      -3.734  10.400  15.019  0.00  0.00    +0.000 Cl
ATOM     32  C   UNL     1      -2.305  11.386  17.086  0.00  0.00    +0.000 A 
ATOM     33  C   UNL     1      -2.165  11.927  18.367  0.00  0.00    +0.000 A 
ENDBRANCH  25  27
ENDBRANCH  11  23
TORSDOF 4
ENDMDL
MODEL 7
REMARK VINA RESULT:      -7.0      4.011      6.576
REMARK  Name = 
REMARK  5 active torsions:
REMARK  status: ('A' for Active; 'I' for Inactive)
REMARK    1  A    between atoms: C_1  and  C_2
REMARK    2  A    between atoms: C_8  and  C_10
REMARK    3  A    between atoms: C_14  and  C_15
REMARK    4  A    between atoms: C_22  and  C_23
REMARK    5  A    between atoms: N_25  and  C_26
REMARK                            x       y       z     vdW  Elec       q    Type
REMARK                         _______ _______ _______ _____ _____    ______ ____
ROOT
ATOM      1  C   UNL     1      -3.875  13.658  20.700  0.00  0.00    +0.000 C 
ATOM      2  C   UNL     1      -3.181  13.254  21.979  0.00  0.00    +0.000 C 
ATOM      3  O   UNL     1      -3.717  13.459  23.066  0.00  0.00    +0.000 OA
ATOM      4  N   UNL     1      -1.945  12.645  21.871  0.00  0.00    +0.000 N 
ATOM      5  C   UNL     1      -1.308  12.030  23.055  0.00  0.00    +0.000 C 
ATOM      6  C   UNL     1      -0.991  10.531  22.846  0.00  0.00    +0.000 C 
ATOM      7  N   UNL     1      -0.378  10.252  21.530  0.00  0.00    +0.000 N 
ATOM      8  C   UNL     1       0.675   9.326  21.463  0.00  0.00    +0.000 C 
ATOM      9  O   UNL     1       1.085   8.758  22.478  0.00  0.00    +0.000 OA
ATOM     10  C   UNL     1      -1.103  10.865  20.408  0.00  0.00    +0.000 C 
ATOM     11  C   UNL     1      -1.230  12.391  20.600  0.00  0.00    +0.000 C 
ENDROOT
BRANCH   8  12
ATOM     12  C   UNL     1       1.352   8.955  20.175  0.00  0.00    +0.000 A 
ATOM     13  C   UNL     1       1.363   9.875  19.124  0.00  0.00    +0.000 A 
ATOM     14  C   UNL     1       1.951   9.539  17.892  0.00  0.00    +0.000 A 
ATOM     15  C   UNL     1       2.526   8.278  17.695  0.00  0.00    +0.000 A 
ATOM     16  C   UNL     1       2.502   7.335  18.720  0.00  0.00    +0.000 A 
ATOM     17  C   UNL     1       1.888   7.696  19.924  0.00  0.00    +0.000 A 
BRANCH  16  18
ATOM     18  C   UNL     1       3.037   5.982  18.577  0.00  0.00    +0.000 A 
ATOM     19  C   UNL     1       2.677   4.862  17.856  0.00  0.00    +0.000 A 
ATOM     20  C   UNL     1       3.560   3.823  18.249  0.00  0.00    +0.000 A 
ATOM     21  C   UNL     1       4.430   4.379  19.154  0.00  0.00    +0.000 A 
ATOM     22  O   UNL     1       4.132   5.688  19.349  0.00  0.00    +0.000 OA
ENDBRANCH  16  18
ENDBRANCH   8  12
BRANCH  11  23
ATOM     23  C   UNL     1       0.126  13.137  20.619  0.00  0.00    +0.000 C 
ATOM     24  O   UNL     1       0.798  13.273  21.633  0.00  0.00    +0.000 OA
ATOM     25  N   UNL     1       0.563  13.581  19.379  0.00  0.00    +0.000 N 
ATOM     26  H   UNL     1      -0.179  13.746  18.706  0.00  0.00    +0.000 HD
BRANCH  25  27
ATOM     27  C   UNL     1       1.722  14.386  19.279  0.00  0.00    +0.000 A 
ATOM     28  C   UNL     1       1.697  15.760  19.557  0.00  0.00    +0.000 A 
ATOM     29  C   UNL     1       2.838  16.541  19.349  0.00  0.00    +0.000 A 
ATOM     30  C   UNL     1       3.993  15.947  18.860  0.00  0.00    +0.000 A 
ATOM     31 CL   UNL     1       5.387  16.911  18.567  0.00  0.00    +0.000 Cl
ATOM     32  C   UNL     1       4.029  14.578  18.596  0.00  0.00    +0.000 A 
ATOM     33  C   UNL     1       2.899  13.790  18.829  0.00  0.00    +0.000 A 
ENDBRANCH  25  27
ENDBRANCH  11  23
TORSDOF 4
ENDMDL
MODEL 8
REMARK VINA RESULT:      -6.8      4.278      6.925
REMARK  Name = 
REMARK  5 active torsions:
REMARK  status: ('A' for Active; 'I' for Inactive)
REMARK    1  A    between atoms: C_1  and  C_2
REMARK    2  A    between atoms: C_8  and  C_10
REMARK    3  A    between atoms: C_14  and  C_15
REMARK    4  A    between atoms: C_22  and  C_23
REMARK    5  A    between atoms: N_25  and  C_26
REMARK                            x       y       z     vdW  Elec       q    Type
REMARK                         _______ _______ _______ _____ _____    ______ ____
ROOT
ATOM      1  C   UNL     1      -4.074  12.660  19.964  0.00  0.00    +0.000 C 
ATOM      2  C   UNL     1      -3.162  12.891  21.146  0.00  0.00    +0.000 C 
ATOM      3  O   UNL     1      -3.555  13.535  22.116  0.00  0.00    +0.000 OA
ATOM      4  N   UNL     1      -1.893  12.345  21.090  0.00  0.00    +0.000 N 
ATOM      5  C   UNL     1      -1.027  12.343  22.288  0.00  0.00    +0.000 C 
ATOM      6  C   UNL     1      -0.576  10.919  22.690  0.00  0.00    +0.000 C 
ATOM      7  N   UNL     1      -0.131  10.110  21.536  0.00  0.00    +0.000 N 
ATOM      8  C   UNL     1       0.999   9.291  21.685  0.00  0.00    +0.000 C 
ATOM      9  O   UNL     1       1.613   9.247  22.755  0.00  0.00    +0.000 OA
ATOM     10  C   UNL     1      -1.075  10.135  20.409  0.00  0.00    +0.000 C 
ATOM     11  C   UNL     1      -1.345  11.582  19.946  0.00  0.00    +0.000 C 
ENDROOT
BRANCH   8  12
ATOM     12  C   UNL     1       1.521   8.414  20.584  0.00  0.00    +0.000 A 
ATOM     13  C   UNL     1       1.815   8.986  19.343  0.00  0.00    +0.000 A 
ATOM     14  C   UNL     1       2.264   8.182  18.280  0.00  0.00    +0.000 A 
ATOM     15  C   UNL     1       2.415   6.800  18.443  0.00  0.00    +0.000 A 
ATOM     16  C   UNL     1       2.101   6.205  19.663  0.00  0.00    +0.000 A 
ATOM     17  C   UNL     1       1.635   7.032  20.691  0.00  0.00    +0.000 A 
BRANCH  16  18
ATOM     18  C   UNL     1       2.186   4.765  19.897  0.00  0.00    +0.000 A 
ATOM     19  C   UNL     1       3.097   3.778  19.582  0.00  0.00    +0.000 A 
ATOM     20  C   UNL     1       2.529   2.548  20.006  0.00  0.00    +0.000 A 
ATOM     21  C   UNL     1       1.326   2.861  20.589  0.00  0.00    +0.000 A 
ATOM     22  O   UNL     1       1.115   4.200  20.542  0.00  0.00    +0.000 OA
ENDBRANCH  16  18
ENDBRANCH   8  12
BRANCH  11  23
ATOM     23  C   UNL     1      -0.093  12.310  19.399  0.00  0.00    +0.000 C 
ATOM     24  O   UNL     1       0.578  11.877  18.471  0.00  0.00    +0.000 OA
ATOM     25  N   UNL     1       0.174  13.535  19.995  0.00  0.00    +0.000 N 
ATOM     26  H   UNL     1      -0.185  13.631  20.939  0.00  0.00    +0.000 HD
BRANCH  25  27
ATOM     27  C   UNL     1       1.359  14.238  19.675  0.00  0.00    +0.000 A 
ATOM     28  C   UNL     1       2.583  13.950  20.293  0.00  0.00    +0.000 A 
ATOM     29  C   UNL     1       3.710  14.733  20.025  0.00  0.00    +0.000 A 
ATOM     30  C   UNL     1       3.605  15.803  19.148  0.00  0.00    +0.000 A 
ATOM     31 CL   UNL     1       4.979  16.793  18.843  0.00  0.00    +0.000 Cl
ATOM     32  C   UNL     1       2.394  16.087  18.517  0.00  0.00    +0.000 A 
ATOM     33  C   UNL     1       1.273  15.288  18.762  0.00  0.00    +0.000 A 
ENDBRANCH  25  27
ENDBRANCH  11  23
TORSDOF 4
ENDMDL
MODEL 9
REMARK VINA RESULT:      -6.6      1.887      2.100
REMARK  Name = 
REMARK  5 active torsions:
REMARK  status: ('A' for Active; 'I' for Inactive)
REMARK    1  A    between atoms: C_1  and  C_2
REMARK    2  A    between atoms: C_8  and  C_10
REMARK    3  A    between atoms: C_14  and  C_15
REMARK    4  A    between atoms: C_22  and  C_23
REMARK    5  A    between atoms: N_25  and  C_26
REMARK                            x       y       z     vdW  Elec       q    Type
REMARK                         _______ _______ _______ _____ _____    ______ ____
ROOT
ATOM      1  C   UNL     1      -2.464  17.069  23.602  0.00  0.00    +0.000 C 
ATOM      2  C   UNL     1      -3.315  16.030  24.294  0.00  0.00    +0.000 C 
ATOM      3  O   UNL     1      -3.515  16.099  25.505  0.00  0.00    +0.000 OA
ATOM      4  N   UNL     1      -3.853  15.024  23.514  0.00  0.00    +0.000 N 
ATOM      5  C   UNL     1      -4.865  14.103  24.076  0.00  0.00    +0.000 C 
ATOM      6  C   UNL     1      -6.187  14.115  23.274  0.00  0.00    +0.000 C 
ATOM      7  N   UNL     1      -5.972  14.068  21.813  0.00  0.00    +0.000 N 
ATOM      8  C   UNL     1      -6.820  13.264  21.034  0.00  0.00    +0.000 C 
ATOM      9  O   UNL     1      -7.723  12.606  21.556  0.00  0.00    +0.000 OA
ATOM     10  C   UNL     1      -4.984  15.047  21.337  0.00  0.00    +0.000 C 
ATOM     11  C   UNL     1      -3.633  14.864  22.060  0.00  0.00    +0.000 C 
ENDROOT
BRANCH   8  12
ATOM     12  C   UNL     1      -6.701  13.162  19.541  0.00  0.00    +0.000 A 
ATOM     13  C   UNL     1      -7.638  13.818  18.739  0.00  0.00    +0.000 A 
ATOM     14  C   UNL     1      -7.578  13.705  17.339  0.00  0.00    +0.000 A 
ATOM     15  C   UNL     1      -6.588  12.927  16.727  0.00  0.00    +0.000 A 
ATOM     16  C   UNL     1      -5.661  12.241  17.508  0.00  0.00    +0.000 A 
ATOM     17  C   UNL     1      -5.764  12.359  18.898  0.00  0.00    +0.000 A 
BRANCH  16  18
ATOM     18  C   UNL     1      -4.628  11.372  16.947  0.00  0.00    +0.000 A 
ATOM     19  C   UNL     1      -3.739  10.453  17.465  0.00  0.00    +0.000 A 
ATOM     20  C   UNL     1      -2.918  10.027  16.389  0.00  0.00    +0.000 A 
ATOM     21  C   UNL     1      -3.379  10.679  15.272  0.00  0.00    +0.000 A 
ATOM     22  O   UNL     1      -4.423  11.484  15.595  0.00  0.00    +0.000 OA
ENDBRANCH  16  18
ENDBRANCH   8  12
BRANCH  11  23
ATOM     23  C   UNL     1      -2.959  13.496  21.793  0.00  0.00    +0.000 C 
ATOM     24  O   UNL     1      -3.529  12.570  21.229  0.00  0.00    +0.000 OA
ATOM     25  N   UNL     1      -1.628  13.418  22.177  0.00  0.00    +0.000 N 
ATOM     26  H   UNL     1      -1.367  14.056  22.922  0.00  0.00    +0.000 HD
BRANCH  25  27
ATOM     27  C   UNL     1      -0.936  12.186  22.105  0.00  0.00    +0.000 A 
ATOM     28  C   UNL     1      -1.137  11.166  23.045  0.00  0.00    +0.000 A 
ATOM     29  C   UNL     1      -0.363  10.003  22.999  0.00  0.00    +0.000 A 
ATOM     30  C   UNL     1       0.611   9.869  22.020  0.00  0.00    +0.000 A 
ATOM     31 CL   UNL     1       1.592   8.457  21.983  0.00  0.00    +0.000 Cl
ATOM     32  C   UNL     1       0.806  10.873  21.072  0.00  0.00    +0.000 A 
ATOM     33  C   UNL     1       0.014  12.024  21.098  0.00  0.00    +0.000 A 
ENDBRANCH  25  27
ENDBRANCH  11  23
TORSDOF 4
ENDMDL
