MODEL 1
REMARK VINA RESULT:      -7.9      0.000      0.000
REMARK  Name = 
REMARK  9 active torsions:
REMARK  status: ('A' for Active; 'I' for Inactive)
REMARK    1  A    between atoms: C_1  and  C_2
REMARK    2  A    between atoms: C_2  and  C_3
REMARK    3  A    between atoms: C_2  and  C_4
REMARK    4  A    between atoms: C_4  and  N_5
REMARK    5  A    between atoms: C_4  and  C_15
REMARK    6  A    between atoms: C_6  and  C_8
REMARK    7  A    between atoms: N_17  and  C_18
REMARK    8  A    between atoms: C_18  and  C_19
REMARK    9  A    between atoms: C_19  and  C_20
REMARK                            x       y       z     vdW  Elec       q    Type
REMARK                         _______ _______ _______ _____ _____    ______ ____
ROOT
ATOM      1  C   UNL     1       5.829   5.801  16.833  0.00  0.00    +0.000 C 
ENDROOT
BRANCH   1   2
ATOM      2  N   UNL     1       4.816   5.172  17.692  0.00  0.00    +0.000 N 
ATOM      3  C   UNL     1       3.645   5.773  18.081  0.00  0.00    +0.000 C 
ATOM      4  O   UNL     1       3.320   6.911  17.742  0.00  0.00    +0.000 OA
ATOM      5  H   UNL     1       5.008   4.229  18.005  0.00  0.00    +0.000 HD
BRANCH   3   6
ATOM      6  C   UNL     1       2.705   4.984  18.895  0.00  0.00    +0.000 A 
ATOM      7  C   UNL     1       2.725   5.147  20.288  0.00  0.00    +0.000 A 
ATOM      8  C   UNL     1       1.909   4.352  21.095  0.00  0.00    +0.000 A 
ATOM      9  C   UNL     1       1.082   3.391  20.513  0.00  0.00    +0.000 A 
ATOM     10  C   UNL     1       1.049   3.241  19.125  0.00  0.00    +0.000 A 
ATOM     11  C   UNL     1       1.854   4.044  18.323  0.00  0.00    +0.000 A 
ATOM     12  F   UNL     1       1.803   3.879  16.992  0.00  0.00    +0.000 F 
ENDBRANCH   3   6
ENDBRANCH   1   2
BRANCH   1  13
ATOM     13  C   UNL     1       6.939   6.455  17.702  0.00  0.00    +0.000 C 
ATOM     14  O   UNL     1       7.478   5.849  18.626  0.00  0.00    +0.000 OA
ATOM     15  N   UNL     1       7.234   7.768  17.393  0.00  0.00    +0.000 N 
ATOM     16  H   UNL     1       6.935   8.089  16.469  0.00  0.00    +0.000 HD
BRANCH  15  17
ATOM     17  C   UNL     1       8.288   8.491  18.072  0.00  0.00    +0.000 C 
BRANCH  17  18
ATOM     18  C   UNL     1       8.298   9.980  17.735  0.00  0.00    +0.000 C 
BRANCH  18  19
ATOM     19  C   UNL     1       9.363  10.695  18.523  0.00  0.00    +0.000 A 
ATOM     20  C   UNL     1      10.403  11.353  17.867  0.00  0.00    +0.000 A 
ATOM     21  C   UNL     1      11.350  12.037  18.626  0.00  0.00    +0.000 A 
ATOM     22  C   UNL     1      11.234  12.050  20.009  0.00  0.00    +0.000 A 
ATOM     23  C   UNL     1      10.169  11.376  20.582  0.00  0.00    +0.000 A 
ATOM     24  N   UNL     1       9.234  10.702  19.870  0.00  0.00    +0.000 NA
ENDBRANCH  18  19
ENDBRANCH  17  18
ENDBRANCH  15  17
ENDBRANCH   1  13
BRANCH   1  26
ATOM     25  C   UNL     1       5.864   3.437  15.837  0.00  0.00    +0.000 C 
ATOM     26  C   UNL     1       6.412   4.867  15.743  0.00  0.00    +0.000 C 
ATOM     27  C   UNL     1       6.121   5.406  14.337  0.00  0.00    +0.000 C 
ENDBRANCH   1  26
TORSDOF 7
ENDMDL
MODEL 2
REMARK VINA RESULT:      -7.8      3.700      5.739
REMARK  Name = 
REMARK  9 active torsions:
REMARK  status: ('A' for Active; 'I' for Inactive)
REMARK    1  A    between atoms: C_1  and  C_2
REMARK    2  A    between atoms: C_2  and  C_3
REMARK    3  A    between atoms: C_2  and  C_4
REMARK    4  A    between atoms: C_4  and  N_5
REMARK    5  A    between atoms: C_4  and  C_15
REMARK    6  A    between atoms: C_6  and  C_8
REMARK    7  A    between atoms: N_17  and  C_18
REMARK    8  A    between atoms: C_18  and  C_19
REMARK    9  A    between atoms: C_19  and  C_20
REMARK                            x       y       z     vdW  Elec       q    Type
REMARK                         _______ _______ _______ _____ _____    ______ ____
ROOT
ATOM      1  C   UNL     1       3.096   4.353  19.082  0.00  0.00    +0.000 C 
ENDROOT
BRANCH   1   2
ATOM      2  N   UNL     1       2.565   5.601  19.647  0.00  0.00    +0.000 N 
ATOM      3  C   UNL     1       2.480   6.790  18.966  0.00  0.00    +0.000 C 
ATOM      4  O   UNL     1       2.841   6.929  17.797  0.00  0.00    +0.000 OA
ATOM      5  H   UNL     1       2.237   5.563  20.605  0.00  0.00    +0.000 HD
BRANCH   3   6
ATOM      6  C   UNL     1       1.865   7.936  19.656  0.00  0.00    +0.000 A 
ATOM      7  C   UNL     1       1.598   7.827  21.028  0.00  0.00    +0.000 A 
ATOM      8  C   UNL     1       0.936   8.859  21.694  0.00  0.00    +0.000 A 
ATOM      9  C   UNL     1       0.535   9.995  20.990  0.00  0.00    +0.000 A 
ATOM     10  C   UNL     1       0.815  10.111  19.628  0.00  0.00    +0.000 A 
ATOM     11  C   UNL     1       1.487   9.085  18.969  0.00  0.00    +0.000 A 
ATOM     12  F   UNL     1       1.745   9.223  17.660  0.00  0.00    +0.000 F 
ENDBRANCH   3   6
ENDBRANCH   1   2
BRANCH   1  13
ATOM     13  C   UNL     1       4.619   4.240  19.368  0.00  0.00    +0.000 C 
ATOM     14  O   UNL     1       5.144   3.170  19.672  0.00  0.00    +0.000 OA
ATOM     15  N   UNL     1       5.321   5.427  19.303  0.00  0.00    +0.000 N 
ATOM     16  H   UNL     1       4.866   6.191  18.798  0.00  0.00    +0.000 HD
BRANCH  15  17
ATOM     17  C   UNL     1       6.756   5.472  19.482  0.00  0.00    +0.000 C 
BRANCH  17  18
ATOM     18  C   UNL     1       7.481   6.120  18.304  0.00  0.00    +0.000 C 
BRANCH  18  19
ATOM     19  C   UNL     1       6.880   5.670  16.998  0.00  0.00    +0.000 A 
ATOM     20  C   UNL     1       5.847   6.397  16.410  0.00  0.00    +0.000 A 
ATOM     21  C   UNL     1       5.340   5.974  15.183  0.00  0.00    +0.000 A 
ATOM     22  C   UNL     1       5.877   4.846  14.578  0.00  0.00    +0.000 A 
ATOM     23  C   UNL     1       6.905   4.183  15.226  0.00  0.00    +0.000 A 
ATOM     24  N   UNL     1       7.416   4.571  16.419  0.00  0.00    +0.000 NA
ENDBRANCH  18  19
ENDBRANCH  17  18
ENDBRANCH  15  17
ENDBRANCH   1  13
BRANCH   1  26
ATOM     25  C   UNL     1       1.039   3.399  20.282  0.00  0.00    +0.000 C 
ATOM     26  C   UNL     1       2.324   3.079  19.508  0.00  0.00    +0.000 C 
ATOM     27  C   UNL     1       1.955   2.221  18.291  0.00  0.00    +0.000 C 
ENDBRANCH   1  26
TORSDOF 7
ENDMDL
MODEL 3
REMARK VINA RESULT:      -7.8      3.256      5.542
REMARK  Name = 
REMARK  9 active torsions:
REMARK  status: ('A' for Active; 'I' for Inactive)
REMARK    1  A    between atoms: C_1  and  C_2
REMARK    2  A    between atoms: C_2  and  C_3
REMARK    3  A    between atoms: C_2  and  C_4
REMARK    4  A    between atoms: C_4  and  N_5
REMARK    5  A    between atoms: C_4  and  C_15
REMARK    6  A    between atoms: C_6  and  C_8
REMARK    7  A    between atoms: N_17  and  C_18
REMARK    8  A    between atoms: C_18  and  C_19
REMARK    9  A    between atoms: C_19  and  C_20
REMARK                            x       y       z     vdW  Elec       q    Type
REMARK                         _______ _______ _______ _____ _____    ______ ____
ROOT
ATOM      1  C   UNL     1       2.409   3.820  18.893  0.00  0.00    +0.000 C 
ENDROOT
BRANCH   1   2
ATOM      2  N   UNL     1       1.940   5.211  18.957  0.00  0.00    +0.000 N 
ATOM      3  C   UNL     1       2.759   6.301  19.118  0.00  0.00    +0.000 C 
ATOM      4  O   UNL     1       3.982   6.222  19.222  0.00  0.00    +0.000 OA
ATOM      5  H   UNL     1       0.942   5.359  18.868  0.00  0.00    +0.000 HD
BRANCH   3   6
ATOM      6  C   UNL     1       2.137   7.636  19.100  0.00  0.00    +0.000 A 
ATOM      7  C   UNL     1       2.240   8.408  17.934  0.00  0.00    +0.000 A 
ATOM      8  C   UNL     1       1.739   9.710  17.912  0.00  0.00    +0.000 A 
ATOM      9  C   UNL     1       1.145  10.244  19.056  0.00  0.00    +0.000 A 
ATOM     10  C   UNL     1       1.026   9.471  20.211  0.00  0.00    +0.000 A 
ATOM     11  C   UNL     1       1.515   8.167  20.225  0.00  0.00    +0.000 A 
ATOM     12  F   UNL     1       1.388   7.446  21.349  0.00  0.00    +0.000 F 
ENDBRANCH   3   6
ENDBRANCH   1   2
BRANCH   1  13
ATOM     13  C   UNL     1       3.031   3.526  17.500  0.00  0.00    +0.000 C 
ATOM     14  O   UNL     1       2.579   2.654  16.760  0.00  0.00    +0.000 OA
ATOM     15  N   UNL     1       4.146   4.275  17.181  0.00  0.00    +0.000 N 
ATOM     16  H   UNL     1       4.282   5.131  17.725  0.00  0.00    +0.000 HD
BRANCH  15  17
ATOM     17  C   UNL     1       4.797   4.160  15.895  0.00  0.00    +0.000 C 
BRANCH  17  18
ATOM     18  C   UNL     1       6.314   4.031  16.007  0.00  0.00    +0.000 C 
BRANCH  18  19
ATOM     19  C   UNL     1       6.871   5.084  16.928  0.00  0.00    +0.000 A 
ATOM     20  C   UNL     1       7.487   4.720  18.124  0.00  0.00    +0.000 A 
ATOM     21  C   UNL     1       8.025   5.717  18.935  0.00  0.00    +0.000 A 
ATOM     22  C   UNL     1       7.937   7.043  18.531  0.00  0.00    +0.000 A 
ATOM     23  C   UNL     1       7.312   7.320  17.328  0.00  0.00    +0.000 A 
ATOM     24  N   UNL     1       6.780   6.371  16.520  0.00  0.00    +0.000 NA
ENDBRANCH  18  19
ENDBRANCH  17  18
ENDBRANCH  15  17
ENDBRANCH   1  13
BRANCH   1  26
ATOM     25  C   UNL     1       2.588   3.095  21.347  0.00  0.00    +0.000 C 
ATOM     26  C   UNL     1       3.349   3.410  20.054  0.00  0.00    +0.000 C 
ATOM     27  C   UNL     1       4.193   2.185  19.678  0.00  0.00    +0.000 C 
ENDBRANCH   1  26
TORSDOF 7
ENDMDL
MODEL 4
REMARK VINA RESULT:      -7.7      4.359      7.073
REMARK  Name = 
REMARK  9 active torsions:
REMARK  status: ('A' for Active; 'I' for Inactive)
REMARK    1  A    between atoms: C_1  and  C_2
REMARK    2  A    between atoms: C_2  and  C_3
REMARK    3  A    between atoms: C_2  and  C_4
REMARK    4  A    between atoms: C_4  and  N_5
REMARK    5  A    between atoms: C_4  and  C_15
REMARK    6  A    between atoms: C_6  and  C_8
REMARK    7  A    between atoms: N_17  and  C_18
REMARK    8  A    between atoms: C_18  and  C_19
REMARK    9  A    between atoms: C_19  and  C_20
REMARK                            x       y       z     vdW  Elec       q    Type
REMARK                         _______ _______ _______ _____ _____    ______ ____
ROOT
ATOM      1  C   UNL     1       5.451   5.568  17.410  0.00  0.00    +0.000 C 
ENDROOT
BRANCH   1   2
ATOM      2  N   UNL     1       4.547   6.517  18.073  0.00  0.00    +0.000 N 
ATOM      3  C   UNL     1       3.189   6.350  18.184  0.00  0.00    +0.000 C 
ATOM      4  O   UNL     1       2.587   5.374  17.738  0.00  0.00    +0.000 OA
ATOM      5  H   UNL     1       4.972   7.344  18.476  0.00  0.00    +0.000 HD
BRANCH   3   6
ATOM      6  C   UNL     1       2.430   7.365  18.935  0.00  0.00    +0.000 A 
ATOM      7  C   UNL     1       2.063   7.084  20.259  0.00  0.00    +0.000 A 
ATOM      8  C   UNL     1       1.270   7.986  20.969  0.00  0.00    +0.000 A 
ATOM      9  C   UNL     1       0.836   9.162  20.356  0.00  0.00    +0.000 A 
ATOM     10  C   UNL     1       1.216   9.450  19.044  0.00  0.00    +0.000 A 
ATOM     11  C   UNL     1       2.018   8.555  18.342  0.00  0.00    +0.000 A 
ATOM     12  F   UNL     1       2.368   8.856  17.083  0.00  0.00    +0.000 F 
ENDBRANCH   3   6
ENDBRANCH   1   2
BRANCH   1  13
ATOM     13  C   UNL     1       5.295   4.153  18.032  0.00  0.00    +0.000 C 
ATOM     14  O   UNL     1       5.812   3.858  19.109  0.00  0.00    +0.000 OA
ATOM     15  N   UNL     1       4.583   3.248  17.271  0.00  0.00    +0.000 N 
ATOM     16  H   UNL     1       3.985   3.647  16.542  0.00  0.00    +0.000 HD
BRANCH  15  17
ATOM     17  C   UNL     1       4.299   1.911  17.745  0.00  0.00    +0.000 C 
BRANCH  17  18
ATOM     18  C   UNL     1       2.807   1.657  17.946  0.00  0.00    +0.000 C 
BRANCH  18  19
ATOM     19  C   UNL     1       2.326   2.298  19.221  0.00  0.00    +0.000 A 
ATOM     20  C   UNL     1       1.049   2.853  19.293  0.00  0.00    +0.000 A 
ATOM     21  C   UNL     1       0.622   3.403  20.500  0.00  0.00    +0.000 A 
ATOM     22  C   UNL     1       1.473   3.382  21.597  0.00  0.00    +0.000 A 
ATOM     23  C   UNL     1       2.723   2.807  21.443  0.00  0.00    +0.000 A 
ATOM     24  N   UNL     1       3.165   2.266  20.282  0.00  0.00    +0.000 NA
ENDBRANCH  18  19
ENDBRANCH  17  18
ENDBRANCH  15  17
ENDBRANCH   1  13
BRANCH   1  26
ATOM     25  C   UNL     1       5.060   6.935  15.274  0.00  0.00    +0.000 C 
ATOM     26  C   UNL     1       5.332   5.546  15.865  0.00  0.00    +0.000 C 
ATOM     27  C   UNL     1       6.605   4.986  15.218  0.00  0.00    +0.000 C 
ENDBRANCH   1  26
TORSDOF 7
ENDMDL
MODEL 5
REMARK VINA RESULT:      -7.7      1.171      1.408
REMARK  Name = 
REMARK  9 active torsions:
REMARK  status: ('A' for Active; 'I' for Inactive)
REMARK    1  A    between atoms: C_1  and  C_2
REMARK    2  A    between atoms: C_2  and  C_3
REMARK    3  A    between atoms: C_2  and  C_4
REMARK    4  A    between atoms: C_4  and  N_5
REMARK    5  A    between atoms: C_4  and  C_15
REMARK    6  A    between atoms: C_6  and  C_8
REMARK    7  A    between atoms: N_17  and  C_18
REMARK    8  A    between atoms: C_18  and  C_19
REMARK    9  A    between atoms: C_19  and  C_20
REMARK                            x       y       z     vdW  Elec       q    Type
REMARK                         _______ _______ _______ _____ _____    ______ ____
ROOT
ATOM      1  C   UNL     1       6.098   6.330  17.180  0.00  0.00    +0.000 C 
ENDROOT
BRANCH   1   2
ATOM      2  N   UNL     1       5.216   5.542  18.052  0.00  0.00    +0.000 N 
ATOM      3  C   UNL     1       3.855   5.703  18.133  0.00  0.00    +0.000 C 
ATOM      4  O   UNL     1       3.230   6.532  17.472  0.00  0.00    +0.000 OA
ATOM      5  H   UNL     1       5.658   4.830  18.622  0.00  0.00    +0.000 HD
BRANCH   3   6
ATOM      6  C   UNL     1       3.106   4.790  19.012  0.00  0.00    +0.000 A 
ATOM      7  C   UNL     1       3.189   3.410  18.773  0.00  0.00    +0.000 A 
ATOM      8  C   UNL     1       2.424   2.523  19.531  0.00  0.00    +0.000 A 
ATOM      9  C   UNL     1       1.570   3.012  20.519  0.00  0.00    +0.000 A 
ATOM     10  C   UNL     1       1.499   4.384  20.769  0.00  0.00    +0.000 A 
ATOM     11  C   UNL     1       2.274   5.265  20.021  0.00  0.00    +0.000 A 
ATOM     12  F   UNL     1       2.186   6.578  20.281  0.00  0.00    +0.000 F 
ENDBRANCH   3   6
ENDBRANCH   1   2
BRANCH   1  13
ATOM     13  C   UNL     1       7.247   6.964  18.011  0.00  0.00    +0.000 C 
ATOM     14  O   UNL     1       7.819   6.341  18.906  0.00  0.00    +0.000 OA
ATOM     15  N   UNL     1       7.542   8.277  17.707  0.00  0.00    +0.000 N 
ATOM     16  H   UNL     1       7.208   8.613  16.800  0.00  0.00    +0.000 HD
BRANCH  15  17
ATOM     17  C   UNL     1       8.629   8.982  18.351  0.00  0.00    +0.000 C 
BRANCH  17  18
ATOM     18  C   UNL     1       8.635  10.477  18.038  0.00  0.00    +0.000 C 
BRANCH  18  19
ATOM     19  C   UNL     1       9.824  11.148  18.674  0.00  0.00    +0.000 A 
ATOM     20  C   UNL     1      10.893  11.577  17.889  0.00  0.00    +0.000 A 
ATOM     21  C   UNL     1      11.960  12.229  18.504  0.00  0.00    +0.000 A 
ATOM     22  C   UNL     1      11.930  12.436  19.877  0.00  0.00    +0.000 A 
ATOM     23  C   UNL     1      10.829  11.983  20.583  0.00  0.00    +0.000 A 
ATOM     24  N   UNL     1       9.778  11.346  20.011  0.00  0.00    +0.000 NA
ENDBRANCH  18  19
ENDBRANCH  17  18
ENDBRANCH  15  17
ENDBRANCH   1  13
BRANCH   1  26
ATOM     25  C   UNL     1       7.162   4.171  16.293  0.00  0.00    +0.000 C 
ATOM     26  C   UNL     1       6.623   5.563  15.941  0.00  0.00    +0.000 C 
ATOM     27  C   UNL     1       5.526   5.404  14.881  0.00  0.00    +0.000 C 
ENDBRANCH   1  26
TORSDOF 7
ENDMDL
MODEL 6
REMARK VINA RESULT:      -7.6      1.003      1.011
REMARK  Name = 
REMARK  9 active torsions:
REMARK  status: ('A' for Active; 'I' for Inactive)
REMARK    1  A    between atoms: C_1  and  C_2
REMARK    2  A    between atoms: C_2  and  C_3
REMARK    3  A    between atoms: C_2  and  C_4
REMARK    4  A    between atoms: C_4  and  N_5
REMARK    5  A    between atoms: C_4  and  C_15
REMARK    6  A    between atoms: C_6  and  C_8
REMARK    7  A    between atoms: N_17  and  C_18
REMARK    8  A    between atoms: C_18  and  C_19
REMARK    9  A    between atoms: C_19  and  C_20
REMARK                            x       y       z     vdW  Elec       q    Type
REMARK                         _______ _______ _______ _____ _____    ______ ____
ROOT
ATOM      1  C   UNL     1       6.107   5.841  16.343  0.00  0.00    +0.000 C 
ENDROOT
BRANCH   1   2
ATOM      2  N   UNL     1       4.858   5.552  17.061  0.00  0.00    +0.000 N 
ATOM      3  C   UNL     1       4.745   4.656  18.095  0.00  0.00    +0.000 C 
ATOM      4  O   UNL     1       5.690   4.001  18.532  0.00  0.00    +0.000 OA
ATOM      5  H   UNL     1       4.034   6.062  16.764  0.00  0.00    +0.000 HD
BRANCH   3   6
ATOM      6  C   UNL     1       3.433   4.527  18.752  0.00  0.00    +0.000 A 
ATOM      7  C   UNL     1       3.260   5.096  20.022  0.00  0.00    +0.000 A 
ATOM      8  C   UNL     1       2.059   4.917  20.710  0.00  0.00    +0.000 A 
ATOM      9  C   UNL     1       1.036   4.163  20.134  0.00  0.00    +0.000 A 
ATOM     10  C   UNL     1       1.200   3.611  18.863  0.00  0.00    +0.000 A 
ATOM     11  C   UNL     1       2.395   3.803  18.174  0.00  0.00    +0.000 A 
ATOM     12  F   UNL     1       2.527   3.261  16.954  0.00  0.00    +0.000 F 
ENDBRANCH   3   6
ENDBRANCH   1   2
BRANCH   1  13
ATOM     13  C   UNL     1       7.153   6.457  17.311  0.00  0.00    +0.000 C 
ATOM     14  O   UNL     1       7.828   5.758  18.066  0.00  0.00    +0.000 OA
ATOM     15  N   UNL     1       7.233   7.835  17.296  0.00  0.00    +0.000 N 
ATOM     16  H   UNL     1       6.839   8.298  16.473  0.00  0.00    +0.000 HD
BRANCH  15  17
ATOM     17  C   UNL     1       8.204   8.550  18.096  0.00  0.00    +0.000 C 
BRANCH  17  18
ATOM     18  C   UNL     1       8.230  10.047  17.798  0.00  0.00    +0.000 C 
BRANCH  18  19
ATOM     19  C   UNL     1       9.347  10.719  18.552  0.00  0.00    +0.000 A 
ATOM     20  C   UNL     1      10.436  11.256  17.867  0.00  0.00    +0.000 A 
ATOM     21  C   UNL     1      11.433  11.905  18.593  0.00  0.00    +0.000 A 
ATOM     22  C   UNL     1      11.317  12.002  19.973  0.00  0.00    +0.000 A 
ATOM     23  C   UNL     1      10.202  11.447  20.576  0.00  0.00    +0.000 A 
ATOM     24  N   UNL     1       9.217  10.810  19.896  0.00  0.00    +0.000 NA
ENDBRANCH  18  19
ENDBRANCH  17  18
ENDBRANCH  15  17
ENDBRANCH   1  13
BRANCH   1  26
ATOM     25  C   UNL     1       5.584   3.688  15.048  0.00  0.00    +0.000 C 
ATOM     26  C   UNL     1       6.678   4.639  15.548  0.00  0.00    +0.000 C 
ATOM     27  C   UNL     1       7.498   5.112  14.341  0.00  0.00    +0.000 C 
ENDBRANCH   1  26
TORSDOF 7
ENDMDL
MODEL 7
REMARK VINA RESULT:      -7.6      3.991      5.799
REMARK  Name = 
REMARK  9 active torsions:
REMARK  status: ('A' for Active; 'I' for Inactive)
REMARK    1  A    between atoms: C_1  and  C_2
REMARK    2  A    between atoms: C_2  and  C_3
REMARK    3  A    between atoms: C_2  and  C_4
REMARK    4  A    between atoms: C_4  and  N_5
REMARK    5  A    between atoms: C_4  and  C_15
REMARK    6  A    between atoms: C_6  and  C_8
REMARK    7  A    between atoms: N_17  and  C_18
REMARK    8  A    between atoms: C_18  and  C_19
REMARK    9  A    between atoms: C_19  and  C_20
REMARK                            x       y       z     vdW  Elec       q    Type
REMARK                         _______ _______ _______ _____ _____    ______ ____
ROOT
ATOM      1  C   UNL     1       3.207   4.255  19.082  0.00  0.00    +0.000 C 
ENDROOT
BRANCH   1   2
ATOM      2  N   UNL     1       2.639   5.513  19.585  0.00  0.00    +0.000 N 
ATOM      3  C   UNL     1       2.596   6.687  18.873  0.00  0.00    +0.000 C 
ATOM      4  O   UNL     1       3.031   6.802  17.728  0.00  0.00    +0.000 OA
ATOM      5  H   UNL     1       2.251   5.496  20.520  0.00  0.00    +0.000 HD
BRANCH   3   6
ATOM      6  C   UNL     1       1.937   7.846  19.498  0.00  0.00    +0.000 A 
ATOM      7  C   UNL     1       1.580   7.766  20.852  0.00  0.00    +0.000 A 
ATOM      8  C   UNL     1       0.876   8.811  21.451  0.00  0.00    +0.000 A 
ATOM      9  C   UNL     1       0.521   9.930  20.699  0.00  0.00    +0.000 A 
ATOM     10  C   UNL     1       0.890  10.019  19.356  0.00  0.00    +0.000 A 
ATOM     11  C   UNL     1       1.604   8.980  18.764  0.00  0.00    +0.000 A 
ATOM     12  F   UNL     1       1.946   9.091  17.471  0.00  0.00    +0.000 F 
ENDBRANCH   3   6
ENDBRANCH   1   2
BRANCH   1  13
ATOM     13  C   UNL     1       4.727   4.190  19.395  0.00  0.00    +0.000 C 
ATOM     14  O   UNL     1       5.252   3.175  19.850  0.00  0.00    +0.000 OA
ATOM     15  N   UNL     1       5.427   5.359  19.172  0.00  0.00    +0.000 N 
ATOM     16  H   UNL     1       4.973   6.044  18.562  0.00  0.00    +0.000 HD
BRANCH  15  17
ATOM     17  C   UNL     1       6.859   5.436  19.356  0.00  0.00    +0.000 C 
BRANCH  17  18
ATOM     18  C   UNL     1       7.641   4.968  18.131  0.00  0.00    +0.000 C 
BRANCH  18  19
ATOM     19  C   UNL     1       6.816   5.130  16.881  0.00  0.00    +0.000 A 
ATOM     20  C   UNL     1       6.531   4.028  16.077  0.00  0.00    +0.000 A 
ATOM     21  C   UNL     1       5.733   4.207  14.949  0.00  0.00    +0.000 A 
ATOM     22  C   UNL     1       5.242   5.472  14.657  0.00  0.00    +0.000 A 
ATOM     23  C   UNL     1       5.567   6.513  15.509  0.00  0.00    +0.000 A 
ATOM     24  N   UNL     1       6.341   6.368  16.612  0.00  0.00    +0.000 NA
ENDBRANCH  18  19
ENDBRANCH  17  18
ENDBRANCH  15  17
ENDBRANCH   1  13
BRANCH   1  26
ATOM     25  C   UNL     1       1.639   3.217  20.828  0.00  0.00    +0.000 C 
ATOM     26  C   UNL     1       2.457   2.984  19.551  0.00  0.00    +0.000 C 
ATOM     27  C   UNL     1       1.513   2.462  18.460  0.00  0.00    +0.000 C 
ENDBRANCH   1  26
TORSDOF 7
ENDMDL
MODEL 8
REMARK VINA RESULT:      -7.6      3.124      5.537
REMARK  Name = 
REMARK  9 active torsions:
REMARK  status: ('A' for Active; 'I' for Inactive)
REMARK    1  A    between atoms: C_1  and  C_2
REMARK    2  A    between atoms: C_2  and  C_3
REMARK    3  A    between atoms: C_2  and  C_4
REMARK    4  A    between atoms: C_4  and  N_5
REMARK    5  A    between atoms: C_4  and  C_15
REMARK    6  A    between atoms: C_6  and  C_8
REMARK    7  A    between atoms: N_17  and  C_18
REMARK    8  A    between atoms: C_18  and  C_19
REMARK    9  A    between atoms: C_19  and  C_20
REMARK                            x       y       z     vdW  Elec       q    Type
REMARK                         _______ _______ _______ _____ _____    ______ ____
ROOT
ATOM      1  C   UNL     1       2.077   3.729  19.280  0.00  0.00    +0.000 C 
ENDROOT
BRANCH   1   2
ATOM      2  N   UNL     1       1.765   5.163  19.214  0.00  0.00    +0.000 N 
ATOM      3  C   UNL     1       2.679   6.168  19.418  0.00  0.00    +0.000 C 
ATOM      4  O   UNL     1       3.865   5.965  19.674  0.00  0.00    +0.000 OA
ATOM      5  H   UNL     1       0.808   5.411  18.997  0.00  0.00    +0.000 HD
BRANCH   3   6
ATOM      6  C   UNL     1       2.219   7.558  19.255  0.00  0.00    +0.000 A 
ATOM      7  C   UNL     1       1.455   8.135  20.280  0.00  0.00    +0.000 A 
ATOM      8  C   UNL     1       0.930   9.418  20.121  0.00  0.00    +0.000 A 
ATOM      9  C   UNL     1       1.161  10.120  18.938  0.00  0.00    +0.000 A 
ATOM     10  C   UNL     1       1.936   9.554  17.925  0.00  0.00    +0.000 A 
ATOM     11  C   UNL     1       2.470   8.279  18.092  0.00  0.00    +0.000 A 
ATOM     12  F   UNL     1       3.211   7.757  17.103  0.00  0.00    +0.000 F 
ENDBRANCH   3   6
ENDBRANCH   1   2
BRANCH   1  13
ATOM     13  C   UNL     1       2.819   3.281  17.990  0.00  0.00    +0.000 C 
ATOM     14  O   UNL     1       2.384   2.381  17.273  0.00  0.00    +0.000 OA
ATOM     15  N   UNL     1       4.012   3.927  17.740  0.00  0.00    +0.000 N 
ATOM     16  H   UNL     1       4.153   4.815  18.229  0.00  0.00    +0.000 HD
BRANCH  15  17
ATOM     17  C   UNL     1       4.784   3.664  16.545  0.00  0.00    +0.000 C 
BRANCH  17  18
ATOM     18  C   UNL     1       5.333   4.935  15.901  0.00  0.00    +0.000 C 
BRANCH  18  19
ATOM     19  C   UNL     1       6.264   5.649  16.844  0.00  0.00    +0.000 A 
ATOM     20  C   UNL     1       6.950   4.940  17.829  0.00  0.00    +0.000 A 
ATOM     21  C   UNL     1       7.833   5.626  18.660  0.00  0.00    +0.000 A 
ATOM     22  C   UNL     1       8.011   6.992  18.485  0.00  0.00    +0.000 A 
ATOM     23  C   UNL     1       7.295   7.621  17.481  0.00  0.00    +0.000 A 
ATOM     24  N   UNL     1       6.429   6.980  16.659  0.00  0.00    +0.000 NA
ENDBRANCH  18  19
ENDBRANCH  17  18
ENDBRANCH  15  17
ENDBRANCH   1  13
BRANCH   1  26
ATOM     25  C   UNL     1       1.887   2.689  21.617  0.00  0.00    +0.000 C 
ATOM     26  C   UNL     1       2.824   3.296  20.566  0.00  0.00    +0.000 C 
ATOM     27  C   UNL     1       3.926   2.276  20.252  0.00  0.00    +0.000 C 
ENDBRANCH   1  26
TORSDOF 7
ENDMDL
MODEL 9
REMARK VINA RESULT:      -7.6      4.686      7.789
REMARK  Name = 
REMARK  9 active torsions:
REMARK  status: ('A' for Active; 'I' for Inactive)
REMARK    1  A    between atoms: C_1  and  C_2
REMARK    2  A    between atoms: C_2  and  C_3
REMARK    3  A    between atoms: C_2  and  C_4
REMARK    4  A    between atoms: C_4  and  N_5
REMARK    5  A    between atoms: C_4  and  C_15
REMARK    6  A    between atoms: C_6  and  C_8
REMARK    7  A    between atoms: N_17  and  C_18
REMARK    8  A    between atoms: C_18  and  C_19
REMARK    9  A    between atoms: C_19  and  C_20
REMARK                            x       y       z     vdW  Elec       q    Type
REMARK                         _______ _______ _______ _____ _____    ______ ____
ROOT
ATOM      1  C   UNL     1       2.837   5.864  19.708  0.00  0.00    +0.000 C 
ENDROOT
BRANCH   1   2
ATOM      2  N   UNL     1       3.597   5.626  18.474  0.00  0.00    +0.000 N 
ATOM      3  C   UNL     1       4.933   5.311  18.431  0.00  0.00    +0.000 C 
ATOM      4  O   UNL     1       5.634   5.190  19.435  0.00  0.00    +0.000 OA
ATOM      5  H   UNL     1       3.084   5.698  17.603  0.00  0.00    +0.000 HD
BRANCH   3   6
ATOM      6  C   UNL     1       5.534   5.042  17.114  0.00  0.00    +0.000 A 
ATOM      7  C   UNL     1       4.820   4.253  16.200  0.00  0.00    +0.000 A 
ATOM      8  C   UNL     1       5.398   3.907  14.977  0.00  0.00    +0.000 A 
ATOM      9  C   UNL     1       6.688   4.339  14.672  0.00  0.00    +0.000 A 
ATOM     10  C   UNL     1       7.392   5.139  15.574  0.00  0.00    +0.000 A 
ATOM     11  C   UNL     1       6.808   5.494  16.787  0.00  0.00    +0.000 A 
ATOM     12  F   UNL     1       7.507   6.263  17.635  0.00  0.00    +0.000 F 
ENDBRANCH   3   6
ENDBRANCH   1   2
BRANCH   1  13
ATOM     13  C   UNL     1       2.217   7.289  19.691  0.00  0.00    +0.000 C 
ATOM     14  O   UNL     1       2.382   8.055  18.743  0.00  0.00    +0.000 OA
ATOM     15  N   UNL     1       1.518   7.643  20.827  0.00  0.00    +0.000 N 
ATOM     16  H   UNL     1       1.218   6.871  21.428  0.00  0.00    +0.000 HD
BRANCH  15  17
ATOM     17  C   UNL     1       0.831   8.912  20.933  0.00  0.00    +0.000 C 
BRANCH  17  18
ATOM     18  C   UNL     1       0.535   9.307  22.378  0.00  0.00    +0.000 C 
BRANCH  18  19
ATOM     19  C   UNL     1      -0.165  10.639  22.431  0.00  0.00    +0.000 A 
ATOM     20  C   UNL     1      -1.329  10.794  23.183  0.00  0.00    +0.000 A 
ATOM     21  C   UNL     1      -1.930  12.049  23.241  0.00  0.00    +0.000 A 
ATOM     22  C   UNL     1      -1.356  13.111  22.555  0.00  0.00    +0.000 A 
ATOM     23  C   UNL     1      -0.197  12.875  21.836  0.00  0.00    +0.000 A 
ATOM     24  N   UNL     1       0.409  11.665  21.761  0.00  0.00    +0.000 NA
ENDBRANCH  18  19
ENDBRANCH  17  18
ENDBRANCH  15  17
ENDBRANCH   1  13
BRANCH   1  26
ATOM     25  C   UNL     1       1.491   3.862  18.833  0.00  0.00    +0.000 C 
ATOM     26  C   UNL     1       1.787   4.772  20.032  0.00  0.00    +0.000 C 
ATOM     27  C   UNL     1       2.244   3.894  21.205  0.00  0.00    +0.000 C 
ENDBRANCH   1  26
TORSDOF 7
ENDMDL
