MODEL 1
REMARK VINA RESULT:      -8.0      0.000      0.000
REMARK  Name = 
REMARK  5 active torsions:
REMARK  status: ('A' for Active; 'I' for Inactive)
REMARK    1  A    between atoms: C_1  and  N_2
REMARK    2  A    between atoms: C_8  and  N_9
REMARK    3  A    between atoms: C_10  and  C_12
REMARK    4  A    between atoms: N_14  and  S_15
REMARK    5  A    between atoms: S_15  and  C_16
REMARK                            x       y       z     vdW  Elec       q    Type
REMARK                         _______ _______ _______ _____ _____    ______ ____
ROOT
ATOM      1  N   UNL     1       2.165   6.974  18.926  0.00  0.00    +0.000 N 
ATOM      2  C   UNL     1       2.265   8.257  18.456  0.00  0.00    +0.000 C 
ATOM      3  O   UNL     1       3.152   8.640  17.704  0.00  0.00    +0.000 OA
ATOM      4  H   UNL     1       1.276   6.794  19.384  0.00  0.00    +0.000 HD
ENDROOT
BRANCH   1  12
ATOM      5  C   UNL     1       2.367   1.751  19.489  0.00  0.00    +0.000 C 
ATOM      6  N   UNL     1       2.596   3.135  19.135  0.00  0.00    +0.000 NA
ATOM      7  C   UNL     1       1.363   3.874  18.870  0.00  0.00    +0.000 C 
ATOM      8  C   UNL     1       0.948   4.410  20.249  0.00  0.00    +0.000 C 
ATOM      9  C   UNL     1       2.241   4.544  21.047  0.00  0.00    +0.000 C 
ATOM     10  C   UNL     1       3.306   3.988  20.103  0.00  0.00    +0.000 C 
ATOM     11  C   UNL     1       3.912   5.160  19.296  0.00  0.00    +0.000 C 
ATOM     12  C   UNL     1       2.892   5.853  18.345  0.00  0.00    +0.000 C 
ATOM     13  C   UNL     1       1.851   4.866  17.805  0.00  0.00    +0.000 C 
ENDBRANCH   1  12
BRANCH   2  14
ATOM     14  C   UNL     1       1.183   9.135  18.929  0.00  0.00    +0.000 A 
ATOM     15  N   UNL     1       0.438   9.894  18.093  0.00  0.00    +0.000 NA
ATOM     16  N   UNL     1      -0.396  10.572  18.939  0.00  0.00    +0.000 N 
ATOM     17  C   UNL     1      -0.198  10.283  20.276  0.00  0.00    +0.000 A 
ATOM     18  C   UNL     1      -0.788  10.753  21.460  0.00  0.00    +0.000 A 
ATOM     19  C   UNL     1      -0.317  10.228  22.666  0.00  0.00    +0.000 A 
ATOM     20  C   UNL     1       0.689   9.273  22.701  0.00  0.00    +0.000 A 
ATOM     21  C   UNL     1       1.269   8.816  21.516  0.00  0.00    +0.000 A 
ATOM     22  C   UNL     1       0.821   9.336  20.288  0.00  0.00    +0.000 A 
BRANCH  16  23
ATOM     23  S   UNL     1      -1.543  11.753  18.441  0.00  0.00    +0.000 S 
ATOM     24  C   UNL     1      -2.308  11.188  16.947  0.00  0.00    +0.000 C 
ATOM     25  O   UNL     1      -2.557  11.767  19.491  0.00  0.00    +0.000 OA
ATOM     26  O   UNL     1      -0.760  12.934  18.136  0.00  0.00    +0.000 OA
ENDBRANCH  16  23
ENDBRANCH   2  14
TORSDOF 3
ENDMDL
MODEL 2
REMARK VINA RESULT:      -7.7      0.914      1.161
REMARK  Name = 
REMARK  5 active torsions:
REMARK  status: ('A' for Active; 'I' for Inactive)
REMARK    1  A    between atoms: C_1  and  N_2
REMARK    2  A    between atoms: C_8  and  N_9
REMARK    3  A    between atoms: C_10  and  C_12
REMARK    4  A    between atoms: N_14  and  S_15
REMARK    5  A    between atoms: S_15  and  C_16
REMARK                            x       y       z     vdW  Elec       q    Type
REMARK                         _______ _______ _______ _____ _____    ______ ____
ROOT
ATOM      1  N   UNL     1       2.384   7.326  18.848  0.00  0.00    +0.000 N 
ATOM      2  C   UNL     1       2.160   8.499  18.180  0.00  0.00    +0.000 C 
ATOM      3  O   UNL     1       2.718   8.805  17.134  0.00  0.00    +0.000 OA
ATOM      4  H   UNL     1       1.708   7.163  19.590  0.00  0.00    +0.000 HD
ENDROOT
BRANCH   1  12
ATOM      5  C   UNL     1       2.411   2.098  19.409  0.00  0.00    +0.000 C 
ATOM      6  N   UNL     1       2.679   3.473  19.047  0.00  0.00    +0.000 NA
ATOM      7  C   UNL     1       1.466   4.257  18.821  0.00  0.00    +0.000 C 
ATOM      8  C   UNL     1       1.115   4.807  20.212  0.00  0.00    +0.000 C 
ATOM      9  C   UNL     1       2.437   4.893  20.968  0.00  0.00    +0.000 C 
ATOM     10  C   UNL     1       3.451   4.299  19.991  0.00  0.00    +0.000 C 
ATOM     11  C   UNL     1       4.073   5.448  19.165  0.00  0.00    +0.000 C 
ATOM     12  C   UNL     1       3.050   6.178  18.246  0.00  0.00    +0.000 C 
ATOM     13  C   UNL     1       1.957   5.231  17.740  0.00  0.00    +0.000 C 
ENDBRANCH   1  12
BRANCH   2  14
ATOM     14  C   UNL     1       1.160   9.359  18.833  0.00  0.00    +0.000 A 
ATOM     15  N   UNL     1       0.459  10.304  18.165  0.00  0.00    +0.000 NA
ATOM     16  N   UNL     1      -0.301  10.884  19.143  0.00  0.00    +0.000 N 
ATOM     17  C   UNL     1      -0.097  10.355  20.404  0.00  0.00    +0.000 A 
ATOM     18  C   UNL     1      -0.624  10.654  21.670  0.00  0.00    +0.000 A 
ATOM     19  C   UNL     1      -0.169   9.895  22.752  0.00  0.00    +0.000 A 
ATOM     20  C   UNL     1       0.760   8.878  22.588  0.00  0.00    +0.000 A 
ATOM     21  C   UNL     1       1.277   8.592  21.323  0.00  0.00    +0.000 A 
ATOM     22  C   UNL     1       0.844   9.347  20.219  0.00  0.00    +0.000 A 
BRANCH  16  23
ATOM     23  S   UNL     1      -1.363  12.214  18.894  0.00  0.00    +0.000 S 
ATOM     24  C   UNL     1      -1.032  13.429  20.138  0.00  0.00    +0.000 C 
ATOM     25  O   UNL     1      -0.979  12.773  17.602  0.00  0.00    +0.000 OA
ATOM     26  O   UNL     1      -2.693  11.681  19.117  0.00  0.00    +0.000 OA
ENDBRANCH  16  23
ENDBRANCH   2  14
TORSDOF 3
ENDMDL
MODEL 3
REMARK VINA RESULT:      -7.2      1.535      2.891
REMARK  Name = 
REMARK  5 active torsions:
REMARK  status: ('A' for Active; 'I' for Inactive)
REMARK    1  A    between atoms: C_1  and  N_2
REMARK    2  A    between atoms: C_8  and  N_9
REMARK    3  A    between atoms: C_10  and  C_12
REMARK    4  A    between atoms: N_14  and  S_15
REMARK    5  A    between atoms: S_15  and  C_16
REMARK                            x       y       z     vdW  Elec       q    Type
REMARK                         _______ _______ _______ _____ _____    ______ ____
ROOT
ATOM      1  N   UNL     1       2.188   7.416  18.891  0.00  0.00    +0.000 N 
ATOM      2  C   UNL     1       1.986   8.604  18.241  0.00  0.00    +0.000 C 
ATOM      3  O   UNL     1       2.591   8.939  17.230  0.00  0.00    +0.000 OA
ATOM      4  H   UNL     1       1.478   7.231  19.595  0.00  0.00    +0.000 HD
ENDROOT
BRANCH   1  12
ATOM      5  C   UNL     1       2.436   2.202  19.522  0.00  0.00    +0.000 C 
ATOM      6  N   UNL     1       2.642   3.582  19.137  0.00  0.00    +0.000 NA
ATOM      7  C   UNL     1       1.395   4.313  18.921  0.00  0.00    +0.000 C 
ATOM      8  C   UNL     1       1.045   4.868  20.309  0.00  0.00    +0.000 C 
ATOM      9  C   UNL     1       2.374   5.018  21.042  0.00  0.00    +0.000 C 
ATOM     10  C   UNL     1       3.395   4.451  20.057  0.00  0.00    +0.000 C 
ATOM     11  C   UNL     1       3.957   5.613  19.204  0.00  0.00    +0.000 C 
ATOM     12  C   UNL     1       2.890   6.288  18.293  0.00  0.00    +0.000 C 
ATOM     13  C   UNL     1       1.828   5.290  17.818  0.00  0.00    +0.000 C 
ENDBRANCH   1  12
BRANCH   2  14
ATOM     14  C   UNL     1       0.950   9.441  18.867  0.00  0.00    +0.000 A 
ATOM     15  N   UNL     1       1.069   9.936  20.120  0.00  0.00    +0.000 NA
ATOM     16  N   UNL     1      -0.113  10.597  20.313  0.00  0.00    +0.000 N 
ATOM     17  C   UNL     1      -0.979  10.527  19.237  0.00  0.00    +0.000 A 
ATOM     18  C   UNL     1      -2.274  11.020  19.010  0.00  0.00    +0.000 A 
ATOM     19  C   UNL     1      -2.860  10.742  17.773  0.00  0.00    +0.000 A 
ATOM     20  C   UNL     1      -2.192  10.016  16.797  0.00  0.00    +0.000 A 
ATOM     21  C   UNL     1      -0.905   9.531  17.036  0.00  0.00    +0.000 A 
ATOM     22  C   UNL     1      -0.295   9.787  18.278  0.00  0.00    +0.000 A 
BRANCH  16  23
ATOM     23  S   UNL     1      -0.565  11.385  21.773  0.00  0.00    +0.000 S 
ATOM     24  C   UNL     1      -0.586  10.181  23.070  0.00  0.00    +0.000 C 
ATOM     25  O   UNL     1       0.515  12.328  22.049  0.00  0.00    +0.000 OA
ATOM     26  O   UNL     1      -1.923  11.841  21.550  0.00  0.00    +0.000 OA
ENDBRANCH  16  23
ENDBRANCH   2  14
TORSDOF 3
ENDMDL
MODEL 4
REMARK VINA RESULT:      -7.2      2.184      2.982
REMARK  Name = 
REMARK  5 active torsions:
REMARK  status: ('A' for Active; 'I' for Inactive)
REMARK    1  A    between atoms: C_1  and  N_2
REMARK    2  A    between atoms: C_8  and  N_9
REMARK    3  A    between atoms: C_10  and  C_12
REMARK    4  A    between atoms: N_14  and  S_15
REMARK    5  A    between atoms: S_15  and  C_16
REMARK                            x       y       z     vdW  Elec       q    Type
REMARK                         _______ _______ _______ _____ _____    ______ ____
ROOT
ATOM      1  N   UNL     1       2.526   6.768  19.261  0.00  0.00    +0.000 N 
ATOM      2  C   UNL     1       2.247   8.006  18.748  0.00  0.00    +0.000 C 
ATOM      3  O   UNL     1       2.711   8.428  17.696  0.00  0.00    +0.000 OA
ATOM      4  H   UNL     1       1.918   6.521  20.037  0.00  0.00    +0.000 HD
ENDROOT
BRANCH   1  12
ATOM      5  C   UNL     1       2.206   1.531  18.920  0.00  0.00    +0.000 C 
ATOM      6  N   UNL     1       2.570   2.926  18.802  0.00  0.00    +0.000 NA
ATOM      7  C   UNL     1       1.415   3.817  18.699  0.00  0.00    +0.000 C 
ATOM      8  C   UNL     1       1.069   4.145  20.159  0.00  0.00    +0.000 C 
ATOM      9  C   UNL     1       2.376   4.013  20.934  0.00  0.00    +0.000 C 
ATOM     10  C   UNL     1       3.371   3.527  19.882  0.00  0.00    +0.000 C 
ATOM     11  C   UNL     1       4.084   4.755  19.271  0.00  0.00    +0.000 C 
ATOM     12  C   UNL     1       3.131   5.698  18.479  0.00  0.00    +0.000 C 
ATOM     13  C   UNL     1       1.991   4.925  17.806  0.00  0.00    +0.000 C 
ENDBRANCH   1  12
BRANCH   2  14
ATOM     14  C   UNL     1       1.314   8.783  19.578  0.00  0.00    +0.000 A 
ATOM     15  N   UNL     1       1.303   8.711  20.929  0.00  0.00    +0.000 NA
ATOM     16  N   UNL     1       0.271   9.536  21.282  0.00  0.00    +0.000 N 
ATOM     17  C   UNL     1      -0.379  10.115  20.208  0.00  0.00    +0.000 A 
ATOM     18  C   UNL     1      -1.479  10.982  20.102  0.00  0.00    +0.000 A 
ATOM     19  C   UNL     1      -1.875  11.364  18.818  0.00  0.00    +0.000 A 
ATOM     20  C   UNL     1      -1.208  10.917  17.686  0.00  0.00    +0.000 A 
ATOM     21  C   UNL     1      -0.116  10.054  17.806  0.00  0.00    +0.000 A 
ATOM     22  C   UNL     1       0.297   9.645  19.087  0.00  0.00    +0.000 A 
BRANCH  16  23
ATOM     23  S   UNL     1      -0.265   9.796  22.896  0.00  0.00    +0.000 S 
ATOM     24  C   UNL     1      -0.962  11.420  22.995  0.00  0.00    +0.000 C 
ATOM     25  O   UNL     1      -1.339   8.830  23.102  0.00  0.00    +0.000 OA
ATOM     26  O   UNL     1       0.940   9.764  23.702  0.00  0.00    +0.000 OA
ENDBRANCH  16  23
ENDBRANCH   2  14
TORSDOF 3
ENDMDL
MODEL 5
REMARK VINA RESULT:      -7.1      2.328      2.975
REMARK  Name = 
REMARK  5 active torsions:
REMARK  status: ('A' for Active; 'I' for Inactive)
REMARK    1  A    between atoms: C_1  and  N_2
REMARK    2  A    between atoms: C_8  and  N_9
REMARK    3  A    between atoms: C_10  and  C_12
REMARK    4  A    between atoms: N_14  and  S_15
REMARK    5  A    between atoms: S_15  and  C_16
REMARK                            x       y       z     vdW  Elec       q    Type
REMARK                         _______ _______ _______ _____ _____    ______ ____
ROOT
ATOM      1  N   UNL     1       2.659   7.029  18.927  0.00  0.00    +0.000 N 
ATOM      2  C   UNL     1       2.236   8.244  18.459  0.00  0.00    +0.000 C 
ATOM      3  O   UNL     1       2.353   8.604  17.294  0.00  0.00    +0.000 OA
ATOM      4  H   UNL     1       2.319   6.833  19.865  0.00  0.00    +0.000 HD
ENDROOT
BRANCH   1  12
ATOM      5  C   UNL     1       2.159   1.795  18.940  0.00  0.00    +0.000 C 
ATOM      6  N   UNL     1       2.498   3.173  18.657  0.00  0.00    +0.000 NA
ATOM      7  C   UNL     1       1.379   4.094  18.847  0.00  0.00    +0.000 C 
ATOM      8  C   UNL     1       1.474   4.491  20.328  0.00  0.00    +0.000 C 
ATOM      9  C   UNL     1       2.946   4.349  20.701  0.00  0.00    +0.000 C 
ATOM     10  C   UNL     1       3.587   3.791  19.432  0.00  0.00    +0.000 C 
ATOM     11  C   UNL     1       4.117   4.971  18.585  0.00  0.00    +0.000 C 
ATOM     12  C   UNL     1       2.993   5.911  18.056  0.00  0.00    +0.000 C 
ATOM     13  C   UNL     1       1.694   5.147  17.776  0.00  0.00    +0.000 C 
ENDBRANCH   1  12
BRANCH   2  14
ATOM     14  C   UNL     1       1.603   9.078  19.493  0.00  0.00    +0.000 A 
ATOM     15  N   UNL     1       1.137   8.570  20.658  0.00  0.00    +0.000 NA
ATOM     16  N   UNL     1       0.598   9.660  21.285  0.00  0.00    +0.000 N 
ATOM     17  C   UNL     1       0.692  10.832  20.558  0.00  0.00    +0.000 A 
ATOM     18  C   UNL     1       0.262  12.148  20.792  0.00  0.00    +0.000 A 
ATOM     19  C   UNL     1       0.531  13.099  19.804  0.00  0.00    +0.000 A 
ATOM     20  C   UNL     1       1.205  12.766  18.637  0.00  0.00    +0.000 A 
ATOM     21  C   UNL     1       1.626  11.453  18.416  0.00  0.00    +0.000 A 
ATOM     22  C   UNL     1       1.358  10.474  19.390  0.00  0.00    +0.000 A 
BRANCH  16  23
ATOM     23  S   UNL     1      -0.212   9.613  22.801  0.00  0.00    +0.000 S 
ATOM     24  C   UNL     1      -1.271  11.028  22.910  0.00  0.00    +0.000 C 
ATOM     25  O   UNL     1      -1.053   8.422  22.748  0.00  0.00    +0.000 OA
ATOM     26  O   UNL     1       0.837   9.749  23.793  0.00  0.00    +0.000 OA
ENDBRANCH  16  23
ENDBRANCH   2  14
TORSDOF 3
ENDMDL
MODEL 6
REMARK VINA RESULT:      -7.0      3.040      7.063
REMARK  Name = 
REMARK  5 active torsions:
REMARK  status: ('A' for Active; 'I' for Inactive)
REMARK    1  A    between atoms: C_1  and  N_2
REMARK    2  A    between atoms: C_8  and  N_9
REMARK    3  A    between atoms: C_10  and  C_12
REMARK    4  A    between atoms: N_14  and  S_15
REMARK    5  A    between atoms: S_15  and  C_16
REMARK                            x       y       z     vdW  Elec       q    Type
REMARK                         _______ _______ _______ _____ _____    ______ ____
ROOT
ATOM      1  N   UNL     1       1.465   8.749  19.100  0.00  0.00    +0.000 N 
ATOM      2  C   UNL     1       2.281   8.420  18.050  0.00  0.00    +0.000 C 
ATOM      3  O   UNL     1       2.354   9.069  17.015  0.00  0.00    +0.000 OA
ATOM      4  H   UNL     1       1.667   8.208  19.936  0.00  0.00    +0.000 HD
ENDROOT
BRANCH   1  12
ATOM      5  C   UNL     1      -0.871  11.549  22.888  0.00  0.00    +0.000 C 
ATOM      6  N   UNL     1      -0.349  11.035  21.640  0.00  0.00    +0.000 NA
ATOM      7  C   UNL     1       0.986  10.455  21.768  0.00  0.00    +0.000 C 
ATOM      8  C   UNL     1       0.719   8.986  22.132  0.00  0.00    +0.000 C 
ATOM      9  C   UNL     1      -0.646   8.655  21.538  0.00  0.00    +0.000 C 
ATOM     10  C   UNL     1      -1.116   9.984  20.949  0.00  0.00    +0.000 C 
ATOM     11  C   UNL     1      -0.699  10.040  19.461  0.00  0.00    +0.000 C 
ATOM     12  C   UNL     1       0.843  10.058  19.247  0.00  0.00    +0.000 C 
ATOM     13  C   UNL     1       1.571  10.781  20.386  0.00  0.00    +0.000 C 
ENDBRANCH   1  12
BRANCH   2  14
ATOM     14  C   UNL     1       3.083   7.211  18.295  0.00  0.00    +0.000 A 
ATOM     15  N   UNL     1       4.234   6.951  17.633  0.00  0.00    +0.000 NA
ATOM     16  N   UNL     1       4.613   5.731  18.124  0.00  0.00    +0.000 N 
ATOM     17  C   UNL     1       3.741   5.205  19.058  0.00  0.00    +0.000 A 
ATOM     18  C   UNL     1       3.716   4.002  19.782  0.00  0.00    +0.000 A 
ATOM     19  C   UNL     1       2.645   3.798  20.656  0.00  0.00    +0.000 A 
ATOM     20  C   UNL     1       1.645   4.747  20.815  0.00  0.00    +0.000 A 
ATOM     21  C   UNL     1       1.680   5.938  20.087  0.00  0.00    +0.000 A 
ATOM     22  C   UNL     1       2.742   6.164  19.193  0.00  0.00    +0.000 A 
BRANCH  16  23
ATOM     23  S   UNL     1       5.993   4.852  17.596  0.00  0.00    +0.000 S 
ATOM     24  C   UNL     1       7.028   5.947  16.666  0.00  0.00    +0.000 C 
ATOM     25  O   UNL     1       6.704   4.487  18.818  0.00  0.00    +0.000 OA
ATOM     26  O   UNL     1       5.474   3.840  16.698  0.00  0.00    +0.000 OA
ENDBRANCH  16  23
ENDBRANCH   2  14
TORSDOF 3
ENDMDL
MODEL 7
REMARK VINA RESULT:      -7.0      3.019      4.354
REMARK  Name = 
REMARK  5 active torsions:
REMARK  status: ('A' for Active; 'I' for Inactive)
REMARK    1  A    between atoms: C_1  and  N_2
REMARK    2  A    between atoms: C_8  and  N_9
REMARK    3  A    between atoms: C_10  and  C_12
REMARK    4  A    between atoms: N_14  and  S_15
REMARK    5  A    between atoms: S_15  and  C_16
REMARK                            x       y       z     vdW  Elec       q    Type
REMARK                         _______ _______ _______ _____ _____    ______ ____
ROOT
ATOM      1  N   UNL     1       2.960   5.355  18.856  0.00  0.00    +0.000 N 
ATOM      2  C   UNL     1       2.273   5.443  20.037  0.00  0.00    +0.000 C 
ATOM      3  O   UNL     1       2.076   4.492  20.783  0.00  0.00    +0.000 OA
ATOM      4  H   UNL     1       3.181   6.267  18.464  0.00  0.00    +0.000 HD
ENDROOT
BRANCH   1  12
ATOM      5  C   UNL     1       7.565   4.516  16.461  0.00  0.00    +0.000 C 
ATOM      6  N   UNL     1       6.271   4.399  17.098  0.00  0.00    +0.000 NA
ATOM      7  C   UNL     1       6.101   5.306  18.231  0.00  0.00    +0.000 C 
ATOM      8  C   UNL     1       5.548   6.591  17.597  0.00  0.00    +0.000 C 
ATOM      9  C   UNL     1       4.814   6.148  16.336  0.00  0.00    +0.000 C 
ATOM     10  C   UNL     1       5.072   4.643  16.279  0.00  0.00    +0.000 C 
ATOM     11  C   UNL     1       3.903   3.914  16.981  0.00  0.00    +0.000 C 
ATOM     12  C   UNL     1       3.804   4.221  18.505  0.00  0.00    +0.000 C 
ATOM     13  C   UNL     1       5.181   4.467  19.130  0.00  0.00    +0.000 C 
ENDBRANCH   1  12
BRANCH   2  14
ATOM     14  C   UNL     1       1.807   6.805  20.339  0.00  0.00    +0.000 A 
ATOM     15  N   UNL     1       1.239   7.139  21.521  0.00  0.00    +0.000 NA
ATOM     16  N   UNL     1       0.920   8.459  21.357  0.00  0.00    +0.000 N 
ATOM     17  C   UNL     1       1.249   8.968  20.115  0.00  0.00    +0.000 A 
ATOM     18  C   UNL     1       1.083  10.226  19.515  0.00  0.00    +0.000 A 
ATOM     19  C   UNL     1       1.542  10.381  18.205  0.00  0.00    +0.000 A 
ATOM     20  C   UNL     1       2.148   9.338  17.518  0.00  0.00    +0.000 A 
ATOM     21  C   UNL     1       2.306   8.091  18.126  0.00  0.00    +0.000 A 
ATOM     22  C   UNL     1       1.842   7.905  19.441  0.00  0.00    +0.000 A 
BRANCH  16  23
ATOM     23  S   UNL     1       0.102   9.418  22.527  0.00  0.00    +0.000 S 
ATOM     24  C   UNL     1      -0.351  10.952  21.768  0.00  0.00    +0.000 C 
ATOM     25  O   UNL     1      -1.123   8.686  22.834  0.00  0.00    +0.000 OA
ATOM     26  O   UNL     1       1.092   9.689  23.550  0.00  0.00    +0.000 OA
ENDBRANCH  16  23
ENDBRANCH   2  14
TORSDOF 3
ENDMDL
MODEL 8
REMARK VINA RESULT:      -6.9      1.260      1.270
REMARK  Name = 
REMARK  5 active torsions:
REMARK  status: ('A' for Active; 'I' for Inactive)
REMARK    1  A    between atoms: C_1  and  N_2
REMARK    2  A    between atoms: C_8  and  N_9
REMARK    3  A    between atoms: C_10  and  C_12
REMARK    4  A    between atoms: N_14  and  S_15
REMARK    5  A    between atoms: S_15  and  C_16
REMARK                            x       y       z     vdW  Elec       q    Type
REMARK                         _______ _______ _______ _____ _____    ______ ____
ROOT
ATOM      1  N   UNL     1       2.489   6.892  18.730  0.00  0.00    +0.000 N 
ATOM      2  C   UNL     1       2.595   8.122  18.138  0.00  0.00    +0.000 C 
ATOM      3  O   UNL     1       3.276   8.344  17.145  0.00  0.00    +0.000 OA
ATOM      4  H   UNL     1       1.748   6.855  19.425  0.00  0.00    +0.000 HD
ENDROOT
BRANCH   1  12
ATOM      5  C   UNL     1       1.970   1.718  19.513  0.00  0.00    +0.000 C 
ATOM      6  N   UNL     1       2.340   3.039  19.051  0.00  0.00    +0.000 NA
ATOM      7  C   UNL     1       1.211   3.966  18.992  0.00  0.00    +0.000 C 
ATOM      8  C   UNL     1       1.170   4.590  20.395  0.00  0.00    +0.000 C 
ATOM      9  C   UNL     1       2.601   4.524  20.919  0.00  0.00    +0.000 C 
ATOM     10  C   UNL     1       3.355   3.781  19.817  0.00  0.00    +0.000 C 
ATOM     11  C   UNL     1       3.965   4.821  18.849  0.00  0.00    +0.000 C 
ATOM     12  C   UNL     1       2.899   5.654  18.079  0.00  0.00    +0.000 C 
ATOM     13  C   UNL     1       1.628   4.843  17.802  0.00  0.00    +0.000 C 
ENDBRANCH   1  12
BRANCH   2  14
ATOM     14  C   UNL     1       1.790   9.158  18.804  0.00  0.00    +0.000 A 
ATOM     15  N   UNL     1       1.649  10.408  18.304  0.00  0.00    +0.000 NA
ATOM     16  N   UNL     1       0.880  11.039  19.243  0.00  0.00    +0.000 N 
ATOM     17  C   UNL     1       0.543  10.244  20.322  0.00  0.00    +0.000 A 
ATOM     18  C   UNL     1      -0.186  10.476  21.499  0.00  0.00    +0.000 A 
ATOM     19  C   UNL     1      -0.321   9.412  22.394  0.00  0.00    +0.000 A 
ATOM     20  C   UNL     1       0.234   8.166  22.133  0.00  0.00    +0.000 A 
ATOM     21  C   UNL     1       0.958   7.949  20.959  0.00  0.00    +0.000 A 
ATOM     22  C   UNL     1       1.118   9.007  20.046  0.00  0.00    +0.000 A 
BRANCH  16  23
ATOM     23  S   UNL     1       0.421  12.695  19.177  0.00  0.00    +0.000 S 
ATOM     24  C   UNL     1      -1.312  12.778  18.824  0.00  0.00    +0.000 C 
ATOM     25  O   UNL     1       0.632  13.204  20.528  0.00  0.00    +0.000 OA
ATOM     26  O   UNL     1       1.145  13.242  18.046  0.00  0.00    +0.000 OA
ENDBRANCH  16  23
ENDBRANCH   2  14
TORSDOF 3
ENDMDL
MODEL 9
REMARK VINA RESULT:      -6.8      3.204      7.418
REMARK  Name = 
REMARK  5 active torsions:
REMARK  status: ('A' for Active; 'I' for Inactive)
REMARK    1  A    between atoms: C_1  and  N_2
REMARK    2  A    between atoms: C_8  and  N_9
REMARK    3  A    between atoms: C_10  and  C_12
REMARK    4  A    between atoms: N_14  and  S_15
REMARK    5  A    between atoms: S_15  and  C_16
REMARK                            x       y       z     vdW  Elec       q    Type
REMARK                         _______ _______ _______ _____ _____    ______ ____
ROOT
ATOM      1  N   UNL     1       1.398   8.806  19.504  0.00  0.00    +0.000 N 
ATOM      2  C   UNL     1       1.841   7.606  19.992  0.00  0.00    +0.000 C 
ATOM      3  O   UNL     1       1.537   7.165  21.093  0.00  0.00    +0.000 OA
ATOM      4  H   UNL     1       1.600   8.924  18.514  0.00  0.00    +0.000 HD
ENDROOT
BRANCH   1  12
ATOM      5  C   UNL     1      -0.557  13.685  19.362  0.00  0.00    +0.000 C 
ATOM      6  N   UNL     1      -0.253  12.302  19.658  0.00  0.00    +0.000 NA
ATOM      7  C   UNL     1       0.012  11.501  18.464  0.00  0.00    +0.000 C 
ATOM      8  C   UNL     1       1.522  11.667  18.235  0.00  0.00    +0.000 C 
ATOM      9  C   UNL     1       2.121  11.949  19.609  0.00  0.00    +0.000 C 
ATOM     10  C   UNL     1       0.901  12.017  20.527  0.00  0.00    +0.000 C 
ATOM     11  C   UNL     1       0.661  10.616  21.135  0.00  0.00    +0.000 C 
ATOM     12  C   UNL     1       0.277   9.538  20.079  0.00  0.00    +0.000 C 
ATOM     13  C   UNL     1      -0.523  10.134  18.916  0.00  0.00    +0.000 C 
ENDBRANCH   1  12
BRANCH   2  14
ATOM     14  C   UNL     1       2.709   6.881  19.051  0.00  0.00    +0.000 A 
ATOM     15  N   UNL     1       3.797   7.444  18.477  0.00  0.00    +0.000 NA
ATOM     16  N   UNL     1       4.269   6.456  17.657  0.00  0.00    +0.000 N 
ATOM     17  C   UNL     1       3.515   5.298  17.679  0.00  0.00    +0.000 A 
ATOM     18  C   UNL     1       3.609   4.075  16.996  0.00  0.00    +0.000 A 
ATOM     19  C   UNL     1       2.639   3.107  17.272  0.00  0.00    +0.000 A 
ATOM     20  C   UNL     1       1.624   3.335  18.191  0.00  0.00    +0.000 A 
ATOM     21  C   UNL     1       1.542   4.556  18.862  0.00  0.00    +0.000 A 
ATOM     22  C   UNL     1       2.499   5.552  18.595  0.00  0.00    +0.000 A 
BRANCH  16  23
ATOM     23  S   UNL     1       5.622   6.621  16.608  0.00  0.00    +0.000 S 
ATOM     24  C   UNL     1       6.581   5.136  16.702  0.00  0.00    +0.000 C 
ATOM     25  O   UNL     1       5.056   6.709  15.265  0.00  0.00    +0.000 OA
ATOM     26  O   UNL     1       6.403   7.706  17.168  0.00  0.00    +0.000 OA
ENDBRANCH  16  23
ENDBRANCH   2  14
TORSDOF 3
ENDMDL
