MODEL 1
REMARK VINA RESULT:      -7.9      0.000      0.000
REMARK  Name = 
REMARK  9 active torsions:
REMARK  status: ('A' for Active; 'I' for Inactive)
REMARK    1  A    between atoms: C_1  and  C_2
REMARK    2  A    between atoms: C_2  and  O_3
REMARK    3  A    between atoms: C_2  and  C_20
REMARK    4  A    between atoms: O_3  and  C_4
REMARK    5  A    between atoms: C_4  and  C_6
REMARK    6  A    between atoms: C_6  and  C_7
REMARK    7  A    between atoms: C_7  and  N_8
REMARK    8  A    between atoms: N_22  and  C_23
REMARK    9  A    between atoms: N_22  and  C_24
REMARK                            x       y       z     vdW  Elec       q    Type
REMARK                         _______ _______ _______ _____ _____    ______ ____
ROOT
ATOM      1  C   UNL     1       2.007   3.612  21.226  0.00  0.00    +0.000 C 
ATOM      2  O   UNL     1       1.760   2.878  22.163  0.00  0.00    +0.000 OA
ENDROOT
BRANCH   1   3
ATOM      3  O   UNL     1       3.246   4.014  20.837  0.00  0.00    +0.000 OA
BRANCH   3   5
ATOM      4  C   UNL     1       4.738   2.047  20.249  0.00  0.00    +0.000 C 
ATOM      5  C   UNL     1       3.977   3.296  19.807  0.00  0.00    +0.000 C 
BRANCH   5   6
ATOM      6  C   UNL     1       4.917   4.322  19.127  0.00  0.00    +0.000 C 
ATOM      7  O   UNL     1       5.847   4.765  19.806  0.00  0.00    +0.000 OA
ATOM      8  N   UNL     1       4.708   4.726  17.795  0.00  0.00    +0.000 N 
ATOM      9  C   UNL     1       3.414   4.523  17.138  0.00  0.00    +0.000 C 
BRANCH   8  10
ATOM     10  C   UNL     1       5.542   5.842  17.220  0.00  0.00    +0.000 C 
ATOM     11  C   UNL     1       7.081   5.664  17.209  0.00  0.00    +0.000 C 
ATOM     12  C   UNL     1       7.523   4.525  16.297  0.00  0.00    +0.000 C 
ATOM     13  C   UNL     1       7.038   4.746  14.865  0.00  0.00    +0.000 C 
ATOM     14  C   UNL     1       5.542   5.043  14.806  0.00  0.00    +0.000 C 
ATOM     15  C   UNL     1       5.160   6.183  15.755  0.00  0.00    +0.000 C 
ENDBRANCH   8  10
ENDBRANCH   5   6
ENDBRANCH   3   5
ENDBRANCH   1   3
BRANCH   1  16
ATOM     16  C   UNL     1       0.929   4.253  20.396  0.00  0.00    +0.000 C 
BRANCH  16  17
ATOM     17  C   UNL     1       1.328   5.553  19.753  0.00  0.00    +0.000 C 
BRANCH  17  18
ATOM     18  N   UNL     1       1.875   6.530  20.703  0.00  0.00    +0.000 N 
ATOM     19  C   UNL     1       1.963   7.807  20.206  0.00  0.00    +0.000 C 
ATOM     20  N   UNL     1       2.231   8.023  18.948  0.00  0.00    +0.000 NA
ATOM     21  S   UNL     1       1.428   9.356  18.436  0.00  0.00    +0.000 S 
ATOM     22  O   UNL     1       0.330   8.940  17.601  0.00  0.00    +0.000 OA
ATOM     23  O   UNL     1       2.348  10.407  18.067  0.00  0.00    +0.000 OA
ATOM     24  C   UNL     1       0.758   9.753  19.993  0.00  0.00    +0.000 A 
ATOM     25  C   UNL     1      -0.313  10.567  20.279  0.00  0.00    +0.000 A 
ATOM     26  C   UNL     1      -0.745  10.595  21.607  0.00  0.00    +0.000 A 
ATOM     27  C   UNL     1      -0.093   9.837  22.602  0.00  0.00    +0.000 A 
ATOM     28  C   UNL     1       0.938   8.957  22.265  0.00  0.00    +0.000 A 
ATOM     29  C   UNL     1       1.300   8.898  20.932  0.00  0.00    +0.000 A 
ATOM     30  H   UNL     1       2.598   6.206  21.338  0.00  0.00    +0.000 HD
ENDBRANCH  17  18
ENDBRANCH  16  17
ENDBRANCH   1  16
TORSDOF 7
ENDMDL
MODEL 2
REMARK VINA RESULT:      -7.8      5.217      7.175
REMARK  Name = 
REMARK  9 active torsions:
REMARK  status: ('A' for Active; 'I' for Inactive)
REMARK    1  A    between atoms: C_1  and  C_2
REMARK    2  A    between atoms: C_2  and  O_3
REMARK    3  A    between atoms: C_2  and  C_20
REMARK    4  A    between atoms: O_3  and  C_4
REMARK    5  A    between atoms: C_4  and  C_6
REMARK    6  A    between atoms: C_6  and  C_7
REMARK    7  A    between atoms: C_7  and  N_8
REMARK    8  A    between atoms: N_22  and  C_23
REMARK    9  A    between atoms: N_22  and  C_24
REMARK                            x       y       z     vdW  Elec       q    Type
REMARK                         _______ _______ _______ _____ _____    ______ ____
ROOT
ATOM      1  C   UNL     1       6.503   7.035  17.097  0.00  0.00    +0.000 C 
ATOM      2  O   UNL     1       6.395   6.605  15.966  0.00  0.00    +0.000 OA
ENDROOT
BRANCH   1   3
ATOM      3  O   UNL     1       5.480   7.271  17.960  0.00  0.00    +0.000 OA
BRANCH   3   5
ATOM      4  C   UNL     1       3.059   7.933  17.583  0.00  0.00    +0.000 C 
ATOM      5  C   UNL     1       4.126   6.843  17.651  0.00  0.00    +0.000 C 
BRANCH   5   6
ATOM      6  C   UNL     1       3.756   5.750  18.685  0.00  0.00    +0.000 C 
ATOM      7  O   UNL     1       3.485   6.130  19.828  0.00  0.00    +0.000 OA
ATOM      8  N   UNL     1       3.735   4.389  18.328  0.00  0.00    +0.000 N 
ATOM      9  C   UNL     1       4.429   3.913  17.128  0.00  0.00    +0.000 C 
BRANCH   8  10
ATOM     10  C   UNL     1       3.529   3.346  19.396  0.00  0.00    +0.000 C 
ATOM     11  C   UNL     1       2.451   3.618  20.475  0.00  0.00    +0.000 C 
ATOM     12  C   UNL     1       1.045   3.659  19.888  0.00  0.00    +0.000 C 
ATOM     13  C   UNL     1       0.711   2.352  19.171  0.00  0.00    +0.000 C 
ATOM     14  C   UNL     1       1.790   1.956  18.168  0.00  0.00    +0.000 C 
ATOM     15  C   UNL     1       3.179   1.951  18.814  0.00  0.00    +0.000 C 
ENDBRANCH   8  10
ENDBRANCH   5   6
ENDBRANCH   3   5
ENDBRANCH   1   3
BRANCH   1  16
ATOM     16  C   UNL     1       7.827   7.446  17.681  0.00  0.00    +0.000 C 
BRANCH  16  17
ATOM     17  C   UNL     1       7.945   8.916  17.984  0.00  0.00    +0.000 C 
BRANCH  17  18
ATOM     18  N   UNL     1       8.922   9.216  19.037  0.00  0.00    +0.000 N 
ATOM     19  C   UNL     1       9.487  10.465  18.938  0.00  0.00    +0.000 C 
ATOM     20  N   UNL     1       9.715  11.010  17.775  0.00  0.00    +0.000 NA
ATOM     21  S   UNL     1       9.493  12.630  17.875  0.00  0.00    +0.000 S 
ATOM     22  O   UNL     1       8.256  12.967  17.217  0.00  0.00    +0.000 OA
ATOM     23  O   UNL     1      10.731  13.339  17.643  0.00  0.00    +0.000 OA
ATOM     24  C   UNL     1       9.177  12.648  19.587  0.00  0.00    +0.000 A 
ATOM     25  C   UNL     1       8.565  13.628  20.331  0.00  0.00    +0.000 A 
ATOM     26  C   UNL     1       8.294  13.327  21.668  0.00  0.00    +0.000 A 
ATOM     27  C   UNL     1       8.655  12.080  22.222  0.00  0.00    +0.000 A 
ATOM     28  C   UNL     1       9.201  11.077  21.419  0.00  0.00    +0.000 A 
ATOM     29  C   UNL     1       9.395  11.378  20.084  0.00  0.00    +0.000 A 
ATOM     30  H   UNL     1       9.498   8.450  19.371  0.00  0.00    +0.000 HD
ENDBRANCH  17  18
ENDBRANCH  16  17
ENDBRANCH   1  16
TORSDOF 7
ENDMDL
MODEL 3
REMARK VINA RESULT:      -7.5      5.449      7.233
REMARK  Name = 
REMARK  9 active torsions:
REMARK  status: ('A' for Active; 'I' for Inactive)
REMARK    1  A    between atoms: C_1  and  C_2
REMARK    2  A    between atoms: C_2  and  O_3
REMARK    3  A    between atoms: C_2  and  C_20
REMARK    4  A    between atoms: O_3  and  C_4
REMARK    5  A    between atoms: C_4  and  C_6
REMARK    6  A    between atoms: C_6  and  C_7
REMARK    7  A    between atoms: C_7  and  N_8
REMARK    8  A    between atoms: N_22  and  C_23
REMARK    9  A    between atoms: N_22  and  C_24
REMARK                            x       y       z     vdW  Elec       q    Type
REMARK                         _______ _______ _______ _____ _____    ______ ____
ROOT
ATOM      1  C   UNL     1       7.545   7.254  17.597  0.00  0.00    +0.000 C 
ATOM      2  O   UNL     1       7.843   7.296  16.419  0.00  0.00    +0.000 OA
ENDROOT
BRANCH   1   3
ATOM      3  O   UNL     1       6.457   6.628  18.120  0.00  0.00    +0.000 OA
BRANCH   3   5
ATOM      4  C   UNL     1       7.540   4.406  17.547  0.00  0.00    +0.000 C 
ATOM      5  C   UNL     1       6.382   5.178  18.176  0.00  0.00    +0.000 C 
BRANCH   5   6
ATOM      6  C   UNL     1       5.024   4.776  17.550  0.00  0.00    +0.000 C 
ATOM      7  O   UNL     1       4.630   5.445  16.591  0.00  0.00    +0.000 OA
ATOM      8  N   UNL     1       4.281   3.696  18.061  0.00  0.00    +0.000 N 
ATOM      9  C   UNL     1       4.534   3.174  19.407  0.00  0.00    +0.000 C 
BRANCH   8  10
ATOM     10  C   UNL     1       2.894   3.435  17.532  0.00  0.00    +0.000 C 
ATOM     11  C   UNL     1       2.166   2.154  18.010  0.00  0.00    +0.000 C 
ATOM     12  C   UNL     1       1.863   2.186  19.504  0.00  0.00    +0.000 C 
ATOM     13  C   UNL     1       1.015   3.404  19.867  0.00  0.00    +0.000 C 
ATOM     14  C   UNL     1       1.613   4.700  19.327  0.00  0.00    +0.000 C 
ATOM     15  C   UNL     1       1.910   4.597  17.828  0.00  0.00    +0.000 C 
ENDBRANCH   8  10
ENDBRANCH   5   6
ENDBRANCH   3   5
ENDBRANCH   1   3
BRANCH   1  16
ATOM     16  C   UNL     1       8.330   7.980  18.654  0.00  0.00    +0.000 C 
BRANCH  16  17
ATOM     17  C   UNL     1       8.543   9.443  18.377  0.00  0.00    +0.000 C 
BRANCH  17  18
ATOM     18  N   UNL     1       9.489  10.080  19.302  0.00  0.00    +0.000 N 
ATOM     19  C   UNL     1       9.658  11.427  19.093  0.00  0.00    +0.000 C 
ATOM     20  N   UNL     1       9.606  11.933  17.891  0.00  0.00    +0.000 NA
ATOM     21  S   UNL     1       8.937  13.427  17.954  0.00  0.00    +0.000 S 
ATOM     22  O   UNL     1       7.598  13.355  17.426  0.00  0.00    +0.000 OA
ATOM     23  O   UNL     1       9.890  14.439  17.557  0.00  0.00    +0.000 OA
ATOM     24  C   UNL     1       8.797  13.473  19.688  0.00  0.00    +0.000 A 
ATOM     25  C   UNL     1       8.002  14.289  20.458  0.00  0.00    +0.000 A 
ATOM     26  C   UNL     1       7.960  14.016  21.827  0.00  0.00    +0.000 A 
ATOM     27  C   UNL     1       8.717  12.964  22.385  0.00  0.00    +0.000 A 
ATOM     28  C   UNL     1       9.448  12.102  21.565  0.00  0.00    +0.000 A 
ATOM     29  C   UNL     1       9.418  12.353  20.206  0.00  0.00    +0.000 A 
ATOM     30  H   UNL     1      10.291   9.532  19.598  0.00  0.00    +0.000 HD
ENDBRANCH  17  18
ENDBRANCH  16  17
ENDBRANCH   1  16
TORSDOF 7
ENDMDL
MODEL 4
REMARK VINA RESULT:      -7.4      2.714      7.297
REMARK  Name = 
REMARK  9 active torsions:
REMARK  status: ('A' for Active; 'I' for Inactive)
REMARK    1  A    between atoms: C_1  and  C_2
REMARK    2  A    between atoms: C_2  and  O_3
REMARK    3  A    between atoms: C_2  and  C_20
REMARK    4  A    between atoms: O_3  and  C_4
REMARK    5  A    between atoms: C_4  and  C_6
REMARK    6  A    between atoms: C_6  and  C_7
REMARK    7  A    between atoms: C_7  and  N_8
REMARK    8  A    between atoms: N_22  and  C_23
REMARK    9  A    between atoms: N_22  and  C_24
REMARK                            x       y       z     vdW  Elec       q    Type
REMARK                         _______ _______ _______ _____ _____    ______ ____
ROOT
ATOM      1  C   UNL     1       3.086   5.356  19.458  0.00  0.00    +0.000 C 
ATOM      2  O   UNL     1       4.233   5.419  19.857  0.00  0.00    +0.000 OA
ENDROOT
BRANCH   1   3
ATOM      3  O   UNL     1       2.114   6.279  19.681  0.00  0.00    +0.000 OA
BRANCH   3   5
ATOM      4  C   UNL     1       3.171   7.802  17.948  0.00  0.00    +0.000 C 
ATOM      5  C   UNL     1       1.968   7.436  18.815  0.00  0.00    +0.000 C 
BRANCH   5   6
ATOM      6  C   UNL     1       1.538   8.619  19.718  0.00  0.00    +0.000 C 
ATOM      7  O   UNL     1       1.838   8.550  20.913  0.00  0.00    +0.000 OA
ATOM      8  N   UNL     1       0.834   9.717  19.189  0.00  0.00    +0.000 N 
ATOM      9  C   UNL     1       0.140   9.621  17.902  0.00  0.00    +0.000 C 
BRANCH   8  10
ATOM     10  C   UNL     1       0.293  10.770  20.123  0.00  0.00    +0.000 C 
ATOM     11  C   UNL     1       1.166  12.021  20.388  0.00  0.00    +0.000 C 
ATOM     12  C   UNL     1       1.353  12.869  19.134  0.00  0.00    +0.000 C 
ATOM     13  C   UNL     1       0.007  13.315  18.566  0.00  0.00    +0.000 C 
ATOM     14  C   UNL     1      -0.954  12.143  18.385  0.00  0.00    +0.000 C 
ATOM     15  C   UNL     1      -1.085  11.322  19.671  0.00  0.00    +0.000 C 
ENDBRANCH   8  10
ENDBRANCH   5   6
ENDBRANCH   3   5
ENDBRANCH   1   3
BRANCH   1  16
ATOM     16  C   UNL     1       2.560   4.166  18.703  0.00  0.00    +0.000 C 
BRANCH  16  17
ATOM     17  C   UNL     1       3.331   3.830  17.455  0.00  0.00    +0.000 C 
BRANCH  17  18
ATOM     18  N   UNL     1       4.723   3.446  17.717  0.00  0.00    +0.000 N 
ATOM     19  C   UNL     1       5.638   4.052  16.890  0.00  0.00    +0.000 C 
ATOM     20  N   UNL     1       5.344   4.326  15.649  0.00  0.00    +0.000 NA
ATOM     21  S   UNL     1       6.082   5.720  15.205  0.00  0.00    +0.000 S 
ATOM     22  O   UNL     1       5.090   6.763  15.132  0.00  0.00    +0.000 OA
ATOM     23  O   UNL     1       7.059   5.483  14.166  0.00  0.00    +0.000 OA
ATOM     24  C   UNL     1       6.938   5.939  16.706  0.00  0.00    +0.000 A 
ATOM     25  C   UNL     1       7.506   7.088  17.204  0.00  0.00    +0.000 A 
ATOM     26  C   UNL     1       8.000   7.030  18.509  0.00  0.00    +0.000 A 
ATOM     27  C   UNL     1       7.934   5.838  19.262  0.00  0.00    +0.000 A 
ATOM     28  C   UNL     1       7.277   4.714  18.757  0.00  0.00    +0.000 A 
ATOM     29  C   UNL     1       6.736   4.820  17.490  0.00  0.00    +0.000 A 
ATOM     30  H   UNL     1       4.895   2.489  18.008  0.00  0.00    +0.000 HD
ENDBRANCH  17  18
ENDBRANCH  16  17
ENDBRANCH   1  16
TORSDOF 7
ENDMDL
MODEL 5
REMARK VINA RESULT:      -7.4      2.764      9.237
REMARK  Name = 
REMARK  9 active torsions:
REMARK  status: ('A' for Active; 'I' for Inactive)
REMARK    1  A    between atoms: C_1  and  C_2
REMARK    2  A    between atoms: C_2  and  O_3
REMARK    3  A    between atoms: C_2  and  C_20
REMARK    4  A    between atoms: O_3  and  C_4
REMARK    5  A    between atoms: C_4  and  C_6
REMARK    6  A    between atoms: C_6  and  C_7
REMARK    7  A    between atoms: C_7  and  N_8
REMARK    8  A    between atoms: N_22  and  C_23
REMARK    9  A    between atoms: N_22  and  C_24
REMARK                            x       y       z     vdW  Elec       q    Type
REMARK                         _______ _______ _______ _____ _____    ______ ____
ROOT
ATOM      1  C   UNL     1       1.471   9.415  18.302  0.00  0.00    +0.000 C 
ATOM      2  O   UNL     1       2.085   9.224  17.271  0.00  0.00    +0.000 OA
ENDROOT
BRANCH   1   3
ATOM      3  O   UNL     1       0.702  10.501  18.580  0.00  0.00    +0.000 OA
BRANCH   3   5
ATOM      4  C   UNL     1      -1.559  10.083  17.507  0.00  0.00    +0.000 C 
ATOM      5  C   UNL     1      -0.734  10.376  18.759  0.00  0.00    +0.000 C 
BRANCH   5   6
ATOM      6  C   UNL     1      -1.212  11.670  19.463  0.00  0.00    +0.000 C 
ATOM      7  O   UNL     1      -1.512  12.623  18.738  0.00  0.00    +0.000 OA
ATOM      8  N   UNL     1      -1.294  11.745  20.866  0.00  0.00    +0.000 N 
ATOM      9  C   UNL     1      -0.575  10.793  21.716  0.00  0.00    +0.000 C 
BRANCH   8  10
ATOM     10  C   UNL     1      -1.607  13.067  21.520  0.00  0.00    +0.000 C 
ATOM     11  C   UNL     1      -2.903  13.798  21.090  0.00  0.00    +0.000 C 
ATOM     12  C   UNL     1      -4.158  13.022  21.476  0.00  0.00    +0.000 C 
ATOM     13  C   UNL     1      -4.206  12.770  22.982  0.00  0.00    +0.000 C 
ATOM     14  C   UNL     1      -2.911  12.153  23.502  0.00  0.00    +0.000 C 
ATOM     15  C   UNL     1      -1.689  12.967  23.066  0.00  0.00    +0.000 C 
ENDBRANCH   8  10
ENDBRANCH   5   6
ENDBRANCH   3   5
ENDBRANCH   1   3
BRANCH   1  16
ATOM     16  C   UNL     1       1.548   8.473  19.473  0.00  0.00    +0.000 C 
BRANCH  16  17
ATOM     17  C   UNL     1       2.572   7.380  19.327  0.00  0.00    +0.000 C 
BRANCH  17  18
ATOM     18  N   UNL     1       2.323   6.499  18.179  0.00  0.00    +0.000 N 
ATOM     19  C   UNL     1       3.395   5.712  17.834  0.00  0.00    +0.000 C 
ATOM     20  N   UNL     1       4.618   6.145  17.968  0.00  0.00    +0.000 NA
ATOM     21  S   UNL     1       5.599   4.901  18.384  0.00  0.00    +0.000 S 
ATOM     22  O   UNL     1       5.946   5.033  19.776  0.00  0.00    +0.000 OA
ATOM     23  O   UNL     1       6.572   4.637  17.348  0.00  0.00    +0.000 OA
ATOM     24  C   UNL     1       4.365   3.677  18.283  0.00  0.00    +0.000 A 
ATOM     25  C   UNL     1       4.366   2.416  18.832  0.00  0.00    +0.000 A 
ATOM     26  C   UNL     1       3.180   1.686  18.732  0.00  0.00    +0.000 A 
ATOM     27  C   UNL     1       2.048   2.217  18.079  0.00  0.00    +0.000 A 
ATOM     28  C   UNL     1       2.053   3.531  17.605  0.00  0.00    +0.000 A 
ATOM     29  C   UNL     1       3.217   4.256  17.778  0.00  0.00    +0.000 A 
ATOM     30  H   UNL     1       1.727   6.855  17.439  0.00  0.00    +0.000 HD
ENDBRANCH  17  18
ENDBRANCH  16  17
ENDBRANCH   1  16
TORSDOF 7
ENDMDL
MODEL 6
REMARK VINA RESULT:      -7.4      5.271      7.294
REMARK  Name = 
REMARK  9 active torsions:
REMARK  status: ('A' for Active; 'I' for Inactive)
REMARK    1  A    between atoms: C_1  and  C_2
REMARK    2  A    between atoms: C_2  and  O_3
REMARK    3  A    between atoms: C_2  and  C_20
REMARK    4  A    between atoms: O_3  and  C_4
REMARK    5  A    between atoms: C_4  and  C_6
REMARK    6  A    between atoms: C_6  and  C_7
REMARK    7  A    between atoms: C_7  and  N_8
REMARK    8  A    between atoms: N_22  and  C_23
REMARK    9  A    between atoms: N_22  and  C_24
REMARK                            x       y       z     vdW  Elec       q    Type
REMARK                         _______ _______ _______ _____ _____    ______ ____
ROOT
ATOM      1  C   UNL     1       6.953   6.968  17.564  0.00  0.00    +0.000 C 
ATOM      2  O   UNL     1       6.514   7.428  16.528  0.00  0.00    +0.000 OA
ENDROOT
BRANCH   1   3
ATOM      3  O   UNL     1       6.381   5.980  18.301  0.00  0.00    +0.000 OA
BRANCH   3   5
ATOM      4  C   UNL     1       6.257   4.524  16.226  0.00  0.00    +0.000 C 
ATOM      5  C   UNL     1       5.826   4.797  17.666  0.00  0.00    +0.000 C 
BRANCH   5   6
ATOM      6  C   UNL     1       4.286   4.904  17.786  0.00  0.00    +0.000 C 
ATOM      7  O   UNL     1       3.741   5.834  17.185  0.00  0.00    +0.000 OA
ATOM      8  N   UNL     1       3.551   3.980  18.552  0.00  0.00    +0.000 N 
ATOM      9  C   UNL     1       4.206   3.148  19.565  0.00  0.00    +0.000 C 
BRANCH   8  10
ATOM     10  C   UNL     1       2.078   4.209  18.777  0.00  0.00    +0.000 C 
ATOM     11  C   UNL     1       1.149   2.971  18.807  0.00  0.00    +0.000 C 
ATOM     12  C   UNL     1       1.445   2.057  19.992  0.00  0.00    +0.000 C 
ATOM     13  C   UNL     1       1.312   2.809  21.314  0.00  0.00    +0.000 C 
ATOM     14  C   UNL     1       2.113   4.108  21.317  0.00  0.00    +0.000 C 
ATOM     15  C   UNL     1       1.784   4.972  20.096  0.00  0.00    +0.000 C 
ENDBRANCH   8  10
ENDBRANCH   5   6
ENDBRANCH   3   5
ENDBRANCH   1   3
BRANCH   1  16
ATOM     16  C   UNL     1       8.193   7.506  18.224  0.00  0.00    +0.000 C 
BRANCH  16  17
ATOM     17  C   UNL     1       8.278   9.008  18.259  0.00  0.00    +0.000 C 
BRANCH  17  18
ATOM     18  N   UNL     1       9.248   9.514  19.238  0.00  0.00    +0.000 N 
ATOM     19  C   UNL     1       9.632  10.816  19.026  0.00  0.00    +0.000 C 
ATOM     20  N   UNL     1       9.734  11.299  17.819  0.00  0.00    +0.000 NA
ATOM     21  S   UNL     1       9.296  12.878  17.820  0.00  0.00    +0.000 S 
ATOM     22  O   UNL     1       7.998  12.996  17.205  0.00  0.00    +0.000 OA
ATOM     23  O   UNL     1      10.414  13.728  17.478  0.00  0.00    +0.000 OA
ATOM     24  C   UNL     1       9.052  12.980  19.541  0.00  0.00    +0.000 A 
ATOM     25  C   UNL     1       8.342  13.922  20.248  0.00  0.00    +0.000 A 
ATOM     26  C   UNL     1       8.172  13.686  21.614  0.00  0.00    +0.000 A 
ATOM     27  C   UNL     1       8.723  12.543  22.232  0.00  0.00    +0.000 A 
ATOM     28  C   UNL     1       9.367  11.566  21.471  0.00  0.00    +0.000 A 
ATOM     29  C   UNL     1       9.463  11.790  20.111  0.00  0.00    +0.000 A 
ATOM     30  H   UNL     1       9.937   8.858  19.592  0.00  0.00    +0.000 HD
ENDBRANCH  17  18
ENDBRANCH  16  17
ENDBRANCH   1  16
TORSDOF 7
ENDMDL
MODEL 7
REMARK VINA RESULT:      -7.3      5.372      7.278
REMARK  Name = 
REMARK  9 active torsions:
REMARK  status: ('A' for Active; 'I' for Inactive)
REMARK    1  A    between atoms: C_1  and  C_2
REMARK    2  A    between atoms: C_2  and  O_3
REMARK    3  A    between atoms: C_2  and  C_20
REMARK    4  A    between atoms: O_3  and  C_4
REMARK    5  A    between atoms: C_4  and  C_6
REMARK    6  A    between atoms: C_6  and  C_7
REMARK    7  A    between atoms: C_7  and  N_8
REMARK    8  A    between atoms: N_22  and  C_23
REMARK    9  A    between atoms: N_22  and  C_24
REMARK                            x       y       z     vdW  Elec       q    Type
REMARK                         _______ _______ _______ _____ _____    ______ ____
ROOT
ATOM      1  C   UNL     1       7.420   6.880  17.738  0.00  0.00    +0.000 C 
ATOM      2  O   UNL     1       7.555   6.272  18.782  0.00  0.00    +0.000 OA
ENDROOT
BRANCH   1   3
ATOM      3  O   UNL     1       6.546   6.570  16.744  0.00  0.00    +0.000 OA
BRANCH   3   5
ATOM      4  C   UNL     1       5.641   4.658  15.343  0.00  0.00    +0.000 C 
ATOM      5  C   UNL     1       5.869   5.285  16.717  0.00  0.00    +0.000 C 
BRANCH   5   6
ATOM      6  C   UNL     1       4.537   5.464  17.487  0.00  0.00    +0.000 C 
ATOM      7  O   UNL     1       3.832   6.426  17.170  0.00  0.00    +0.000 OA
ATOM      8  N   UNL     1       4.159   4.566  18.502  0.00  0.00    +0.000 N 
ATOM      9  C   UNL     1       5.146   3.691  19.143  0.00  0.00    +0.000 C 
BRANCH   8  10
ATOM     10  C   UNL     1       2.939   4.862  19.337  0.00  0.00    +0.000 C 
ATOM     11  C   UNL     1       1.577   4.982  18.611  0.00  0.00    +0.000 C 
ATOM     12  C   UNL     1       1.139   3.663  17.985  0.00  0.00    +0.000 C 
ATOM     13  C   UNL     1       1.045   2.559  19.037  0.00  0.00    +0.000 C 
ATOM     14  C   UNL     1       2.316   2.456  19.875  0.00  0.00    +0.000 C 
ATOM     15  C   UNL     1       2.712   3.816  20.460  0.00  0.00    +0.000 C 
ENDBRANCH   8  10
ENDBRANCH   5   6
ENDBRANCH   3   5
ENDBRANCH   1   3
BRANCH   1  16
ATOM     16  C   UNL     1       8.287   8.053  17.369  0.00  0.00    +0.000 C 
BRANCH  16  17
ATOM     17  C   UNL     1       8.009   9.305  18.155  0.00  0.00    +0.000 C 
BRANCH  17  18
ATOM     18  N   UNL     1       9.054   9.620  19.138  0.00  0.00    +0.000 N 
ATOM     19  C   UNL     1       9.573  10.886  19.018  0.00  0.00    +0.000 C 
ATOM     20  N   UNL     1       9.695  11.456  17.851  0.00  0.00    +0.000 NA
ATOM     21  S   UNL     1       9.433  13.066  17.996  0.00  0.00    +0.000 S 
ATOM     22  O   UNL     1       8.140  13.375  17.439  0.00  0.00    +0.000 OA
ATOM     23  O   UNL     1      10.628  13.817  17.684  0.00  0.00    +0.000 OA
ATOM     24  C   UNL     1       9.248  13.049  19.727  0.00  0.00    +0.000 A 
ATOM     25  C   UNL     1       8.664  13.998  20.532  0.00  0.00    +0.000 A 
ATOM     26  C   UNL     1       8.505  13.668  21.880  0.00  0.00    +0.000 A 
ATOM     27  C   UNL     1       8.944  12.425  22.384  0.00  0.00    +0.000 A 
ATOM     28  C   UNL     1       9.457  11.451  21.524  0.00  0.00    +0.000 A 
ATOM     29  C   UNL     1       9.540  11.779  20.184  0.00  0.00    +0.000 A 
ATOM     30  H   UNL     1       9.676   8.867  19.413  0.00  0.00    +0.000 HD
ENDBRANCH  17  18
ENDBRANCH  16  17
ENDBRANCH   1  16
TORSDOF 7
ENDMDL
MODEL 8
REMARK VINA RESULT:      -7.2      2.658      8.882
REMARK  Name = 
REMARK  9 active torsions:
REMARK  status: ('A' for Active; 'I' for Inactive)
REMARK    1  A    between atoms: C_1  and  C_2
REMARK    2  A    between atoms: C_2  and  O_3
REMARK    3  A    between atoms: C_2  and  C_20
REMARK    4  A    between atoms: O_3  and  C_4
REMARK    5  A    between atoms: C_4  and  C_6
REMARK    6  A    between atoms: C_6  and  C_7
REMARK    7  A    between atoms: C_7  and  N_8
REMARK    8  A    between atoms: N_22  and  C_23
REMARK    9  A    between atoms: N_22  and  C_24
REMARK                            x       y       z     vdW  Elec       q    Type
REMARK                         _______ _______ _______ _____ _____    ______ ____
ROOT
ATOM      1  C   UNL     1       2.013   8.840  18.251  0.00  0.00    +0.000 C 
ATOM      2  O   UNL     1       2.753   8.415  17.386  0.00  0.00    +0.000 OA
ENDROOT
BRANCH   1   3
ATOM      3  O   UNL     1       1.287   9.987  18.183  0.00  0.00    +0.000 OA
BRANCH   3   5
ATOM      4  C   UNL     1      -1.145   9.815  17.478  0.00  0.00    +0.000 C 
ATOM      5  C   UNL     1      -0.109  10.015  18.583  0.00  0.00    +0.000 C 
BRANCH   5   6
ATOM      6  C   UNL     1      -0.333  11.350  19.335  0.00  0.00    +0.000 C 
ATOM      7  O   UNL     1      -0.200  12.390  18.682  0.00  0.00    +0.000 OA
ATOM      8  N   UNL     1      -0.670  11.367  20.701  0.00  0.00    +0.000 N 
ATOM      9  C   UNL     1      -0.435  10.196  21.551  0.00  0.00    +0.000 C 
BRANCH   8  10
ATOM     10  C   UNL     1      -0.721  12.682  21.436  0.00  0.00    +0.000 C 
ATOM     11  C   UNL     1      -1.692  13.767  20.910  0.00  0.00    +0.000 C 
ATOM     12  C   UNL     1      -3.152  13.348  21.044  0.00  0.00    +0.000 C 
ATOM     13  C   UNL     1      -3.503  13.029  22.496  0.00  0.00    +0.000 C 
ATOM     14  C   UNL     1      -2.516  12.048  23.122  0.00  0.00    +0.000 C 
ATOM     15  C   UNL     1      -1.069  12.516  22.939  0.00  0.00    +0.000 C 
ENDBRANCH   8  10
ENDBRANCH   5   6
ENDBRANCH   3   5
ENDBRANCH   1   3
BRANCH   1  16
ATOM     16  C   UNL     1       1.859   8.164  19.585  0.00  0.00    +0.000 C 
BRANCH  16  17
ATOM     17  C   UNL     1       2.124   6.683  19.567  0.00  0.00    +0.000 C 
BRANCH  17  18
ATOM     18  N   UNL     1       3.548   6.345  19.688  0.00  0.00    +0.000 N 
ATOM     19  C   UNL     1       3.881   5.123  19.156  0.00  0.00    +0.000 C 
ATOM     20  N   UNL     1       3.050   4.119  19.203  0.00  0.00    +0.000 NA
ATOM     21  S   UNL     1       3.212   3.208  17.851  0.00  0.00    +0.000 S 
ATOM     22  O   UNL     1       2.075   3.444  16.997  0.00  0.00    +0.000 OA
ATOM     23  O   UNL     1       3.699   1.885  18.171  0.00  0.00    +0.000 OA
ATOM     24  C   UNL     1       4.539   4.123  17.193  0.00  0.00    +0.000 A 
ATOM     25  C   UNL     1       4.993   4.154  15.896  0.00  0.00    +0.000 A 
ATOM     26  C   UNL     1       5.982   5.095  15.598  0.00  0.00    +0.000 A 
ATOM     27  C   UNL     1       6.496   5.953  16.594  0.00  0.00    +0.000 A 
ATOM     28  C   UNL     1       5.955   5.952  17.881  0.00  0.00    +0.000 A 
ATOM     29  C   UNL     1       4.930   5.059  18.130  0.00  0.00    +0.000 A 
ATOM     30  H   UNL     1       4.031   6.656  20.524  0.00  0.00    +0.000 HD
ENDBRANCH  17  18
ENDBRANCH  16  17
ENDBRANCH   1  16
TORSDOF 7
ENDMDL
MODEL 9
REMARK VINA RESULT:      -7.1      6.090      8.302
REMARK  Name = 
REMARK  9 active torsions:
REMARK  status: ('A' for Active; 'I' for Inactive)
REMARK    1  A    between atoms: C_1  and  C_2
REMARK    2  A    between atoms: C_2  and  O_3
REMARK    3  A    between atoms: C_2  and  C_20
REMARK    4  A    between atoms: O_3  and  C_4
REMARK    5  A    between atoms: C_4  and  C_6
REMARK    6  A    between atoms: C_6  and  C_7
REMARK    7  A    between atoms: C_7  and  N_8
REMARK    8  A    between atoms: N_22  and  C_23
REMARK    9  A    between atoms: N_22  and  C_24
REMARK                            x       y       z     vdW  Elec       q    Type
REMARK                         _______ _______ _______ _____ _____    ______ ____
ROOT
ATOM      1  C   UNL     1       8.217   8.298  18.162  0.00  0.00    +0.000 C 
ATOM      2  O   UNL     1       8.660   7.587  19.043  0.00  0.00    +0.000 OA
ENDROOT
BRANCH   1   3
ATOM      3  O   UNL     1       8.241   9.657  18.150  0.00  0.00    +0.000 OA
BRANCH   3   5
ATOM      4  C   UNL     1       9.211  10.514  20.332  0.00  0.00    +0.000 C 
ATOM      5  C   UNL     1       9.304  10.393  18.812  0.00  0.00    +0.000 C 
BRANCH   5   6
ATOM      6  C   UNL     1       9.373  11.785  18.136  0.00  0.00    +0.000 C 
ATOM      7  O   UNL     1       8.356  12.177  17.557  0.00  0.00    +0.000 OA
ATOM      8  N   UNL     1      10.548  12.558  18.183  0.00  0.00    +0.000 N 
ATOM      9  C   UNL     1      11.841  11.946  18.503  0.00  0.00    +0.000 C 
BRANCH   8  10
ATOM     10  C   UNL     1      10.631  13.830  17.380  0.00  0.00    +0.000 C 
ATOM     11  C   UNL     1       9.635  14.967  17.719  0.00  0.00    +0.000 C 
ATOM     12  C   UNL     1       9.864  15.535  19.116  0.00  0.00    +0.000 C 
ATOM     13  C   UNL     1      11.289  16.062  19.269  0.00  0.00    +0.000 C 
ATOM     14  C   UNL     1      12.331  15.032  18.841  0.00  0.00    +0.000 C 
ATOM     15  C   UNL     1      12.036  14.487  17.440  0.00  0.00    +0.000 C 
ENDBRANCH   8  10
ENDBRANCH   5   6
ENDBRANCH   3   5
ENDBRANCH   1   3
BRANCH   1  16
ATOM     16  C   UNL     1       7.494   7.744  16.965  0.00  0.00    +0.000 C 
BRANCH  16  17
ATOM     17  C   UNL     1       6.621   6.554  17.261  0.00  0.00    +0.000 C 
BRANCH  17  18
ATOM     18  N   UNL     1       5.202   6.783  16.962  0.00  0.00    +0.000 N 
ATOM     19  C   UNL     1       4.380   5.738  17.307  0.00  0.00    +0.000 C 
ATOM     20  N   UNL     1       4.790   4.503  17.220  0.00  0.00    +0.000 NA
ATOM     21  S   UNL     1       4.128   3.618  18.428  0.00  0.00    +0.000 S 
ATOM     22  O   UNL     1       5.146   3.346  19.412  0.00  0.00    +0.000 OA
ATOM     23  O   UNL     1       3.243   2.602  17.904  0.00  0.00    +0.000 OA
ATOM     24  C   UNL     1       3.146   4.910  19.060  0.00  0.00    +0.000 A 
ATOM     25  C   UNL     1       2.562   5.009  20.301  0.00  0.00    +0.000 A 
ATOM     26  C   UNL     1       1.951   6.226  20.613  0.00  0.00    +0.000 A 
ATOM     27  C   UNL     1       1.923   7.288  19.683  0.00  0.00    +0.000 A 
ATOM     28  C   UNL     1       2.596   7.183  18.465  0.00  0.00    +0.000 A 
ATOM     29  C   UNL     1       3.251   5.993  18.210  0.00  0.00    +0.000 A 
ATOM     30  H   UNL     1       4.983   7.316  16.126  0.00  0.00    +0.000 HD
ENDBRANCH  17  18
ENDBRANCH  16  17
ENDBRANCH   1  16
TORSDOF 7
ENDMDL
