MODEL 1
REMARK VINA RESULT:      -8.8      0.000      0.000
REMARK  Name = 
REMARK  9 active torsions:
REMARK  status: ('A' for Active; 'I' for Inactive)
REMARK    1  A    between atoms: C_1  and  O_2
REMARK    2  A    between atoms: O_2  and  C_3
REMARK    3  A    between atoms: C_6  and  C_7
REMARK    4  A    between atoms: C_7  and  C_8
REMARK    5  A    between atoms: N_10  and  C_11
REMARK    6  A    between atoms: N_10  and  C_12
REMARK    7  A    between atoms: C_17  and  O_18
REMARK    8  A    between atoms: O_18  and  C_19
REMARK    9  A    between atoms: C_23  and  N_24
REMARK                            x       y       z     vdW  Elec       q    Type
REMARK                         _______ _______ _______ _____ _____    ______ ____
ROOT
ATOM      1  C   UNL     1      -0.568  10.158  19.114  0.00  0.00    +0.000 C 
ATOM      2  C   UNL     1      -2.850  10.889  18.508  0.00  0.00    +0.000 A 
ATOM      3  C   UNL     1      -4.338  11.782  18.652  0.00  0.00    +0.000 A 
ATOM      4  C   UNL     1      -5.226  11.905  17.450  0.00  0.00    +0.000 A 
ATOM      5  C   UNL     1      -4.711  11.377  16.282  0.00  0.00    +0.000 A 
ATOM      6  C   UNL     1      -3.318  11.171  16.283  0.00  0.00    +0.000 A 
ATOM      7  C   UNL     1      -2.623  11.369  17.438  0.00  0.00    +0.000 A 
ATOM      8  C   UNL     1      -1.545  12.107  17.853  0.00  0.00    +0.000 C 
ATOM      9  C   UNL     1      -1.188  12.112  19.590  0.00  0.00    +0.000 C 
ATOM     10  C   UNL     1       0.077  11.589  19.629  0.00  0.00    +0.000 C 
ENDROOT
BRANCH  10  11
ATOM     11  N   UNL     1       1.065  12.565  18.928  0.00  0.00    +0.000 NA
ATOM     12  C   UNL     1       2.288  12.658  19.782  0.00  0.00    +0.000 C 
ATOM     13  C   UNL     1       2.037  13.782  20.807  0.00  0.00    +0.000 C 
ATOM     14  C   UNL     1       1.427  14.855  19.914  0.00  0.00    +0.000 C 
ATOM     15  C   UNL     1       0.780  14.025  18.707  0.00  0.00    +0.000 C 
ENDBRANCH  10  11
BRANCH   1  18
ATOM     16  C   UNL     1       1.918   8.531  18.623  0.00  0.00    +0.000 C 
ATOM     17  O   UNL     1       1.946   8.756  17.420  0.00  0.00    +0.000 OA
ATOM     18  N   UNL     1       0.848   9.179  19.495  0.00  0.00    +0.000 N 
ATOM     19  C   UNL     1       1.209   8.652  20.839  0.00  0.00    +0.000 C 
BRANCH  16  20
ATOM     20  C   UNL     1       3.099   7.320  19.007  0.00  0.00    +0.000 C 
BRANCH  20  24
ATOM     21  C   UNL     1       5.129   4.583  16.117  0.00  0.00    +0.000 A 
ATOM     22  C   UNL     1       4.067   4.112  16.892  0.00  0.00    +0.000 A 
ATOM     23  C   UNL     1       3.358   4.982  17.759  0.00  0.00    +0.000 A 
ATOM     24  C   UNL     1       3.750   6.360  17.928  0.00  0.00    +0.000 A 
ATOM     25  C   UNL     1       4.799   6.783  17.091  0.00  0.00    +0.000 A 
ATOM     26  C   UNL     1       5.478   5.928  16.228  0.00  0.00    +0.000 A 
BRANCH  21  28
ATOM     27  C   UNL     1       6.022   4.030  13.929  0.00  0.00    +0.000 C 
ATOM     28  O   UNL     1       5.818   3.767  15.275  0.00  0.00    +0.000 OA
ENDBRANCH  21  28
ENDBRANCH  20  24
ENDBRANCH  16  20
ENDBRANCH   1  18
BRANCH   6  29
ATOM     29  O   UNL     1      -2.661  10.653  15.232  0.00  0.00    +0.000 OA
ATOM     30  C   UNL     1      -3.338  10.099  14.185  0.00  0.00    +0.000 C 
ENDBRANCH   6  29
TORSDOF 6
ENDMDL
MODEL 2
REMARK VINA RESULT:      -8.8      2.196      9.568
REMARK  Name = 
REMARK  9 active torsions:
REMARK  status: ('A' for Active; 'I' for Inactive)
REMARK    1  A    between atoms: C_1  and  O_2
REMARK    2  A    between atoms: O_2  and  C_3
REMARK    3  A    between atoms: C_6  and  C_7
REMARK    4  A    between atoms: C_7  and  C_8
REMARK    5  A    between atoms: N_10  and  C_11
REMARK    6  A    between atoms: N_10  and  C_12
REMARK    7  A    between atoms: C_17  and  O_18
REMARK    8  A    between atoms: O_18  and  C_19
REMARK    9  A    between atoms: C_23  and  N_24
REMARK                            x       y       z     vdW  Elec       q    Type
REMARK                         _______ _______ _______ _____ _____    ______ ____
ROOT
ATOM      1  C   UNL     1       3.464   6.866  18.903  0.00  0.00    +0.000 C 
ATOM      2  C   UNL     1       5.632   5.813  18.355  0.00  0.00    +0.000 A 
ATOM      3  C   UNL     1       7.040   4.821  18.608  0.00  0.00    +0.000 A 
ATOM      4  C   UNL     1       7.840   4.386  17.417  0.00  0.00    +0.000 A 
ATOM      5  C   UNL     1       7.306   4.732  16.191  0.00  0.00    +0.000 A 
ATOM      6  C   UNL     1       5.939   5.070  16.210  0.00  0.00    +0.000 A 
ATOM      7  C   UNL     1       5.300   5.164  17.409  0.00  0.00    +0.000 A 
ATOM      8  C   UNL     1       4.187   4.628  18.004  0.00  0.00    +0.000 C 
ATOM      9  C   UNL     1       3.935   4.986  19.722  0.00  0.00    +0.000 C 
ATOM     10  C   UNL     1       2.727   5.629  19.711  0.00  0.00    +0.000 C 
ENDROOT
BRANCH  10  11
ATOM     11  N   UNL     1       1.616   4.641  19.255  0.00  0.00    +0.000 NA
ATOM     12  C   UNL     1       0.750   4.358  20.439  0.00  0.00    +0.000 C 
ATOM     13  C   UNL     1       1.383   3.168  21.188  0.00  0.00    +0.000 C 
ATOM     14  C   UNL     1       1.720   2.244  20.025  0.00  0.00    +0.000 C 
ATOM     15  C   UNL     1       1.889   3.239  18.782  0.00  0.00    +0.000 C 
ENDBRANCH  10  11
BRANCH   1  18
ATOM     16  C   UNL     1       1.644   9.186  18.293  0.00  0.00    +0.000 C 
ATOM     17  O   UNL     1       2.076   9.355  17.161  0.00  0.00    +0.000 OA
ATOM     18  N   UNL     1       2.166   8.034  19.145  0.00  0.00    +0.000 N 
ATOM     19  C   UNL     1       1.366   8.206  20.388  0.00  0.00    +0.000 C 
BRANCH  16  20
ATOM     20  C   UNL     1       0.588  10.500  18.706  0.00  0.00    +0.000 C 
BRANCH  20  24
ATOM     21  C   UNL     1      -3.714  10.813  17.543  0.00  0.00    +0.000 A 
ATOM     22  C   UNL     1      -2.868   9.945  16.850  0.00  0.00    +0.000 A 
ATOM     23  C   UNL     1      -1.518   9.771  17.250  0.00  0.00    +0.000 A 
ATOM     24  C   UNL     1      -0.951  10.534  18.335  0.00  0.00    +0.000 A 
ATOM     25  C   UNL     1      -1.864  11.360  19.017  0.00  0.00    +0.000 A 
ATOM     26  C   UNL     1      -3.192  11.511  18.631  0.00  0.00    +0.000 A 
BRANCH  21  28
ATOM     27  C   UNL     1      -5.641  12.223  17.106  0.00  0.00    +0.000 C 
ATOM     28  O   UNL     1      -5.013  10.989  17.179  0.00  0.00    +0.000 OA
ENDBRANCH  21  28
ENDBRANCH  20  24
ENDBRANCH  16  20
ENDBRANCH   1  18
BRANCH   6  29
ATOM     29  O   UNL     1       5.269   5.443  15.107  0.00  0.00    +0.000 OA
ATOM     30  C   UNL     1       5.296   4.677  13.978  0.00  0.00    +0.000 C 
ENDBRANCH   6  29
TORSDOF 6
ENDMDL
MODEL 3
REMARK VINA RESULT:      -8.7      1.248      1.690
REMARK  Name = 
REMARK  9 active torsions:
REMARK  status: ('A' for Active; 'I' for Inactive)
REMARK    1  A    between atoms: C_1  and  O_2
REMARK    2  A    between atoms: O_2  and  C_3
REMARK    3  A    between atoms: C_6  and  C_7
REMARK    4  A    between atoms: C_7  and  C_8
REMARK    5  A    between atoms: N_10  and  C_11
REMARK    6  A    between atoms: N_10  and  C_12
REMARK    7  A    between atoms: C_17  and  O_18
REMARK    8  A    between atoms: O_18  and  C_19
REMARK    9  A    between atoms: C_23  and  N_24
REMARK                            x       y       z     vdW  Elec       q    Type
REMARK                         _______ _______ _______ _____ _____    ______ ____
ROOT
ATOM      1  C   UNL     1      -0.545  10.277  18.994  0.00  0.00    +0.000 C 
ATOM      2  C   UNL     1      -2.892  10.916  18.549  0.00  0.00    +0.000 A 
ATOM      3  C   UNL     1      -4.416  11.709  18.827  0.00  0.00    +0.000 A 
ATOM      4  C   UNL     1      -5.369  11.866  17.681  0.00  0.00    +0.000 A 
ATOM      5  C   UNL     1      -4.886  11.454  16.454  0.00  0.00    +0.000 A 
ATOM      6  C   UNL     1      -3.485  11.330  16.376  0.00  0.00    +0.000 A 
ATOM      7  C   UNL     1      -2.745  11.484  17.509  0.00  0.00    +0.000 A 
ATOM      8  C   UNL     1      -1.689  12.252  17.927  0.00  0.00    +0.000 C 
ATOM      9  C   UNL     1      -1.246  12.153  19.642  0.00  0.00    +0.000 C 
ATOM     10  C   UNL     1       0.045  11.702  19.583  0.00  0.00    +0.000 C 
ENDROOT
BRANCH  10  11
ATOM     11  N   UNL     1       0.943  12.782  18.912  0.00  0.00    +0.000 NA
ATOM     12  C   UNL     1       2.317  12.644  19.483  0.00  0.00    +0.000 C 
ATOM     13  C   UNL     1       2.367  13.514  20.754  0.00  0.00    +0.000 C 
ATOM     14  C   UNL     1       1.673  14.779  20.264  0.00  0.00    +0.000 C 
ATOM     15  C   UNL     1       0.732  14.262  19.076  0.00  0.00    +0.000 C 
ENDBRANCH  10  11
BRANCH   1  18
ATOM     16  C   UNL     1       2.015   8.867  18.273  0.00  0.00    +0.000 C 
ATOM     17  O   UNL     1       1.989   9.209  17.099  0.00  0.00    +0.000 OA
ATOM     18  N   UNL     1       0.939   9.357  19.235  0.00  0.00    +0.000 N 
ATOM     19  C   UNL     1       1.377   8.725  20.509  0.00  0.00    +0.000 C 
BRANCH  16  20
ATOM     20  C   UNL     1       3.279   7.700  18.502  0.00  0.00    +0.000 C 
BRANCH  20  24
ATOM     21  C   UNL     1       2.957   3.282  17.920  0.00  0.00    +0.000 A 
ATOM     22  C   UNL     1       2.109   3.928  18.821  0.00  0.00    +0.000 A 
ATOM     23  C   UNL     1       2.140   5.339  18.966  0.00  0.00    +0.000 A 
ATOM     24  C   UNL     1       3.093   6.148  18.246  0.00  0.00    +0.000 A 
ATOM     25  C   UNL     1       3.891   5.443  17.325  0.00  0.00    +0.000 A 
ATOM     26  C   UNL     1       3.841   4.061  17.175  0.00  0.00    +0.000 A 
BRANCH  21  28
ATOM     27  C   UNL     1       3.740   1.052  18.474  0.00  0.00    +0.000 C 
ATOM     28  O   UNL     1       2.938   1.931  17.762  0.00  0.00    +0.000 OA
ENDBRANCH  21  28
ENDBRANCH  20  24
ENDBRANCH  16  20
ENDBRANCH   1  18
BRANCH   6  29
ATOM     29  O   UNL     1      -2.854  10.927  15.260  0.00  0.00    +0.000 OA
ATOM     30  C   UNL     1      -3.442  10.044  14.401  0.00  0.00    +0.000 C 
ENDBRANCH   6  29
TORSDOF 6
ENDMDL
MODEL 4
REMARK VINA RESULT:      -8.4      3.286      5.132
REMARK  Name = 
REMARK  9 active torsions:
REMARK  status: ('A' for Active; 'I' for Inactive)
REMARK    1  A    between atoms: C_1  and  O_2
REMARK    2  A    between atoms: O_2  and  C_3
REMARK    3  A    between atoms: C_6  and  C_7
REMARK    4  A    between atoms: C_7  and  C_8
REMARK    5  A    between atoms: N_10  and  C_11
REMARK    6  A    between atoms: N_10  and  C_12
REMARK    7  A    between atoms: C_17  and  O_18
REMARK    8  A    between atoms: O_18  and  C_19
REMARK    9  A    between atoms: C_23  and  N_24
REMARK                            x       y       z     vdW  Elec       q    Type
REMARK                         _______ _______ _______ _____ _____    ______ ____
ROOT
ATOM      1  C   UNL     1      -0.947  11.652  20.208  0.00  0.00    +0.000 C 
ATOM      2  C   UNL     1      -2.200  13.631  21.001  0.00  0.00    +0.000 A 
ATOM      3  C   UNL     1      -2.998  15.173  20.886  0.00  0.00    +0.000 A 
ATOM      4  C   UNL     1      -3.967  15.568  21.959  0.00  0.00    +0.000 A 
ATOM      5  C   UNL     1      -4.225  14.595  22.905  0.00  0.00    +0.000 A 
ATOM      6  C   UNL     1      -3.876  13.285  22.524  0.00  0.00    +0.000 A 
ATOM      7  C   UNL     1      -3.208  13.095  21.352  0.00  0.00    +0.000 A 
ATOM      8  C   UNL     1      -3.366  12.354  20.210  0.00  0.00    +0.000 C 
ATOM      9  C   UNL     1      -2.232  12.661  18.882  0.00  0.00    +0.000 C 
ATOM     10  C   UNL     1      -1.634  11.441  18.721  0.00  0.00    +0.000 C 
ENDROOT
BRANCH  10  11
ATOM     11  N   UNL     1      -2.686  10.406  18.230  0.00  0.00    +0.000 NA
ATOM     12  C   UNL     1      -2.139   9.757  17.000  0.00  0.00    +0.000 C 
ATOM     13  C   UNL     1      -2.562  10.630  15.802  0.00  0.00    +0.000 C 
ATOM     14  C   UNL     1      -4.018  10.911  16.151  0.00  0.00    +0.000 C 
ATOM     15  C   UNL     1      -4.061  10.780  17.747  0.00  0.00    +0.000 C 
ENDBRANCH  10  11
BRANCH   1  18
ATOM     16  C   UNL     1       0.476   9.073  20.831  0.00  0.00    +0.000 C 
ATOM     17  O   UNL     1      -0.311   8.736  21.706  0.00  0.00    +0.000 OA
ATOM     18  N   UNL     1       0.236  10.356  20.043  0.00  0.00    +0.000 N 
ATOM     19  C   UNL     1       1.395  10.346  19.110  0.00  0.00    +0.000 C 
BRANCH  16  20
ATOM     20  C   UNL     1       1.837   7.997  20.839  0.00  0.00    +0.000 C 
BRANCH  20  24
ATOM     21  C   UNL     1       1.675   4.140  18.589  0.00  0.00    +0.000 A 
ATOM     22  C   UNL     1       2.189   5.283  17.973  0.00  0.00    +0.000 A 
ATOM     23  C   UNL     1       2.321   6.499  18.692  0.00  0.00    +0.000 A 
ATOM     24  C   UNL     1       1.866   6.620  20.055  0.00  0.00    +0.000 A 
ATOM     25  C   UNL     1       1.397   5.425  20.631  0.00  0.00    +0.000 A 
ATOM     26  C   UNL     1       1.287   4.231  19.925  0.00  0.00    +0.000 A 
BRANCH  21  28
ATOM     27  C   UNL     1       2.596   2.097  17.655  0.00  0.00    +0.000 C 
ATOM     28  O   UNL     1       1.545   2.963  17.919  0.00  0.00    +0.000 OA
ENDBRANCH  21  28
ENDBRANCH  20  24
ENDBRANCH  16  20
ENDBRANCH   1  18
BRANCH   6  29
ATOM     29  O   UNL     1      -4.047  12.224  23.332  0.00  0.00    +0.000 OA
ATOM     30  C   UNL     1      -4.368  12.390  24.648  0.00  0.00    +0.000 C 
ENDBRANCH   6  29
TORSDOF 6
ENDMDL
MODEL 5
REMARK VINA RESULT:      -8.4      2.518      5.013
REMARK  Name = 
REMARK  9 active torsions:
REMARK  status: ('A' for Active; 'I' for Inactive)
REMARK    1  A    between atoms: C_1  and  O_2
REMARK    2  A    between atoms: O_2  and  C_3
REMARK    3  A    between atoms: C_6  and  C_7
REMARK    4  A    between atoms: C_7  and  C_8
REMARK    5  A    between atoms: N_10  and  C_11
REMARK    6  A    between atoms: N_10  and  C_12
REMARK    7  A    between atoms: C_17  and  O_18
REMARK    8  A    between atoms: O_18  and  C_19
REMARK    9  A    between atoms: C_23  and  N_24
REMARK                            x       y       z     vdW  Elec       q    Type
REMARK                         _______ _______ _______ _____ _____    ______ ____
ROOT
ATOM      1  C   UNL     1       0.542  11.814  19.642  0.00  0.00    +0.000 C 
ATOM      2  C   UNL     1       0.477  14.230  20.160  0.00  0.00    +0.000 A 
ATOM      3  C   UNL     1       0.293  15.932  19.844  0.00  0.00    +0.000 A 
ATOM      4  C   UNL     1       0.025  16.856  20.994  0.00  0.00    +0.000 A 
ATOM      5  C   UNL     1      -0.166  16.237  22.214  0.00  0.00    +0.000 A 
ATOM      6  C   UNL     1      -0.476  14.865  22.144  0.00  0.00    +0.000 A 
ATOM      7  C   UNL     1      -0.431  14.239  20.935  0.00  0.00    +0.000 A 
ATOM      8  C   UNL     1      -1.271  13.483  20.158  0.00  0.00    +0.000 C 
ATOM      9  C   UNL     1      -0.716  13.077  18.524  0.00  0.00    +0.000 C 
ATOM     10  C   UNL     1      -0.696  11.709  18.555  0.00  0.00    +0.000 C 
ENDROOT
BRANCH  10  11
ATOM     11  N   UNL     1      -2.147  11.172  18.721  0.00  0.00    +0.000 NA
ATOM     12  C   UNL     1      -2.196   9.809  18.109  0.00  0.00    +0.000 C 
ATOM     13  C   UNL     1      -2.527   9.997  16.615  0.00  0.00    +0.000 C 
ATOM     14  C   UNL     1      -3.639  11.034  16.696  0.00  0.00    +0.000 C 
ATOM     15  C   UNL     1      -3.349  11.801  18.072  0.00  0.00    +0.000 C 
ENDBRANCH  10  11
BRANCH   1  18
ATOM     16  C   UNL     1       1.677   9.319  18.395  0.00  0.00    +0.000 C 
ATOM     17  O   UNL     1       2.060   9.883  17.379  0.00  0.00    +0.000 OA
ATOM     18  N   UNL     1       1.032  10.125  19.517  0.00  0.00    +0.000 N 
ATOM     19  C   UNL     1       0.758   9.060  20.520  0.00  0.00    +0.000 C 
BRANCH  16  20
ATOM     20  C   UNL     1       1.846   7.604  18.197  0.00  0.00    +0.000 C 
BRANCH  20  24
ATOM     21  C   UNL     1       5.637   5.253  18.452  0.00  0.00    +0.000 A 
ATOM     22  C   UNL     1       5.489   6.229  17.465  0.00  0.00    +0.000 A 
ATOM     23  C   UNL     1       4.327   7.040  17.413  0.00  0.00    +0.000 A 
ATOM     24  C   UNL     1       3.228   6.841  18.325  0.00  0.00    +0.000 A 
ATOM     25  C   UNL     1       3.454   5.871  19.320  0.00  0.00    +0.000 A 
ATOM     26  C   UNL     1       4.605   5.091  19.376  0.00  0.00    +0.000 A 
BRANCH  21  28
ATOM     27  C   UNL     1       7.753   4.455  17.571  0.00  0.00    +0.000 C 
ATOM     28  O   UNL     1       6.745   4.469  18.524  0.00  0.00    +0.000 OA
ENDBRANCH  21  28
ENDBRANCH  20  24
ENDBRANCH  16  20
ENDBRANCH   1  18
BRANCH   6  29
ATOM     29  O   UNL     1      -0.678  14.110  23.238  0.00  0.00    +0.000 OA
ATOM     30  C   UNL     1      -1.367  14.600  24.309  0.00  0.00    +0.000 C 
ENDBRANCH   6  29
TORSDOF 6
ENDMDL
MODEL 6
REMARK VINA RESULT:      -8.1      3.359      5.161
REMARK  Name = 
REMARK  9 active torsions:
REMARK  status: ('A' for Active; 'I' for Inactive)
REMARK    1  A    between atoms: C_1  and  O_2
REMARK    2  A    between atoms: O_2  and  C_3
REMARK    3  A    between atoms: C_6  and  C_7
REMARK    4  A    between atoms: C_7  and  C_8
REMARK    5  A    between atoms: N_10  and  C_11
REMARK    6  A    between atoms: N_10  and  C_12
REMARK    7  A    between atoms: C_17  and  O_18
REMARK    8  A    between atoms: O_18  and  C_19
REMARK    9  A    between atoms: C_23  and  N_24
REMARK                            x       y       z     vdW  Elec       q    Type
REMARK                         _______ _______ _______ _____ _____    ______ ____
ROOT
ATOM      1  C   UNL     1      -1.485  11.988  20.563  0.00  0.00    +0.000 C 
ATOM      2  C   UNL     1      -2.908  13.858  21.330  0.00  0.00    +0.000 A 
ATOM      3  C   UNL     1      -3.809  15.342  21.203  0.00  0.00    +0.000 A 
ATOM      4  C   UNL     1      -4.849  15.647  22.239  0.00  0.00    +0.000 A 
ATOM      5  C   UNL     1      -5.075  14.642  23.160  0.00  0.00    +0.000 A 
ATOM      6  C   UNL     1      -4.617  13.367  22.775  0.00  0.00    +0.000 A 
ATOM      7  C   UNL     1      -3.889  13.245  21.630  0.00  0.00    +0.000 A 
ATOM      8  C   UNL     1      -3.945  12.515  20.471  0.00  0.00    +0.000 C 
ATOM      9  C   UNL     1      -2.782  12.926  19.197  0.00  0.00    +0.000 C 
ATOM     10  C   UNL     1      -2.091  11.755  19.045  0.00  0.00    +0.000 C 
ENDROOT
BRANCH  10  11
ATOM     11  N   UNL     1      -3.045  10.656  18.493  0.00  0.00    +0.000 NA
ATOM     12  C   UNL     1      -2.265   9.826  17.526  0.00  0.00    +0.000 C 
ATOM     13  C   UNL     1      -2.388  10.506  16.147  0.00  0.00    +0.000 C 
ATOM     14  C   UNL     1      -3.874  10.837  16.120  0.00  0.00    +0.000 C 
ATOM     15  C   UNL     1      -4.268  10.951  17.669  0.00  0.00    +0.000 C 
ENDBRANCH  10  11
BRANCH   1  18
ATOM     16  C   UNL     1       0.083   9.497  21.197  0.00  0.00    +0.000 C 
ATOM     17  O   UNL     1      -0.722   9.081  22.019  0.00  0.00    +0.000 OA
ATOM     18  N   UNL     1      -0.205  10.782  20.430  0.00  0.00    +0.000 N 
ATOM     19  C   UNL     1       0.999  10.879  19.561  0.00  0.00    +0.000 C 
BRANCH  16  20
ATOM     20  C   UNL     1       1.515   8.517  21.251  0.00  0.00    +0.000 C 
BRANCH  20  24
ATOM     21  C   UNL     1       2.557   5.187  18.460  0.00  0.00    +0.000 A 
ATOM     22  C   UNL     1       2.046   4.899  19.727  0.00  0.00    +0.000 A 
ATOM     23  C   UNL     1       1.636   5.939  20.600  0.00  0.00    +0.000 A 
ATOM     24  C   UNL     1       1.798   7.327  20.245  0.00  0.00    +0.000 A 
ATOM     25  C   UNL     1       2.279   7.552  18.942  0.00  0.00    +0.000 A 
ATOM     26  C   UNL     1       2.662   6.525  18.083  0.00  0.00    +0.000 A 
BRANCH  21  28
ATOM     27  C   UNL     1       2.608   2.868  17.746  0.00  0.00    +0.000 C 
ATOM     28  O   UNL     1       2.950   4.205  17.606  0.00  0.00    +0.000 OA
ENDBRANCH  21  28
ENDBRANCH  20  24
ENDBRANCH  16  20
ENDBRANCH   1  18
BRANCH   6  29
ATOM     29  O   UNL     1      -4.745  12.282  23.559  0.00  0.00    +0.000 OA
ATOM     30  C   UNL     1      -4.484  12.350  24.896  0.00  0.00    +0.000 C 
ENDBRANCH   6  29
TORSDOF 6
ENDMDL
MODEL 7
REMARK VINA RESULT:      -8.1      6.833      9.868
REMARK  Name = 
REMARK  9 active torsions:
REMARK  status: ('A' for Active; 'I' for Inactive)
REMARK    1  A    between atoms: C_1  and  O_2
REMARK    2  A    between atoms: O_2  and  C_3
REMARK    3  A    between atoms: C_6  and  C_7
REMARK    4  A    between atoms: C_7  and  C_8
REMARK    5  A    between atoms: N_10  and  C_11
REMARK    6  A    between atoms: N_10  and  C_12
REMARK    7  A    between atoms: C_17  and  O_18
REMARK    8  A    between atoms: O_18  and  C_19
REMARK    9  A    between atoms: C_23  and  N_24
REMARK                            x       y       z     vdW  Elec       q    Type
REMARK                         _______ _______ _______ _____ _____    ______ ____
ROOT
ATOM      1  C   UNL     1       5.185   5.632  18.527  0.00  0.00    +0.000 C 
ATOM      2  C   UNL     1       3.043   4.607  19.216  0.00  0.00    +0.000 A 
ATOM      3  C   UNL     1       1.390   4.086  19.051  0.00  0.00    +0.000 A 
ATOM      4  C   UNL     1       0.862   3.050  19.996  0.00  0.00    +0.000 A 
ATOM      5  C   UNL     1       1.795   2.512  20.861  0.00  0.00    +0.000 A 
ATOM      6  C   UNL     1       3.138   2.701  20.482  0.00  0.00    +0.000 A 
ATOM      7  C   UNL     1       3.415   3.488  19.406  0.00  0.00    +0.000 A 
ATOM      8  C   UNL     1       4.103   3.378  18.225  0.00  0.00    +0.000 C 
ATOM      9  C   UNL     1       3.962   4.722  17.077  0.00  0.00    +0.000 C 
ATOM     10  C   UNL     1       5.260   5.138  16.954  0.00  0.00    +0.000 C 
ENDROOT
BRANCH  10  11
ATOM     11  N   UNL     1       6.104   4.015  16.284  0.00  0.00    +0.000 NA
ATOM     12  C   UNL     1       7.325   4.653  15.706  0.00  0.00    +0.000 C 
ATOM     13  C   UNL     1       6.962   5.114  14.280  0.00  0.00    +0.000 C 
ATOM     14  C   UNL     1       6.204   3.895  13.769  0.00  0.00    +0.000 C 
ATOM     15  C   UNL     1       5.636   3.212  15.102  0.00  0.00    +0.000 C 
ENDBRANCH  10  11
BRANCH   1  18
ATOM     16  C   UNL     1       6.980   7.943  17.818  0.00  0.00    +0.000 C 
ATOM     17  O   UNL     1       6.094   8.593  17.279  0.00  0.00    +0.000 OA
ATOM     18  N   UNL     1       6.652   6.608  18.477  0.00  0.00    +0.000 N 
ATOM     19  C   UNL     1       7.986   6.206  18.999  0.00  0.00    +0.000 C 
BRANCH  16  20
ATOM     20  C   UNL     1       8.510   8.706  17.523  0.00  0.00    +0.000 C 
BRANCH  20  24
ATOM     21  C   UNL     1      10.212  12.087  19.898  0.00  0.00    +0.000 A 
ATOM     22  C   UNL     1      10.229  12.139  18.503  0.00  0.00    +0.000 A 
ATOM     23  C   UNL     1       9.626  11.114  17.729  0.00  0.00    +0.000 A 
ATOM     24  C   UNL     1       9.040   9.951  18.348  0.00  0.00    +0.000 A 
ATOM     25  C   UNL     1       9.017   9.977  19.754  0.00  0.00    +0.000 A 
ATOM     26  C   UNL     1       9.595  10.995  20.507  0.00  0.00    +0.000 A 
BRANCH  21  28
ATOM     27  C   UNL     1      10.062  14.030  21.344  0.00  0.00    +0.000 C 
ATOM     28  O   UNL     1      10.778  13.061  20.658  0.00  0.00    +0.000 OA
ENDBRANCH  21  28
ENDBRANCH  20  24
ENDBRANCH  16  20
ENDBRANCH   1  18
BRANCH   6  29
ATOM     29  O   UNL     1       4.169   2.253  21.218  0.00  0.00    +0.000 OA
ATOM     30  C   UNL     1       4.964   1.239  20.768  0.00  0.00    +0.000 C 
ENDBRANCH   6  29
TORSDOF 6
ENDMDL
MODEL 8
REMARK VINA RESULT:      -8.0      2.655      9.623
REMARK  Name = 
REMARK  9 active torsions:
REMARK  status: ('A' for Active; 'I' for Inactive)
REMARK    1  A    between atoms: C_1  and  O_2
REMARK    2  A    between atoms: O_2  and  C_3
REMARK    3  A    between atoms: C_6  and  C_7
REMARK    4  A    between atoms: C_7  and  C_8
REMARK    5  A    between atoms: N_10  and  C_11
REMARK    6  A    between atoms: N_10  and  C_12
REMARK    7  A    between atoms: C_17  and  O_18
REMARK    8  A    between atoms: O_18  and  C_19
REMARK    9  A    between atoms: C_23  and  N_24
REMARK                            x       y       z     vdW  Elec       q    Type
REMARK                         _______ _______ _______ _____ _____    ______ ____
ROOT
ATOM      1  C   UNL     1       3.422   6.943  18.718  0.00  0.00    +0.000 C 
ATOM      2  C   UNL     1       5.620   5.894  18.293  0.00  0.00    +0.000 A 
ATOM      3  C   UNL     1       7.039   4.948  18.645  0.00  0.00    +0.000 A 
ATOM      4  C   UNL     1       7.873   4.446  17.506  0.00  0.00    +0.000 A 
ATOM      5  C   UNL     1       7.361   4.696  16.247  0.00  0.00    +0.000 A 
ATOM      6  C   UNL     1       5.989   5.009  16.213  0.00  0.00    +0.000 A 
ATOM      7  C   UNL     1       5.321   5.175  17.388  0.00  0.00    +0.000 A 
ATOM      8  C   UNL     1       4.204   4.661  17.994  0.00  0.00    +0.000 C 
ATOM      9  C   UNL     1       3.906   5.133  19.678  0.00  0.00    +0.000 C 
ATOM     10  C   UNL     1       2.688   5.752  19.595  0.00  0.00    +0.000 C 
ENDROOT
BRANCH  10  11
ATOM     11  N   UNL     1       1.604   4.713  19.185  0.00  0.00    +0.000 NA
ATOM     12  C   UNL     1       0.758   4.446  20.387  0.00  0.00    +0.000 C 
ATOM     13  C   UNL     1       1.434   3.304  21.172  0.00  0.00    +0.000 C 
ATOM     14  C   UNL     1       1.791   2.350  20.039  0.00  0.00    +0.000 C 
ATOM     15  C   UNL     1       1.917   3.305  18.759  0.00  0.00    +0.000 C 
ENDBRANCH  10  11
BRANCH   1  18
ATOM     16  C   UNL     1       1.334   8.659  20.044  0.00  0.00    +0.000 C 
ATOM     17  O   UNL     1       1.694   8.390  21.182  0.00  0.00    +0.000 OA
ATOM     18  N   UNL     1       2.099   8.101  18.850  0.00  0.00    +0.000 N 
ATOM     19  C   UNL     1       1.339   8.690  17.715  0.00  0.00    +0.000 C 
BRANCH  16  20
ATOM     20  C   UNL     1      -0.159   9.542  20.109  0.00  0.00    +0.000 C 
BRANCH  20  24
ATOM     21  C   UNL     1      -0.244  13.901  19.131  0.00  0.00    +0.000 A 
ATOM     22  C   UNL     1      -0.758  12.975  18.222  0.00  0.00    +0.000 A 
ATOM     23  C   UNL     1      -0.812  11.594  18.543  0.00  0.00    +0.000 A 
ATOM     24  C   UNL     1      -0.275  11.088  19.783  0.00  0.00    +0.000 A 
ATOM     25  C   UNL     1       0.191  12.074  20.672  0.00  0.00    +0.000 A 
ATOM     26  C   UNL     1       0.223  13.429  20.357  0.00  0.00    +0.000 A 
BRANCH  21  28
ATOM     27  C   UNL     1       0.970  15.989  18.896  0.00  0.00    +0.000 C 
ATOM     28  O   UNL     1      -0.189  15.229  18.846  0.00  0.00    +0.000 OA
ENDBRANCH  21  28
ENDBRANCH  20  24
ENDBRANCH  16  20
ENDBRANCH   1  18
BRANCH   6  29
ATOM     29  O   UNL     1       5.338   5.292  15.071  0.00  0.00    +0.000 OA
ATOM     30  C   UNL     1       5.406   4.452  13.999  0.00  0.00    +0.000 C 
ENDBRANCH   6  29
TORSDOF 6
ENDMDL
MODEL 9
REMARK VINA RESULT:      -7.9      3.226      5.485
REMARK  Name = 
REMARK  9 active torsions:
REMARK  status: ('A' for Active; 'I' for Inactive)
REMARK    1  A    between atoms: C_1  and  O_2
REMARK    2  A    between atoms: O_2  and  C_3
REMARK    3  A    between atoms: C_6  and  C_7
REMARK    4  A    between atoms: C_7  and  C_8
REMARK    5  A    between atoms: N_10  and  C_11
REMARK    6  A    between atoms: N_10  and  C_12
REMARK    7  A    between atoms: C_17  and  O_18
REMARK    8  A    between atoms: O_18  and  C_19
REMARK    9  A    between atoms: C_23  and  N_24
REMARK                            x       y       z     vdW  Elec       q    Type
REMARK                         _______ _______ _______ _____ _____    ______ ____
ROOT
ATOM      1  C   UNL     1      -0.435  13.899  19.494  0.00  0.00    +0.000 C 
ATOM      2  C   UNL     1      -0.194  16.011  18.231  0.00  0.00    +0.000 A 
ATOM      3  C   UNL     1      -0.637  17.593  17.657  0.00  0.00    +0.000 A 
ATOM      4  C   UNL     1       0.430  18.483  17.096  0.00  0.00    +0.000 A 
ATOM      5  C   UNL     1       1.718  17.992  17.194  0.00  0.00    +0.000 A 
ATOM      6  C   UNL     1       1.890  16.955  18.131  0.00  0.00    +0.000 A 
ATOM      7  C   UNL     1       0.793  16.436  18.750  0.00  0.00    +0.000 A 
ATOM      8  C   UNL     1       0.367  16.224  20.036  0.00  0.00    +0.000 C 
ATOM      9  C   UNL     1      -1.301  15.661  20.253  0.00  0.00    +0.000 C 
ATOM     10  C   UNL     1      -1.123  14.460  20.886  0.00  0.00    +0.000 C 
ENDROOT
BRANCH  10  11
ATOM     11  N   UNL     1      -0.506  14.702  22.294  0.00  0.00    +0.000 NA
ATOM     12  C   UNL     1      -0.990  13.610  23.191  0.00  0.00    +0.000 C 
ATOM     13  C   UNL     1      -2.331  14.079  23.791  0.00  0.00    +0.000 C 
ATOM     14  C   UNL     1      -1.994  15.519  24.156  0.00  0.00    +0.000 C 
ATOM     15  C   UNL     1      -0.814  15.904  23.144  0.00  0.00    +0.000 C 
ENDBRANCH  10  11
BRANCH   1  18
ATOM     16  C   UNL     1       0.437  11.306  20.751  0.00  0.00    +0.000 C 
ATOM     17  O   UNL     1       1.396  11.797  21.333  0.00  0.00    +0.000 OA
ATOM     18  N   UNL     1      -0.499  12.194  19.940  0.00  0.00    +0.000 N 
ATOM     19  C   UNL     1      -1.492  11.201  19.450  0.00  0.00    +0.000 C 
BRANCH  16  20
ATOM     20  C   UNL     1       0.503   9.578  20.894  0.00  0.00    +0.000 C 
BRANCH  20  24
ATOM     21  C   UNL     1       3.041   7.108  18.170  0.00  0.00    +0.000 A 
ATOM     22  C   UNL     1       2.740   6.643  19.452  0.00  0.00    +0.000 A 
ATOM     23  C   UNL     1       1.874   7.373  20.306  0.00  0.00    +0.000 A 
ATOM     24  C   UNL     1       1.332   8.651  19.913  0.00  0.00    +0.000 A 
ATOM     25  C   UNL     1       1.639   9.044  18.598  0.00  0.00    +0.000 A 
ATOM     26  C   UNL     1       2.475   8.314  17.758  0.00  0.00    +0.000 A 
BRANCH  21  28
ATOM     27  C   UNL     1       5.190   6.751  17.100  0.00  0.00    +0.000 C 
ATOM     28  O   UNL     1       3.864   6.420  17.334  0.00  0.00    +0.000 OA
ENDBRANCH  21  28
ENDBRANCH  20  24
ENDBRANCH  16  20
ENDBRANCH   1  18
BRANCH   6  29
ATOM     29  O   UNL     1       3.075  16.356  18.341  0.00  0.00    +0.000 OA
ATOM     30  C   UNL     1       3.393  15.190  17.708  0.00  0.00    +0.000 C 
ENDBRANCH   6  29
TORSDOF 6
ENDMDL
