MODEL 1
REMARK VINA RESULT:      -7.1      0.000      0.000
REMARK  Name = 
REMARK  4 active torsions:
REMARK  status: ('A' for Active; 'I' for Inactive)
REMARK    1  A    between atoms: C_1  and  N_2
REMARK    2  A    between atoms: C_3  and  C_5
REMARK    3  A    between atoms: C_9  and  N_10
REMARK    4  A    between atoms: C_13  and  C_14
REMARK                            x       y       z     vdW  Elec       q    Type
REMARK                         _______ _______ _______ _____ _____    ______ ____
ROOT
ATOM      1  N   UNL     1       2.935   7.237  17.709  0.00  0.00    +0.000 N 
ATOM      2  C   UNL     1       2.138   8.096  18.479  0.00  0.00    +0.000 A 
ATOM      3  N   UNL     1       2.088   7.932  19.805  0.00  0.00    +0.000 NA
ATOM      4  C   UNL     1       1.229   8.700  20.508  0.00  0.00    +0.000 A 
ATOM      5  C   UNL     1       1.190   8.431  21.984  0.00  0.00    +0.000 C 
ATOM      6  C   UNL     1       0.428   9.675  19.911  0.00  0.00    +0.000 A 
ATOM      7  C   UNL     1      -0.477  10.517  20.607  0.00  0.00    +0.000 A 
ATOM      8  C   UNL     1      -1.224  11.473  19.924  0.00  0.00    +0.000 A 
ATOM      9  C   UNL     1      -1.077  11.592  18.551  0.00  0.00    +0.000 A 
ATOM     10  C   UNL     1      -0.189  10.751  17.868  0.00  0.00    +0.000 A 
ATOM     11  C   UNL     1       0.574   9.785  18.523  0.00  0.00    +0.000 A 
ATOM     12  N   UNL     1       1.409   8.999  17.814  0.00  0.00    +0.000 NA
ATOM     13  H   UNL     1       2.522   7.270  16.780  0.00  0.00    +0.000 HD
ENDROOT
BRANCH   1  18
ATOM     14  C   UNL     1       4.286   5.139  17.680  0.00  0.00    +0.000 C 
ATOM     15  C   UNL     1       3.861   3.670  17.778  0.00  0.00    +0.000 C 
ATOM     16  C   UNL     1       2.382   3.677  17.462  0.00  0.00    +0.000 C 
ATOM     17  C   UNL     1       1.866   5.008  17.990  0.00  0.00    +0.000 C 
ATOM     18  C   UNL     1       3.094   5.894  18.289  0.00  0.00    +0.000 C 
BRANCH  14  21
ATOM     19  C   UNL     1       7.742   6.514  18.445  0.00  0.00    +0.000 C 
ATOM     20  N   UNL     1       6.428   6.303  17.892  0.00  0.00    +0.000 N 
ATOM     21  C   UNL     1       5.607   5.336  18.415  0.00  0.00    +0.000 C 
ATOM     22  O   UNL     1       5.956   4.622  19.354  0.00  0.00    +0.000 OA
ATOM     23  H   UNL     1       6.040   6.973  17.233  0.00  0.00    +0.000 HD
ENDBRANCH  14  21
ENDBRANCH   1  18
TORSDOF 2
ENDMDL
MODEL 2
REMARK VINA RESULT:      -6.8      4.444      6.232
REMARK  Name = 
REMARK  4 active torsions:
REMARK  status: ('A' for Active; 'I' for Inactive)
REMARK    1  A    between atoms: C_1  and  N_2
REMARK    2  A    between atoms: C_3  and  C_5
REMARK    3  A    between atoms: C_9  and  N_10
REMARK    4  A    between atoms: C_13  and  C_14
REMARK                            x       y       z     vdW  Elec       q    Type
REMARK                         _______ _______ _______ _____ _____    ______ ____
ROOT
ATOM      1  N   UNL     1       6.005   4.085  17.953  0.00  0.00    +0.000 N 
ATOM      2  C   UNL     1       4.713   3.851  18.444  0.00  0.00    +0.000 A 
ATOM      3  N   UNL     1       3.658   4.316  17.764  0.00  0.00    +0.000 NA
ATOM      4  C   UNL     1       2.434   4.173  18.315  0.00  0.00    +0.000 A 
ATOM      5  C   UNL     1       1.303   4.757  17.521  0.00  0.00    +0.000 C 
ATOM      6  C   UNL     1       2.229   3.531  19.537  0.00  0.00    +0.000 A 
ATOM      7  C   UNL     1       0.963   3.342  20.149  0.00  0.00    +0.000 A 
ATOM      8  C   UNL     1       0.856   2.674  21.366  0.00  0.00    +0.000 A 
ATOM      9  C   UNL     1       2.004   2.197  21.978  0.00  0.00    +0.000 A 
ATOM     10  C   UNL     1       3.252   2.396  21.373  0.00  0.00    +0.000 A 
ATOM     11  C   UNL     1       3.392   3.059  20.156  0.00  0.00    +0.000 A 
ATOM     12  N   UNL     1       4.619   3.226  19.623  0.00  0.00    +0.000 NA
ATOM     13  H   UNL     1       6.603   4.026  18.773  0.00  0.00    +0.000 HD
ENDROOT
BRANCH   1  18
ATOM     14  C   UNL     1       7.368   5.309  16.258  0.00  0.00    +0.000 C 
ATOM     15  C   UNL     1       7.742   6.790  16.151  0.00  0.00    +0.000 C 
ATOM     16  C   UNL     1       7.486   7.352  17.531  0.00  0.00    +0.000 C 
ATOM     17  C   UNL     1       6.313   6.552  18.078  0.00  0.00    +0.000 C 
ATOM     18  C   UNL     1       6.126   5.321  17.164  0.00  0.00    +0.000 C 
BRANCH  14  21
ATOM     19  C   UNL     1       7.558   5.013  12.477  0.00  0.00    +0.000 C 
ATOM     20  N   UNL     1       7.780   5.400  13.848  0.00  0.00    +0.000 N 
ATOM     21  C   UNL     1       7.132   4.742  14.863  0.00  0.00    +0.000 C 
ATOM     22  O   UNL     1       6.348   3.818  14.646  0.00  0.00    +0.000 OA
ATOM     23  H   UNL     1       8.536   6.039  14.081  0.00  0.00    +0.000 HD
ENDBRANCH  14  21
ENDBRANCH   1  18
TORSDOF 2
ENDMDL
MODEL 3
REMARK VINA RESULT:      -6.8      1.898      2.862
REMARK  Name = 
REMARK  4 active torsions:
REMARK  status: ('A' for Active; 'I' for Inactive)
REMARK    1  A    between atoms: C_1  and  N_2
REMARK    2  A    between atoms: C_3  and  C_5
REMARK    3  A    between atoms: C_9  and  N_10
REMARK    4  A    between atoms: C_13  and  C_14
REMARK                            x       y       z     vdW  Elec       q    Type
REMARK                         _______ _______ _______ _____ _____    ______ ____
ROOT
ATOM      1  N   UNL     1       4.700   6.961  16.772  0.00  0.00    +0.000 N 
ATOM      2  C   UNL     1       3.770   7.226  17.787  0.00  0.00    +0.000 A 
ATOM      3  N   UNL     1       3.527   6.293  18.715  0.00  0.00    +0.000 NA
ATOM      4  C   UNL     1       2.548   6.532  19.614  0.00  0.00    +0.000 A 
ATOM      5  C   UNL     1       2.298   5.426  20.596  0.00  0.00    +0.000 C 
ATOM      6  C   UNL     1       1.815   7.720  19.632  0.00  0.00    +0.000 A 
ATOM      7  C   UNL     1       0.789   8.024  20.564  0.00  0.00    +0.000 A 
ATOM      8  C   UNL     1       0.123   9.244  20.512  0.00  0.00    +0.000 A 
ATOM      9  C   UNL     1       0.469  10.163  19.533  0.00  0.00    +0.000 A 
ATOM     10  C   UNL     1       1.477   9.852  18.610  0.00  0.00    +0.000 A 
ATOM     11  C   UNL     1       2.163   8.640  18.636  0.00  0.00    +0.000 A 
ATOM     12  N   UNL     1       3.119   8.393  17.719  0.00  0.00    +0.000 NA
ATOM     13  H   UNL     1       4.429   7.578  16.011  0.00  0.00    +0.000 HD
ENDROOT
BRANCH   1  18
ATOM     14  C   UNL     1       6.057   4.886  17.054  0.00  0.00    +0.000 C 
ATOM     15  C   UNL     1       6.420   3.780  16.057  0.00  0.00    +0.000 C 
ATOM     16  C   UNL     1       6.154   4.387  14.698  0.00  0.00    +0.000 C 
ATOM     17  C   UNL     1       4.986   5.340  14.906  0.00  0.00    +0.000 C 
ATOM     18  C   UNL     1       4.813   5.535  16.428  0.00  0.00    +0.000 C 
BRANCH  14  21
ATOM     19  C   UNL     1       4.481   2.736  19.759  0.00  0.00    +0.000 C 
ATOM     20  N   UNL     1       4.849   3.318  18.492  0.00  0.00    +0.000 N 
ATOM     21  C   UNL     1       5.831   4.274  18.432  0.00  0.00    +0.000 C 
ATOM     22  O   UNL     1       6.420   4.669  19.438  0.00  0.00    +0.000 OA
ATOM     23  H   UNL     1       4.509   2.908  17.626  0.00  0.00    +0.000 HD
ENDBRANCH  14  21
ENDBRANCH   1  18
TORSDOF 2
ENDMDL
MODEL 4
REMARK VINA RESULT:      -6.7      3.151      7.442
REMARK  Name = 
REMARK  4 active torsions:
REMARK  status: ('A' for Active; 'I' for Inactive)
REMARK    1  A    between atoms: C_1  and  N_2
REMARK    2  A    between atoms: C_3  and  C_5
REMARK    3  A    between atoms: C_9  and  N_10
REMARK    4  A    between atoms: C_13  and  C_14
REMARK                            x       y       z     vdW  Elec       q    Type
REMARK                         _______ _______ _______ _____ _____    ______ ____
ROOT
ATOM      1  N   UNL     1       1.293  10.995  17.808  0.00  0.00    +0.000 N 
ATOM      2  C   UNL     1       1.600   9.731  18.332  0.00  0.00    +0.000 A 
ATOM      3  N   UNL     1       1.112   9.379  19.526  0.00  0.00    +0.000 NA
ATOM      4  C   UNL     1       1.512   8.203  20.055  0.00  0.00    +0.000 A 
ATOM      5  C   UNL     1       0.962   7.893  21.416  0.00  0.00    +0.000 C 
ATOM      6  C   UNL     1       2.378   7.334  19.389  0.00  0.00    +0.000 A 
ATOM      7  C   UNL     1       2.816   6.082  19.895  0.00  0.00    +0.000 A 
ATOM      8  C   UNL     1       3.671   5.277  19.149  0.00  0.00    +0.000 A 
ATOM      9  C   UNL     1       4.096   5.712  17.904  0.00  0.00    +0.000 A 
ATOM     10  C   UNL     1       3.669   6.954  17.415  0.00  0.00    +0.000 A 
ATOM     11  C   UNL     1       2.812   7.783  18.136  0.00  0.00    +0.000 A 
ATOM     12  N   UNL     1       2.438   8.970  17.619  0.00  0.00    +0.000 NA
ATOM     13  H   UNL     1       2.049  11.191  17.157  0.00  0.00    +0.000 HD
ENDROOT
BRANCH   1  18
ATOM     14  C   UNL     1      -0.187  12.872  18.522  0.00  0.00    +0.000 C 
ATOM     15  C   UNL     1       0.145  14.227  19.155  0.00  0.00    +0.000 C 
ATOM     16  C   UNL     1       1.619  14.426  18.885  0.00  0.00    +0.000 C 
ATOM     17  C   UNL     1       2.221  13.029  18.901  0.00  0.00    +0.000 C 
ATOM     18  C   UNL     1       1.053  12.021  18.835  0.00  0.00    +0.000 C 
BRANCH  14  21
ATOM     19  C   UNL     1      -3.497  12.885  20.385  0.00  0.00    +0.000 C 
ATOM     20  N   UNL     1      -2.286  13.283  19.711  0.00  0.00    +0.000 N 
ATOM     21  C   UNL     1      -1.490  12.341  19.111  0.00  0.00    +0.000 C 
ATOM     22  O   UNL     1      -1.768  11.143  19.130  0.00  0.00    +0.000 OA
ATOM     23  H   UNL     1      -2.105  14.267  19.529  0.00  0.00    +0.000 HD
ENDBRANCH  14  21
ENDBRANCH   1  18
TORSDOF 2
ENDMDL
MODEL 5
REMARK VINA RESULT:      -6.7      4.479      7.461
REMARK  Name = 
REMARK  4 active torsions:
REMARK  status: ('A' for Active; 'I' for Inactive)
REMARK    1  A    between atoms: C_1  and  N_2
REMARK    2  A    between atoms: C_3  and  C_5
REMARK    3  A    between atoms: C_9  and  N_10
REMARK    4  A    between atoms: C_13  and  C_14
REMARK                            x       y       z     vdW  Elec       q    Type
REMARK                         _______ _______ _______ _____ _____    ______ ____
ROOT
ATOM      1  N   UNL     1       4.334   2.935  17.318  0.00  0.00    +0.000 N 
ATOM      2  C   UNL     1       5.260   3.607  16.508  0.00  0.00    +0.000 A 
ATOM      3  N   UNL     1       5.967   4.620  17.021  0.00  0.00    +0.000 NA
ATOM      4  C   UNL     1       6.769   5.319  16.190  0.00  0.00    +0.000 A 
ATOM      5  C   UNL     1       7.497   6.469  16.821  0.00  0.00    +0.000 C 
ATOM      6  C   UNL     1       6.914   5.001  14.839  0.00  0.00    +0.000 A 
ATOM      7  C   UNL     1       7.755   5.694  13.929  0.00  0.00    +0.000 A 
ATOM      8  C   UNL     1       7.844   5.294  12.600  0.00  0.00    +0.000 A 
ATOM      9  C   UNL     1       7.097   4.208  12.169  0.00  0.00    +0.000 A 
ATOM     10  C   UNL     1       6.262   3.534  13.069  0.00  0.00    +0.000 A 
ATOM     11  C   UNL     1       6.151   3.910  14.407  0.00  0.00    +0.000 A 
ATOM     12  N   UNL     1       5.326   3.229  15.226  0.00  0.00    +0.000 NA
ATOM     13  H   UNL     1       3.669   2.530  16.663  0.00  0.00    +0.000 HD
ENDROOT
BRANCH   1  18
ATOM     14  C   UNL     1       2.877   2.961  19.344  0.00  0.00    +0.000 C 
ATOM     15  C   UNL     1       1.834   3.978  19.818  0.00  0.00    +0.000 C 
ATOM     16  C   UNL     1       1.515   4.800  18.589  0.00  0.00    +0.000 C 
ATOM     17  C   UNL     1       2.808   4.844  17.789  0.00  0.00    +0.000 C 
ATOM     18  C   UNL     1       3.753   3.774  18.378  0.00  0.00    +0.000 C 
BRANCH  14  21
ATOM     19  C   UNL     1       5.534   1.090  21.310  0.00  0.00    +0.000 C 
ATOM     20  N   UNL     1       4.795   1.749  20.262  0.00  0.00    +0.000 N 
ATOM     21  C   UNL     1       3.618   2.393  20.550  0.00  0.00    +0.000 C 
ATOM     22  O   UNL     1       3.154   2.428  21.689  0.00  0.00    +0.000 OA
ATOM     23  H   UNL     1       5.219   1.885  19.348  0.00  0.00    +0.000 HD
ENDBRANCH  14  21
ENDBRANCH   1  18
TORSDOF 2
ENDMDL
MODEL 6
REMARK VINA RESULT:      -6.7      3.350      7.175
REMARK  Name = 
REMARK  4 active torsions:
REMARK  status: ('A' for Active; 'I' for Inactive)
REMARK    1  A    between atoms: C_1  and  N_2
REMARK    2  A    between atoms: C_3  and  C_5
REMARK    3  A    between atoms: C_9  and  N_10
REMARK    4  A    between atoms: C_13  and  C_14
REMARK                            x       y       z     vdW  Elec       q    Type
REMARK                         _______ _______ _______ _____ _____    ______ ____
ROOT
ATOM      1  N   UNL     1       1.748  11.217  17.788  0.00  0.00    +0.000 N 
ATOM      2  C   UNL     1       1.781   9.952  18.392  0.00  0.00    +0.000 A 
ATOM      3  N   UNL     1       1.231   9.787  19.600  0.00  0.00    +0.000 NA
ATOM      4  C   UNL     1       1.374   8.588  20.205  0.00  0.00    +0.000 A 
ATOM      5  C   UNL     1       0.773   8.488  21.576  0.00  0.00    +0.000 C 
ATOM      6  C   UNL     1       2.035   7.516  19.604  0.00  0.00    +0.000 A 
ATOM      7  C   UNL     1       2.199   6.234  20.191  0.00  0.00    +0.000 A 
ATOM      8  C   UNL     1       2.862   5.221  19.507  0.00  0.00    +0.000 A 
ATOM      9  C   UNL     1       3.369   5.478  18.242  0.00  0.00    +0.000 A 
ATOM     10  C   UNL     1       3.213   6.748  17.672  0.00  0.00    +0.000 A 
ATOM     11  C   UNL     1       2.552   7.783  18.331  0.00  0.00    +0.000 A 
ATOM     12  N   UNL     1       2.437   8.988  17.737  0.00  0.00    +0.000 NA
ATOM     13  H   UNL     1       2.527  11.208  17.135  0.00  0.00    +0.000 HD
ENDROOT
BRANCH   1  18
ATOM     14  C   UNL     1       0.435  13.152  18.659  0.00  0.00    +0.000 C 
ATOM     15  C   UNL     1       0.876  14.559  19.073  0.00  0.00    +0.000 C 
ATOM     16  C   UNL     1       2.241  14.732  18.448  0.00  0.00    +0.000 C 
ATOM     17  C   UNL     1       2.861  13.343  18.447  0.00  0.00    +0.000 C 
ATOM     18  C   UNL     1       1.732  12.333  18.747  0.00  0.00    +0.000 C 
BRANCH  14  21
ATOM     19  C   UNL     1      -1.227  11.683  21.742  0.00  0.00    +0.000 C 
ATOM     20  N   UNL     1      -0.273  12.243  20.818  0.00  0.00    +0.000 N 
ATOM     21  C   UNL     1      -0.682  12.676  19.582  0.00  0.00    +0.000 C 
ATOM     22  O   UNL     1      -1.855  12.600  19.219  0.00  0.00    +0.000 OA
ATOM     23  H   UNL     1       0.666  12.475  21.135  0.00  0.00    +0.000 HD
ENDBRANCH  14  21
ENDBRANCH   1  18
TORSDOF 2
ENDMDL
MODEL 7
REMARK VINA RESULT:      -6.6      2.468      7.103
REMARK  Name = 
REMARK  4 active torsions:
REMARK  status: ('A' for Active; 'I' for Inactive)
REMARK    1  A    between atoms: C_1  and  N_2
REMARK    2  A    between atoms: C_3  and  C_5
REMARK    3  A    between atoms: C_9  and  N_10
REMARK    4  A    between atoms: C_13  and  C_14
REMARK                            x       y       z     vdW  Elec       q    Type
REMARK                         _______ _______ _______ _____ _____    ______ ____
ROOT
ATOM      1  N   UNL     1       2.144   8.851  18.414  0.00  0.00    +0.000 N 
ATOM      2  C   UNL     1       2.695   7.629  18.003  0.00  0.00    +0.000 A 
ATOM      3  N   UNL     1       1.952   6.518  18.069  0.00  0.00    +0.000 NA
ATOM      4  C   UNL     1       2.543   5.341  17.772  0.00  0.00    +0.000 A 
ATOM      5  C   UNL     1       1.664   4.132  17.911  0.00  0.00    +0.000 C 
ATOM      6  C   UNL     1       3.875   5.247  17.368  0.00  0.00    +0.000 A 
ATOM      7  C   UNL     1       4.536   4.038  17.031  0.00  0.00    +0.000 A 
ATOM      8  C   UNL     1       5.866   4.046  16.623  0.00  0.00    +0.000 A 
ATOM      9  C   UNL     1       6.544   5.253  16.553  0.00  0.00    +0.000 A 
ATOM     10  C   UNL     1       5.889   6.443  16.896  0.00  0.00    +0.000 A 
ATOM     11  C   UNL     1       4.558   6.468  17.307  0.00  0.00    +0.000 A 
ATOM     12  N   UNL     1       3.980   7.642  17.631  0.00  0.00    +0.000 NA
ATOM     13  H   UNL     1       2.947   9.423  18.661  0.00  0.00    +0.000 HD
ENDROOT
BRANCH   1  18
ATOM     14  C   UNL     1       0.551  10.080  19.891  0.00  0.00    +0.000 C 
ATOM     15  C   UNL     1       0.154   9.848  21.352  0.00  0.00    +0.000 C 
ATOM     16  C   UNL     1       1.246   8.963  21.910  0.00  0.00    +0.000 C 
ATOM     17  C   UNL     1       1.695   8.096  20.743  0.00  0.00    +0.000 C 
ATOM     18  C   UNL     1       1.112   8.717  19.455  0.00  0.00    +0.000 C 
BRANCH  14  21
ATOM     19  C   UNL     1      -2.688  11.912  19.134  0.00  0.00    +0.000 C 
ATOM     20  N   UNL     1      -1.459  11.467  19.742  0.00  0.00    +0.000 N 
ATOM     21  C   UNL     1      -0.667  10.548  19.102  0.00  0.00    +0.000 C 
ATOM     22  O   UNL     1      -0.971  10.074  18.008  0.00  0.00    +0.000 OA
ATOM     23  H   UNL     1      -1.091  11.950  20.558  0.00  0.00    +0.000 HD
ENDBRANCH  14  21
ENDBRANCH   1  18
TORSDOF 2
ENDMDL
MODEL 8
REMARK VINA RESULT:      -6.6      2.720      7.094
REMARK  Name = 
REMARK  4 active torsions:
REMARK  status: ('A' for Active; 'I' for Inactive)
REMARK    1  A    between atoms: C_1  and  N_2
REMARK    2  A    between atoms: C_3  and  C_5
REMARK    3  A    between atoms: C_9  and  N_10
REMARK    4  A    between atoms: C_13  and  C_14
REMARK                            x       y       z     vdW  Elec       q    Type
REMARK                         _______ _______ _______ _____ _____    ______ ____
ROOT
ATOM      1  N   UNL     1       1.326   7.595  21.186  0.00  0.00    +0.000 N 
ATOM      2  C   UNL     1       1.828   6.609  20.327  0.00  0.00    +0.000 A 
ATOM      3  N   UNL     1       2.713   6.948  19.383  0.00  0.00    +0.000 NA
ATOM      4  C   UNL     1       3.095   6.001  18.500  0.00  0.00    +0.000 A 
ATOM      5  C   UNL     1       4.054   6.463  17.442  0.00  0.00    +0.000 C 
ATOM      6  C   UNL     1       2.633   4.686  18.560  0.00  0.00    +0.000 A 
ATOM      7  C   UNL     1       3.016   3.652  17.666  0.00  0.00    +0.000 A 
ATOM      8  C   UNL     1       2.511   2.364  17.814  0.00  0.00    +0.000 A 
ATOM      9  C   UNL     1       1.624   2.099  18.846  0.00  0.00    +0.000 A 
ATOM     10  C   UNL     1       1.242   3.127  19.719  0.00  0.00    +0.000 A 
ATOM     11  C   UNL     1       1.730   4.427  19.598  0.00  0.00    +0.000 A 
ATOM     12  N   UNL     1       1.324   5.377  20.463  0.00  0.00    +0.000 NA
ATOM     13  H   UNL     1       0.434   7.226  21.505  0.00  0.00    +0.000 HD
ENDROOT
BRANCH   1  18
ATOM     14  C   UNL     1      -0.094   9.601  20.753  0.00  0.00    +0.000 C 
ATOM     15  C   UNL     1      -0.199  10.510  19.524  0.00  0.00    +0.000 C 
ATOM     16  C   UNL     1       0.427   9.713  18.403  0.00  0.00    +0.000 C 
ATOM     17  C   UNL     1       1.515   8.879  19.063  0.00  0.00    +0.000 C 
ATOM     18  C   UNL     1       1.282   8.939  20.588  0.00  0.00    +0.000 C 
BRANCH  14  21
ATOM     19  C   UNL     1      -1.150  12.489  22.982  0.00  0.00    +0.000 C 
ATOM     20  N   UNL     1      -1.009  11.572  21.879  0.00  0.00    +0.000 N 
ATOM     21  C   UNL     1      -0.251  10.437  22.019  0.00  0.00    +0.000 C 
ATOM     22  O   UNL     1       0.331  10.166  23.068  0.00  0.00    +0.000 OA
ATOM     23  H   UNL     1      -1.600  11.670  21.057  0.00  0.00    +0.000 HD
ENDBRANCH  14  21
ENDBRANCH   1  18
TORSDOF 2
ENDMDL
MODEL 9
REMARK VINA RESULT:      -6.5      3.622      5.519
REMARK  Name = 
REMARK  4 active torsions:
REMARK  status: ('A' for Active; 'I' for Inactive)
REMARK    1  A    between atoms: C_1  and  N_2
REMARK    2  A    between atoms: C_3  and  C_5
REMARK    3  A    between atoms: C_9  and  N_10
REMARK    4  A    between atoms: C_13  and  C_14
REMARK                            x       y       z     vdW  Elec       q    Type
REMARK                         _______ _______ _______ _____ _____    ______ ____
ROOT
ATOM      1  N   UNL     1       5.185   2.978  16.442  0.00  0.00    +0.000 N 
ATOM      2  C   UNL     1       4.194   3.427  17.326  0.00  0.00    +0.000 A 
ATOM      3  N   UNL     1       3.790   4.701  17.267  0.00  0.00    +0.000 NA
ATOM      4  C   UNL     1       2.916   5.134  18.201  0.00  0.00    +0.000 A 
ATOM      5  C   UNL     1       2.542   6.584  18.104  0.00  0.00    +0.000 C 
ATOM      6  C   UNL     1       2.397   4.299  19.191  0.00  0.00    +0.000 A 
ATOM      7  C   UNL     1       1.466   4.702  20.184  0.00  0.00    +0.000 A 
ATOM      8  C   UNL     1       0.993   3.791  21.123  0.00  0.00    +0.000 A 
ATOM      9  C   UNL     1       1.444   2.481  21.082  0.00  0.00    +0.000 A 
ATOM     10  C   UNL     1       2.371   2.092  20.106  0.00  0.00    +0.000 A 
ATOM     11  C   UNL     1       2.863   2.980  19.151  0.00  0.00    +0.000 A 
ATOM     12  N   UNL     1       3.757   2.552  18.238  0.00  0.00    +0.000 NA
ATOM     13  H   UNL     1       5.600   2.177  16.910  0.00  0.00    +0.000 HD
ENDROOT
BRANCH   1  18
ATOM     14  C   UNL     1       6.323   5.097  17.106  0.00  0.00    +0.000 C 
ATOM     15  C   UNL     1       6.633   6.364  16.303  0.00  0.00    +0.000 C 
ATOM     16  C   UNL     1       5.726   6.285  15.097  0.00  0.00    +0.000 C 
ATOM     17  C   UNL     1       5.588   4.800  14.796  0.00  0.00    +0.000 C 
ATOM     18  C   UNL     1       6.125   4.028  16.020  0.00  0.00    +0.000 C 
BRANCH  14  21
ATOM     19  C   UNL     1       8.457   5.356  20.237  0.00  0.00    +0.000 C 
ATOM     20  N   UNL     1       7.387   5.470  19.279  0.00  0.00    +0.000 N 
ATOM     21  C   UNL     1       7.467   4.816  18.075  0.00  0.00    +0.000 C 
ATOM     22  O   UNL     1       8.439   4.126  17.770  0.00  0.00    +0.000 OA
ATOM     23  H   UNL     1       6.501   5.889  19.552  0.00  0.00    +0.000 HD
ENDBRANCH  14  21
ENDBRANCH   1  18
TORSDOF 2
ENDMDL
