MODEL 1
REMARK VINA RESULT:      -7.9      0.000      0.000
REMARK  Name = 
REMARK  5 active torsions:
REMARK  status: ('A' for Active; 'I' for Inactive)
REMARK    1  A    between atoms: N_2  and  C_4
REMARK    2  A    between atoms: C_8  and  P_9
REMARK    3  A    between atoms: P_9  and  O_11
REMARK    4  A    between atoms: P_9  and  C_12
REMARK    5  A    between atoms: C_16  and  N_17
REMARK                            x       y       z     vdW  Elec       q    Type
REMARK                         _______ _______ _______ _____ _____    ______ ____
ROOT
ATOM      1  P   UNL     1       6.962   5.092  16.336  0.00  0.00    +0.000 P 
ATOM      2  O   UNL     1       7.955   4.325  17.176  0.00  0.00    +0.000 OA
ENDROOT
BRANCH   1   7
ATOM      3  C   UNL     1       6.215   3.693  12.546  0.00  0.00    +0.000 A 
ATOM      4  C   UNL     1       7.056   4.510  11.781  0.00  0.00    +0.000 A 
ATOM      5  C   UNL     1       7.944   5.365  12.424  0.00  0.00    +0.000 A 
ATOM      6  C   UNL     1       7.970   5.425  13.820  0.00  0.00    +0.000 A 
ATOM      7  C   UNL     1       7.106   4.644  14.610  0.00  0.00    +0.000 A 
ATOM      8  C   UNL     1       6.237   3.748  13.956  0.00  0.00    +0.000 A 
BRANCH   3  10
ATOM      9  O   UNL     1       5.640   1.703  11.490  0.00  0.00    +0.000 OA
ATOM     10  N   UNL     1       5.253   2.825  11.848  0.00  0.00    +0.000 N 
ATOM     11  O   UNL     1       4.108   3.264  11.670  0.00  0.00    +0.000 OA
ENDBRANCH   3  10
ENDBRANCH   1   7
BRANCH   1  12
ATOM     12  C   UNL     1       5.354   5.120  17.105  0.00  0.00    +0.000 A 
ATOM     13  C   UNL     1       4.578   6.268  17.293  0.00  0.00    +0.000 A 
ATOM     14  C   UNL     1       3.230   6.168  17.668  0.00  0.00    +0.000 A 
ATOM     15  C   UNL     1       2.631   4.919  17.859  0.00  0.00    +0.000 A 
ATOM     16  C   UNL     1       3.408   3.766  17.725  0.00  0.00    +0.000 A 
ATOM     17  C   UNL     1       4.760   3.864  17.376  0.00  0.00    +0.000 A 
BRANCH  16  18
ATOM     18  N   UNL     1       2.782   2.440  17.884  0.00  0.00    +0.000 N 
ATOM     19  O   UNL     1       3.529   1.465  18.053  0.00  0.00    +0.000 OA
ATOM     20  O   UNL     1       1.544   2.379  17.849  0.00  0.00    +0.000 OA
ENDBRANCH  16  18
ENDBRANCH   1  12
BRANCH   1  21
ATOM     21  O   UNL     1       7.467   6.632  16.373  0.00  0.00    +0.000 OA
ATOM     22  H   UNL     1       8.417   6.662  16.606  0.00  0.00    +0.000 HD
ENDBRANCH   1  21
TORSDOF 5
ENDMDL
MODEL 2
REMARK VINA RESULT:      -7.7      4.158      5.659
REMARK  Name = 
REMARK  5 active torsions:
REMARK  status: ('A' for Active; 'I' for Inactive)
REMARK    1  A    between atoms: N_2  and  C_4
REMARK    2  A    between atoms: C_8  and  P_9
REMARK    3  A    between atoms: P_9  and  O_11
REMARK    4  A    between atoms: P_9  and  C_12
REMARK    5  A    between atoms: C_16  and  N_17
REMARK                            x       y       z     vdW  Elec       q    Type
REMARK                         _______ _______ _______ _____ _____    ______ ____
ROOT
ATOM      1  P   UNL     1       3.048   5.516  18.909  0.00  0.00    +0.000 P 
ATOM      2  O   UNL     1       2.041   4.636  18.204  0.00  0.00    +0.000 OA
ENDROOT
BRANCH   1   7
ATOM      3  C   UNL     1       6.415   4.850  16.650  0.00  0.00    +0.000 A 
ATOM      4  C   UNL     1       7.426   5.166  17.566  0.00  0.00    +0.000 A 
ATOM      5  C   UNL     1       7.089   5.429  18.889  0.00  0.00    +0.000 A 
ATOM      6  C   UNL     1       5.750   5.406  19.287  0.00  0.00    +0.000 A 
ATOM      7  C   UNL     1       4.712   5.132  18.377  0.00  0.00    +0.000 A 
ATOM      8  C   UNL     1       5.060   4.825  17.046  0.00  0.00    +0.000 A 
BRANCH   3  10
ATOM      9  O   UNL     1       7.649   5.351  14.745  0.00  0.00    +0.000 OA
ATOM     10  N   UNL     1       6.786   4.616  15.246  0.00  0.00    +0.000 N 
ATOM     11  O   UNL     1       6.221   3.687  14.651  0.00  0.00    +0.000 OA
ENDBRANCH   3  10
ENDBRANCH   1   7
BRANCH   1  12
ATOM     12  C   UNL     1       2.505   7.214  18.943  0.00  0.00    +0.000 A 
ATOM     13  C   UNL     1       2.455   8.058  17.829  0.00  0.00    +0.000 A 
ATOM     14  C   UNL     1       1.778   9.286  17.892  0.00  0.00    +0.000 A 
ATOM     15  C   UNL     1       1.137   9.691  19.067  0.00  0.00    +0.000 A 
ATOM     16  C   UNL     1       1.223   8.881  20.201  0.00  0.00    +0.000 A 
ATOM     17  C   UNL     1       1.919   7.667  20.149  0.00  0.00    +0.000 A 
BRANCH  16  18
ATOM     18  N   UNL     1       0.519   9.274  21.436  0.00  0.00    +0.000 N 
ATOM     19  O   UNL     1      -0.460   8.598  21.784  0.00  0.00    +0.000 OA
ATOM     20  O   UNL     1       0.954  10.253  22.061  0.00  0.00    +0.000 OA
ENDBRANCH  16  18
ENDBRANCH   1  12
BRANCH   1  21
ATOM     21  O   UNL     1       3.024   5.041  20.458  0.00  0.00    +0.000 OA
ATOM     22  H   UNL     1       3.010   4.063  20.503  0.00  0.00    +0.000 HD
ENDBRANCH   1  21
TORSDOF 5
ENDMDL
MODEL 3
REMARK VINA RESULT:      -7.6      2.130      2.617
REMARK  Name = 
REMARK  5 active torsions:
REMARK  status: ('A' for Active; 'I' for Inactive)
REMARK    1  A    between atoms: N_2  and  C_4
REMARK    2  A    between atoms: C_8  and  P_9
REMARK    3  A    between atoms: P_9  and  O_11
REMARK    4  A    between atoms: P_9  and  C_12
REMARK    5  A    between atoms: C_16  and  N_17
REMARK                            x       y       z     vdW  Elec       q    Type
REMARK                         _______ _______ _______ _____ _____    ______ ____
ROOT
ATOM      1  P   UNL     1       6.331   5.097  16.324  0.00  0.00    +0.000 P 
ATOM      2  O   UNL     1       7.256   4.437  17.320  0.00  0.00    +0.000 OA
ENDROOT
BRANCH   1   7
ATOM      3  C   UNL     1       6.122   3.576  12.514  0.00  0.00    +0.000 A 
ATOM      4  C   UNL     1       7.089   4.348  11.857  0.00  0.00    +0.000 A 
ATOM      5  C   UNL     1       7.892   5.207  12.598  0.00  0.00    +0.000 A 
ATOM      6  C   UNL     1       7.711   5.317  13.978  0.00  0.00    +0.000 A 
ATOM      7  C   UNL     1       6.720   4.584  14.655  0.00  0.00    +0.000 A 
ATOM      8  C   UNL     1       5.935   3.682  13.909  0.00  0.00    +0.000 A 
BRANCH   3  10
ATOM      9  O   UNL     1       4.149   3.145  11.363  0.00  0.00    +0.000 OA
ATOM     10  N   UNL     1       5.254   2.703  11.708  0.00  0.00    +0.000 N 
ATOM     11  O   UNL     1       5.686   1.579  11.412  0.00  0.00    +0.000 OA
ENDBRANCH   3  10
ENDBRANCH   1   7
BRANCH   1  12
ATOM     12  C   UNL     1       4.640   5.049  16.888  0.00  0.00    +0.000 A 
ATOM     13  C   UNL     1       3.874   3.885  17.016  0.00  0.00    +0.000 A 
ATOM     14  C   UNL     1       2.652   3.905  17.705  0.00  0.00    +0.000 A 
ATOM     15  C   UNL     1       2.174   5.086  18.281  0.00  0.00    +0.000 A 
ATOM     16  C   UNL     1       2.904   6.266  18.116  0.00  0.00    +0.000 A 
ATOM     17  C   UNL     1       4.111   6.254  17.408  0.00  0.00    +0.000 A 
BRANCH  16  18
ATOM     18  N   UNL     1       2.434   7.512  18.750  0.00  0.00    +0.000 N 
ATOM     19  O   UNL     1       2.184   7.484  19.964  0.00  0.00    +0.000 OA
ATOM     20  O   UNL     1       2.325   8.518  18.033  0.00  0.00    +0.000 OA
ENDBRANCH  16  18
ENDBRANCH   1  12
BRANCH   1  21
ATOM     21  O   UNL     1       6.730   6.667  16.342  0.00  0.00    +0.000 OA
ATOM     22  H   UNL     1       7.702   6.761  16.273  0.00  0.00    +0.000 HD
ENDBRANCH   1  21
TORSDOF 5
ENDMDL
MODEL 4
REMARK VINA RESULT:      -7.6      1.549      1.821
REMARK  Name = 
REMARK  5 active torsions:
REMARK  status: ('A' for Active; 'I' for Inactive)
REMARK    1  A    between atoms: N_2  and  C_4
REMARK    2  A    between atoms: C_8  and  P_9
REMARK    3  A    between atoms: P_9  and  O_11
REMARK    4  A    between atoms: P_9  and  C_12
REMARK    5  A    between atoms: C_16  and  N_17
REMARK                            x       y       z     vdW  Elec       q    Type
REMARK                         _______ _______ _______ _____ _____    ______ ____
ROOT
ATOM      1  P   UNL     1       6.460   4.902  16.474  0.00  0.00    +0.000 P 
ATOM      2  O   UNL     1       7.671   4.646  17.341  0.00  0.00    +0.000 OA
ENDROOT
BRANCH   1   7
ATOM      3  C   UNL     1       6.144   3.585  12.595  0.00  0.00    +0.000 A 
ATOM      4  C   UNL     1       7.076   4.407  11.950  0.00  0.00    +0.000 A 
ATOM      5  C   UNL     1       7.892   5.238  12.709  0.00  0.00    +0.000 A 
ATOM      6  C   UNL     1       7.757   5.271  14.099  0.00  0.00    +0.000 A 
ATOM      7  C   UNL     1       6.799   4.486  14.768  0.00  0.00    +0.000 A 
ATOM      8  C   UNL     1       6.003   3.613  14.000  0.00  0.00    +0.000 A 
BRANCH   3  10
ATOM      9  O   UNL     1       4.149   3.196  11.468  0.00  0.00    +0.000 OA
ATOM     10  N   UNL     1       5.261   2.743  11.773  0.00  0.00    +0.000 N 
ATOM     11  O   UNL     1       5.689   1.634  11.424  0.00  0.00    +0.000 OA
ENDBRANCH   3  10
ENDBRANCH   1   7
BRANCH   1  12
ATOM     12  C   UNL     1       4.974   4.295  17.249  0.00  0.00    +0.000 A 
ATOM     13  C   UNL     1       3.736   4.168  16.611  0.00  0.00    +0.000 A 
ATOM     14  C   UNL     1       2.692   3.447  17.211  0.00  0.00    +0.000 A 
ATOM     15  C   UNL     1       2.867   2.836  18.456  0.00  0.00    +0.000 A 
ATOM     16  C   UNL     1       4.082   2.997  19.127  0.00  0.00    +0.000 A 
ATOM     17  C   UNL     1       5.117   3.738  18.543  0.00  0.00    +0.000 A 
BRANCH  16  18
ATOM     18  N   UNL     1       4.297   2.327  20.423  0.00  0.00    +0.000 N 
ATOM     19  O   UNL     1       5.306   1.618  20.547  0.00  0.00    +0.000 OA
ATOM     20  O   UNL     1       3.460   2.519  21.317  0.00  0.00    +0.000 OA
ENDBRANCH  16  18
ENDBRANCH   1  12
BRANCH   1  21
ATOM     21  O   UNL     1       6.286   6.513  16.445  0.00  0.00    +0.000 OA
ATOM     22  H   UNL     1       7.107   6.928  16.112  0.00  0.00    +0.000 HD
ENDBRANCH   1  21
TORSDOF 5
ENDMDL
MODEL 5
REMARK VINA RESULT:      -7.5      0.589      5.879
REMARK  Name = 
REMARK  5 active torsions:
REMARK  status: ('A' for Active; 'I' for Inactive)
REMARK    1  A    between atoms: N_2  and  C_4
REMARK    2  A    between atoms: C_8  and  P_9
REMARK    3  A    between atoms: P_9  and  O_11
REMARK    4  A    between atoms: P_9  and  C_12
REMARK    5  A    between atoms: C_16  and  N_17
REMARK                            x       y       z     vdW  Elec       q    Type
REMARK                         _______ _______ _______ _____ _____    ______ ____
ROOT
ATOM      1  P   UNL     1       6.478   5.127  16.066  0.00  0.00    +0.000 P 
ATOM      2  O   UNL     1       7.288   6.283  16.607  0.00  0.00    +0.000 OA
ENDROOT
BRANCH   1   7
ATOM      3  C   UNL     1       2.908   4.035  17.781  0.00  0.00    +0.000 A 
ATOM      4  C   UNL     1       2.510   5.239  18.375  0.00  0.00    +0.000 A 
ATOM      5  C   UNL     1       3.240   6.396  18.126  0.00  0.00    +0.000 A 
ATOM      6  C   UNL     1       4.377   6.344  17.316  0.00  0.00    +0.000 A 
ATOM      7  C   UNL     1       4.822   5.138  16.743  0.00  0.00    +0.000 A 
ATOM      8  C   UNL     1       4.056   3.976  16.961  0.00  0.00    +0.000 A 
BRANCH   3  10
ATOM      9  O   UNL     1       2.781   1.760  18.242  0.00  0.00    +0.000 OA
ATOM     10  N   UNL     1       2.147   2.814  18.089  0.00  0.00    +0.000 N 
ATOM     11  O   UNL     1       0.916   2.915  18.188  0.00  0.00    +0.000 OA
ENDBRANCH   3  10
ENDBRANCH   1   7
BRANCH   1  12
ATOM     12  C   UNL     1       6.709   4.948  14.308  0.00  0.00    +0.000 A 
ATOM     13  C   UNL     1       7.785   5.474  13.586  0.00  0.00    +0.000 A 
ATOM     14  C   UNL     1       8.025   5.072  12.263  0.00  0.00    +0.000 A 
ATOM     15  C   UNL     1       7.196   4.134  11.639  0.00  0.00    +0.000 A 
ATOM     16  C   UNL     1       6.089   3.639  12.331  0.00  0.00    +0.000 A 
ATOM     17  C   UNL     1       5.832   4.058  13.642  0.00  0.00    +0.000 A 
BRANCH  16  18
ATOM     18  N   UNL     1       5.228   2.620  11.702  0.00  0.00    +0.000 N 
ATOM     19  O   UNL     1       4.061   2.936  11.429  0.00  0.00    +0.000 OA
ATOM     20  O   UNL     1       5.725   1.507  11.473  0.00  0.00    +0.000 OA
ENDBRANCH  16  18
ENDBRANCH   1  12
BRANCH   1  21
ATOM     21  O   UNL     1       7.144   3.798  16.711  0.00  0.00    +0.000 OA
ATOM     22  H   UNL     1       7.853   4.054  17.335  0.00  0.00    +0.000 HD
ENDBRANCH   1  21
TORSDOF 5
ENDMDL
MODEL 6
REMARK VINA RESULT:      -7.4      1.136      1.713
REMARK  Name = 
REMARK  5 active torsions:
REMARK  status: ('A' for Active; 'I' for Inactive)
REMARK    1  A    between atoms: N_2  and  C_4
REMARK    2  A    between atoms: C_8  and  P_9
REMARK    3  A    between atoms: P_9  and  O_11
REMARK    4  A    between atoms: P_9  and  C_12
REMARK    5  A    between atoms: C_16  and  N_17
REMARK                            x       y       z     vdW  Elec       q    Type
REMARK                         _______ _______ _______ _____ _____    ______ ____
ROOT
ATOM      1  P   UNL     1       6.161   5.581  15.999  0.00  0.00    +0.000 P 
ATOM      2  O   UNL     1       7.329   6.343  16.580  0.00  0.00    +0.000 OA
ENDROOT
BRANCH   1   7
ATOM      3  C   UNL     1       6.070   3.548  12.429  0.00  0.00    +0.000 A 
ATOM      4  C   UNL     1       7.123   4.161  11.739  0.00  0.00    +0.000 A 
ATOM      5  C   UNL     1       7.939   5.068  12.405  0.00  0.00    +0.000 A 
ATOM      6  C   UNL     1       7.687   5.383  13.742  0.00  0.00    +0.000 A 
ATOM      7  C   UNL     1       6.610   4.813  14.446  0.00  0.00    +0.000 A 
ATOM      8  C   UNL     1       5.810   3.863  13.781  0.00  0.00    +0.000 A 
BRANCH   3  10
ATOM      9  O   UNL     1       4.053   3.014  11.405  0.00  0.00    +0.000 OA
ATOM     10  N   UNL     1       5.192   2.623  11.696  0.00  0.00    +0.000 N 
ATOM     11  O   UNL     1       5.650   1.509  11.404  0.00  0.00    +0.000 OA
ENDBRANCH   3  10
ENDBRANCH   1   7
BRANCH   1  12
ATOM     12  C   UNL     1       5.336   4.617  17.250  0.00  0.00    +0.000 A 
ATOM     13  C   UNL     1       5.859   4.339  18.518  0.00  0.00    +0.000 A 
ATOM     14  C   UNL     1       5.045   3.799  19.525  0.00  0.00    +0.000 A 
ATOM     15  C   UNL     1       3.694   3.528  19.286  0.00  0.00    +0.000 A 
ATOM     16  C   UNL     1       3.172   3.752  18.010  0.00  0.00    +0.000 A 
ATOM     17  C   UNL     1       3.988   4.268  16.996  0.00  0.00    +0.000 A 
BRANCH  16  18
ATOM     18  N   UNL     1       1.741   3.510  17.751  0.00  0.00    +0.000 N 
ATOM     19  O   UNL     1       1.255   2.440  18.145  0.00  0.00    +0.000 OA
ATOM     20  O   UNL     1       1.103   4.396  17.163  0.00  0.00    +0.000 OA
ENDBRANCH  16  18
ENDBRANCH   1  12
BRANCH   1  21
ATOM     21  O   UNL     1       5.083   6.711  15.567  0.00  0.00    +0.000 OA
ATOM     22  H   UNL     1       4.996   7.374  16.281  0.00  0.00    +0.000 HD
ENDBRANCH   1  21
TORSDOF 5
ENDMDL
MODEL 7
REMARK VINA RESULT:      -7.3      3.280      4.857
REMARK  Name = 
REMARK  5 active torsions:
REMARK  status: ('A' for Active; 'I' for Inactive)
REMARK    1  A    between atoms: N_2  and  C_4
REMARK    2  A    between atoms: C_8  and  P_9
REMARK    3  A    between atoms: P_9  and  O_11
REMARK    4  A    between atoms: P_9  and  C_12
REMARK    5  A    between atoms: C_16  and  N_17
REMARK                            x       y       z     vdW  Elec       q    Type
REMARK                         _______ _______ _______ _____ _____    ______ ____
ROOT
ATOM      1  P   UNL     1       3.142   3.812  18.008  0.00  0.00    +0.000 P 
ATOM      2  O   UNL     1       2.249   3.318  16.894  0.00  0.00    +0.000 OA
ENDROOT
BRANCH   1   7
ATOM      3  C   UNL     1       6.486   4.467  15.713  0.00  0.00    +0.000 A 
ATOM      4  C   UNL     1       7.403   4.895  16.681  0.00  0.00    +0.000 A 
ATOM      5  C   UNL     1       7.052   4.837  18.025  0.00  0.00    +0.000 A 
ATOM      6  C   UNL     1       5.784   4.385  18.397  0.00  0.00    +0.000 A 
ATOM      7  C   UNL     1       4.829   3.989  17.441  0.00  0.00    +0.000 A 
ATOM      8  C   UNL     1       5.203   4.009  16.083  0.00  0.00    +0.000 A 
BRANCH   3  10
ATOM      9  O   UNL     1       7.713   5.417  13.982  0.00  0.00    +0.000 OA
ATOM     10  N   UNL     1       6.860   4.574  14.294  0.00  0.00    +0.000 N 
ATOM     11  O   UNL     1       6.306   3.804  13.495  0.00  0.00    +0.000 OA
ENDBRANCH   3  10
ENDBRANCH   1   7
BRANCH   1  12
ATOM     12  C   UNL     1       2.371   5.144  18.907  0.00  0.00    +0.000 A 
ATOM     13  C   UNL     1       1.989   5.085  20.251  0.00  0.00    +0.000 A 
ATOM     14  C   UNL     1       1.631   6.250  20.946  0.00  0.00    +0.000 A 
ATOM     15  C   UNL     1       1.650   7.496  20.311  0.00  0.00    +0.000 A 
ATOM     16  C   UNL     1       1.980   7.563  18.956  0.00  0.00    +0.000 A 
ATOM     17  C   UNL     1       2.314   6.399  18.254  0.00  0.00    +0.000 A 
BRANCH  16  18
ATOM     18  N   UNL     1       2.045   8.874  18.282  0.00  0.00    +0.000 N 
ATOM     19  O   UNL     1       2.619   8.933  17.185  0.00  0.00    +0.000 OA
ATOM     20  O   UNL     1       1.511   9.839  18.848  0.00  0.00    +0.000 OA
ENDBRANCH  16  18
ENDBRANCH   1  12
BRANCH   1  21
ATOM     21  O   UNL     1       3.223   2.588  19.068  0.00  0.00    +0.000 OA
ATOM     22  H   UNL     1       2.365   2.493  19.528  0.00  0.00    +0.000 HD
ENDBRANCH   1  21
TORSDOF 5
ENDMDL
MODEL 8
REMARK VINA RESULT:      -7.3      1.047      6.085
REMARK  Name = 
REMARK  5 active torsions:
REMARK  status: ('A' for Active; 'I' for Inactive)
REMARK    1  A    between atoms: N_2  and  C_4
REMARK    2  A    between atoms: C_8  and  P_9
REMARK    3  A    between atoms: P_9  and  O_11
REMARK    4  A    between atoms: P_9  and  C_12
REMARK    5  A    between atoms: C_16  and  N_17
REMARK                            x       y       z     vdW  Elec       q    Type
REMARK                         _______ _______ _______ _____ _____    ______ ____
ROOT
ATOM      1  P   UNL     1       6.863   5.172  16.210  0.00  0.00    +0.000 P 
ATOM      2  O   UNL     1       7.481   6.464  16.691  0.00  0.00    +0.000 OA
ENDROOT
BRANCH   1   7
ATOM      3  C   UNL     1       4.006   3.783  18.816  0.00  0.00    +0.000 A 
ATOM      4  C   UNL     1       3.072   4.826  18.779  0.00  0.00    +0.000 A 
ATOM      5  C   UNL     1       3.239   5.858  17.863  0.00  0.00    +0.000 A 
ATOM      6  C   UNL     1       4.345   5.865  17.011  0.00  0.00    +0.000 A 
ATOM      7  C   UNL     1       5.320   4.850  17.057  0.00  0.00    +0.000 A 
ATOM      8  C   UNL     1       5.127   3.783  17.957  0.00  0.00    +0.000 A 
BRANCH   3  10
ATOM      9  O   UNL     1       2.686   2.477  20.214  0.00  0.00    +0.000 OA
ATOM     10  N   UNL     1       3.835   2.721  19.819  0.00  0.00    +0.000 N 
ATOM     11  O   UNL     1       4.852   2.124  20.201  0.00  0.00    +0.000 OA
ENDBRANCH   3  10
ENDBRANCH   1   7
BRANCH   1  12
ATOM     12  C   UNL     1       6.933   5.047  14.434  0.00  0.00    +0.000 A 
ATOM     13  C   UNL     1       7.924   5.623  13.631  0.00  0.00    +0.000 A 
ATOM     14  C   UNL     1       8.050   5.264  12.281  0.00  0.00    +0.000 A 
ATOM     15  C   UNL     1       7.191   4.321  11.708  0.00  0.00    +0.000 A 
ATOM     16  C   UNL     1       6.165   3.777  12.484  0.00  0.00    +0.000 A 
ATOM     17  C   UNL     1       6.021   4.152  13.825  0.00  0.00    +0.000 A 
BRANCH  16  18
ATOM     18  N   UNL     1       5.275   2.752  11.906  0.00  0.00    +0.000 N 
ATOM     19  O   UNL     1       5.765   1.645  11.640  0.00  0.00    +0.000 OA
ATOM     20  O   UNL     1       4.086   3.055  11.729  0.00  0.00    +0.000 OA
ENDBRANCH  16  18
ENDBRANCH   1  12
BRANCH   1  21
ATOM     21  O   UNL     1       7.844   4.001  16.749  0.00  0.00    +0.000 OA
ATOM     22  H   UNL     1       8.774   4.301  16.699  0.00  0.00    +0.000 HD
ENDBRANCH   1  21
TORSDOF 5
ENDMDL
MODEL 9
REMARK VINA RESULT:      -7.2      4.088      7.761
REMARK  Name = 
REMARK  5 active torsions:
REMARK  status: ('A' for Active; 'I' for Inactive)
REMARK    1  A    between atoms: N_2  and  C_4
REMARK    2  A    between atoms: C_8  and  P_9
REMARK    3  A    between atoms: P_9  and  O_11
REMARK    4  A    between atoms: P_9  and  C_12
REMARK    5  A    between atoms: C_16  and  N_17
REMARK                            x       y       z     vdW  Elec       q    Type
REMARK                         _______ _______ _______ _____ _____    ______ ____
ROOT
ATOM      1  P   UNL     1       3.301   5.272  18.942  0.00  0.00    +0.000 P 
ATOM      2  O   UNL     1       3.199   4.392  20.166  0.00  0.00    +0.000 OA
ENDROOT
BRANCH   1   7
ATOM      3  C   UNL     1       1.303   8.499  20.513  0.00  0.00    +0.000 A 
ATOM      4  C   UNL     1       1.357   9.402  19.444  0.00  0.00    +0.000 A 
ATOM      5  C   UNL     1       1.859   8.978  18.219  0.00  0.00    +0.000 A 
ATOM      6  C   UNL     1       2.330   7.671  18.071  0.00  0.00    +0.000 A 
ATOM      7  C   UNL     1       2.325   6.758  19.142  0.00  0.00    +0.000 A 
ATOM      8  C   UNL     1       1.778   7.177  20.370  0.00  0.00    +0.000 A 
BRANCH   3  10
ATOM      9  O   UNL     1       1.609   9.554  22.562  0.00  0.00    +0.000 OA
ATOM     10  N   UNL     1       0.808   8.978  21.813  0.00  0.00    +0.000 N 
ATOM     11  O   UNL     1      -0.388   8.786  22.077  0.00  0.00    +0.000 OA
ENDBRANCH   3  10
ENDBRANCH   1   7
BRANCH   1  12
ATOM     12  C   UNL     1       4.988   5.397  18.379  0.00  0.00    +0.000 A 
ATOM     13  C   UNL     1       6.109   5.419  19.214  0.00  0.00    +0.000 A 
ATOM     14  C   UNL     1       7.399   5.260  18.687  0.00  0.00    +0.000 A 
ATOM     15  C   UNL     1       7.593   5.072  17.314  0.00  0.00    +0.000 A 
ATOM     16  C   UNL     1       6.486   5.099  16.462  0.00  0.00    +0.000 A 
ATOM     17  C   UNL     1       5.200   5.283  16.984  0.00  0.00    +0.000 A 
BRANCH  16  18
ATOM     18  N   UNL     1       6.669   4.863  15.018  0.00  0.00    +0.000 N 
ATOM     19  O   UNL     1       5.813   4.186  14.430  0.00  0.00    +0.000 OA
ATOM     20  O   UNL     1       7.664   5.363  14.473  0.00  0.00    +0.000 OA
ENDBRANCH  16  18
ENDBRANCH   1  12
BRANCH   1  21
ATOM     21  O   UNL     1       2.530   4.465  17.767  0.00  0.00    +0.000 OA
ATOM     22  H   UNL     1       2.070   5.098  17.179  0.00  0.00    +0.000 HD
ENDBRANCH   1  21
TORSDOF 5
ENDMDL
