MODEL 1
REMARK VINA RESULT:      -8.3      0.000      0.000
REMARK  Name = 
REMARK  5 active torsions:
REMARK  status: ('A' for Active; 'I' for Inactive)
REMARK    1  A    between atoms: C_1  and  C_2
REMARK    2  A    between atoms: C_7  and  C_9
REMARK    3  A    between atoms: C_9  and  S_10
REMARK    4  A    between atoms: S_10  and  C_11
REMARK    5  A    between atoms: C_17  and  C_18
REMARK                            x       y       z     vdW  Elec       q    Type
REMARK                         _______ _______ _______ _____ _____    ______ ____
ROOT
ATOM      1  C   UNL     1       2.477   6.778  19.320  0.00  0.00    +0.000 A 
ATOM      2  C   UNL     1       1.754   6.184  20.474  0.00  0.00    +0.000 A 
ATOM      3  C   UNL     1       2.086   4.931  20.815  0.00  0.00    +0.000 A 
ATOM      4  C   UNL     1       3.065   4.246  20.063  0.00  0.00    +0.000 A 
ATOM      5  N   UNL     1       3.534   3.021  20.124  0.00  0.00    +0.000 NA
ATOM      6  N   UNL     1       4.448   2.872  19.106  0.00  0.00    +0.000 NA
ATOM      7  C   UNL     1       4.549   4.018  18.453  0.00  0.00    +0.000 A 
ATOM      8  N   UNL     1       3.669   4.925  19.024  0.00  0.00    +0.000 N 
ATOM      9  N   UNL     1       3.404   6.212  18.620  0.00  0.00    +0.000 NA
ENDROOT
BRANCH   7  10
ATOM     10  C   UNL     1       5.400   4.269  17.292  0.00  0.00    +0.000 A 
ATOM     11  C   UNL     1       4.886   4.188  15.993  0.00  0.00    +0.000 A 
ATOM     12  C   UNL     1       5.712   4.433  14.895  0.00  0.00    +0.000 A 
ATOM     13  C   UNL     1       7.041   4.742  15.129  0.00  0.00    +0.000 A 
ATOM     14  N   UNL     1       7.587   4.815  16.361  0.00  0.00    +0.000 NA
ATOM     15  C   UNL     1       6.756   4.576  17.406  0.00  0.00    +0.000 A 
ENDBRANCH   7  10
BRANCH   1  16
ATOM     16  S   UNL     1       1.952   8.374  18.826  0.00  0.00    +0.000 S 
BRANCH  16  17
ATOM     17  C   UNL     1       1.416   9.078  20.407  0.00  0.00    +0.000 C 
BRANCH  17  24
ATOM     18  C   UNL     1      -4.608  11.559  16.612  0.00  0.00    +0.000 C 
ATOM     19  C   UNL     1      -3.456  11.320  17.516  0.00  0.00    +0.000 A 
ATOM     20  N   UNL     1      -3.309  11.885  18.695  0.00  0.00    +0.000 NA
ATOM     21  N   UNL     1      -2.176  11.440  19.346  0.00  0.00    +0.000 NA
ATOM     22  C   UNL     1      -1.509  10.566  18.633  0.00  0.00    +0.000 A 
ATOM     23  N   UNL     1      -0.365   9.877  18.940  0.00  0.00    +0.000 N 
ATOM     24  C   UNL     1       0.129   9.870  20.230  0.00  0.00    +0.000 C 
ATOM     25  O   UNL     1      -0.360  10.451  21.196  0.00  0.00    +0.000 OA
ATOM     26  S   UNL     1      -2.181  10.239  17.094  0.00  0.00    +0.000 S 
ATOM     27  H   UNL     1       0.008   9.250  18.241  0.00  0.00    +0.000 HD
ENDBRANCH  17  24
ENDBRANCH  16  17
ENDBRANCH   1  16
TORSDOF 4
ENDMDL
MODEL 2
REMARK VINA RESULT:      -8.1      2.120      2.264
REMARK  Name = 
REMARK  5 active torsions:
REMARK  status: ('A' for Active; 'I' for Inactive)
REMARK    1  A    between atoms: C_1  and  C_2
REMARK    2  A    between atoms: C_7  and  C_9
REMARK    3  A    between atoms: C_9  and  S_10
REMARK    4  A    between atoms: S_10  and  C_11
REMARK    5  A    between atoms: C_17  and  C_18
REMARK                            x       y       z     vdW  Elec       q    Type
REMARK                         _______ _______ _______ _____ _____    ______ ____
ROOT
ATOM      1  C   UNL     1       2.222   5.642  19.880  0.00  0.00    +0.000 A 
ATOM      2  C   UNL     1       1.276   4.704  20.539  0.00  0.00    +0.000 A 
ATOM      3  C   UNL     1       1.414   3.403  20.246  0.00  0.00    +0.000 A 
ATOM      4  C   UNL     1       2.408   3.002  19.328  0.00  0.00    +0.000 A 
ATOM      5  N   UNL     1       2.724   1.835  18.816  0.00  0.00    +0.000 NA
ATOM      6  N   UNL     1       3.753   2.034  17.924  0.00  0.00    +0.000 NA
ATOM      7  C   UNL     1       4.076   3.317  17.925  0.00  0.00    +0.000 A 
ATOM      8  N   UNL     1       3.229   3.980  18.802  0.00  0.00    +0.000 N 
ATOM      9  N   UNL     1       3.171   5.328  19.062  0.00  0.00    +0.000 NA
ENDROOT
BRANCH   7  10
ATOM     10  C   UNL     1       5.108   3.941  17.101  0.00  0.00    +0.000 A 
ATOM     11  C   UNL     1       4.893   4.183  15.739  0.00  0.00    +0.000 A 
ATOM     12  C   UNL     1       5.889   4.781  14.967  0.00  0.00    +0.000 A 
ATOM     13  C   UNL     1       7.086   5.112  15.580  0.00  0.00    +0.000 A 
ATOM     14  N   UNL     1       7.347   4.884  16.884  0.00  0.00    +0.000 NA
ATOM     15  C   UNL     1       6.356   4.305  17.607  0.00  0.00    +0.000 A 
ENDBRANCH   7  10
BRANCH   1  16
ATOM     16  S   UNL     1       1.955   7.344  20.194  0.00  0.00    +0.000 S 
BRANCH  16  17
ATOM     17  C   UNL     1       2.287   8.063  18.566  0.00  0.00    +0.000 C 
BRANCH  17  24
ATOM     18  C   UNL     1      -1.980  13.827  20.893  0.00  0.00    +0.000 C 
ATOM     19  C   UNL     1      -1.206  12.792  20.163  0.00  0.00    +0.000 A 
ATOM     20  N   UNL     1      -0.783  12.919  18.925  0.00  0.00    +0.000 NA
ATOM     21  N   UNL     1      -0.039  11.831  18.515  0.00  0.00    +0.000 NA
ATOM     22  C   UNL     1       0.062  10.923  19.455  0.00  0.00    +0.000 A 
ATOM     23  N   UNL     1       0.737   9.730  19.449  0.00  0.00    +0.000 N 
ATOM     24  C   UNL     1       1.636   9.433  18.443  0.00  0.00    +0.000 C 
ATOM     25  O   UNL     1       1.915  10.151  17.487  0.00  0.00    +0.000 OA
ATOM     26  S   UNL     1      -0.769  11.298  20.902  0.00  0.00    +0.000 S 
ATOM     27  H   UNL     1       0.681   9.154  20.277  0.00  0.00    +0.000 HD
ENDBRANCH  17  24
ENDBRANCH  16  17
ENDBRANCH   1  16
TORSDOF 4
ENDMDL
MODEL 3
REMARK VINA RESULT:      -8.1      2.338      2.410
REMARK  Name = 
REMARK  5 active torsions:
REMARK  status: ('A' for Active; 'I' for Inactive)
REMARK    1  A    between atoms: C_1  and  C_2
REMARK    2  A    between atoms: C_7  and  C_9
REMARK    3  A    between atoms: C_9  and  S_10
REMARK    4  A    between atoms: S_10  and  C_11
REMARK    5  A    between atoms: C_17  and  C_18
REMARK                            x       y       z     vdW  Elec       q    Type
REMARK                         _______ _______ _______ _____ _____    ______ ____
ROOT
ATOM      1  C   UNL     1       2.384   6.298  19.842  0.00  0.00    +0.000 A 
ATOM      2  C   UNL     1       1.599   5.510  20.827  0.00  0.00    +0.000 A 
ATOM      3  C   UNL     1       1.873   4.200  20.909  0.00  0.00    +0.000 A 
ATOM      4  C   UNL     1       2.853   3.645  20.059  0.00  0.00    +0.000 A 
ATOM      5  N   UNL     1       3.275   2.414  19.877  0.00  0.00    +0.000 NA
ATOM      6  N   UNL     1       4.219   2.440  18.875  0.00  0.00    +0.000 NA
ATOM      7  C   UNL     1       4.384   3.691  18.477  0.00  0.00    +0.000 A 
ATOM      8  N   UNL     1       3.517   4.497  19.200  0.00  0.00    +0.000 N 
ATOM      9  N   UNL     1       3.314   5.850  19.065  0.00  0.00    +0.000 NA
ENDROOT
BRANCH   7  10
ATOM     10  C   UNL     1       5.284   4.139  17.417  0.00  0.00    +0.000 A 
ATOM     11  C   UNL     1       4.871   4.147  16.079  0.00  0.00    +0.000 A 
ATOM     12  C   UNL     1       5.742   4.581  15.079  0.00  0.00    +0.000 A 
ATOM     13  C   UNL     1       7.014   4.986  15.446  0.00  0.00    +0.000 A 
ATOM     14  N   UNL     1       7.463   4.980  16.718  0.00  0.00    +0.000 NA
ATOM     15  C   UNL     1       6.590   4.557  17.666  0.00  0.00    +0.000 A 
ENDBRANCH   7  10
BRANCH   1  16
ATOM     16  S   UNL     1       1.933   7.982  19.675  0.00  0.00    +0.000 S 
BRANCH  16  17
ATOM     17  C   UNL     1       1.070   8.276  21.240  0.00  0.00    +0.000 C 
BRANCH  17  24
ATOM     18  C   UNL     1       0.000  15.429  19.107  0.00  0.00    +0.000 C 
ATOM     19  C   UNL     1       0.332  14.142  19.769  0.00  0.00    +0.000 A 
ATOM     20  N   UNL     1       0.539  14.005  21.061  0.00  0.00    +0.000 NA
ATOM     21  N   UNL     1       0.772  12.691  21.413  0.00  0.00    +0.000 NA
ATOM     22  C   UNL     1       0.740  11.891  20.376  0.00  0.00    +0.000 A 
ATOM     23  N   UNL     1       0.889  10.530  20.317  0.00  0.00    +0.000 N 
ATOM     24  C   UNL     1       0.872   9.768  21.469  0.00  0.00    +0.000 C 
ATOM     25  O   UNL     1       0.741  10.191  22.614  0.00  0.00    +0.000 OA
ATOM     26  S   UNL     1       0.462  12.672  18.880  0.00  0.00    +0.000 S 
ATOM     27  H   UNL     1       0.846  10.091  19.408  0.00  0.00    +0.000 HD
ENDBRANCH  17  24
ENDBRANCH  16  17
ENDBRANCH   1  16
TORSDOF 4
ENDMDL
MODEL 4
REMARK VINA RESULT:      -7.9      2.234      2.312
REMARK  Name = 
REMARK  5 active torsions:
REMARK  status: ('A' for Active; 'I' for Inactive)
REMARK    1  A    between atoms: C_1  and  C_2
REMARK    2  A    between atoms: C_7  and  C_9
REMARK    3  A    between atoms: C_9  and  S_10
REMARK    4  A    between atoms: S_10  and  C_11
REMARK    5  A    between atoms: C_17  and  C_18
REMARK                            x       y       z     vdW  Elec       q    Type
REMARK                         _______ _______ _______ _____ _____    ______ ____
ROOT
ATOM      1  C   UNL     1       2.395   6.009  19.701  0.00  0.00    +0.000 A 
ATOM      2  C   UNL     1       1.469   5.152  20.486  0.00  0.00    +0.000 A 
ATOM      3  C   UNL     1       1.587   3.827  20.321  0.00  0.00    +0.000 A 
ATOM      4  C   UNL     1       2.544   3.325  19.414  0.00  0.00    +0.000 A 
ATOM      5  N   UNL     1       2.833   2.109  19.011  0.00  0.00    +0.000 NA
ATOM      6  N   UNL     1       3.830   2.206  18.068  0.00  0.00    +0.000 NA
ATOM      7  C   UNL     1       4.161   3.480  17.927  0.00  0.00    +0.000 A 
ATOM      8  N   UNL     1       3.351   4.236  18.762  0.00  0.00    +0.000 N 
ATOM      9  N   UNL     1       3.312   5.604  18.886  0.00  0.00    +0.000 NA
ENDROOT
BRANCH   7  10
ATOM     10  C   UNL     1       5.167   4.006  17.007  0.00  0.00    +0.000 A 
ATOM     11  C   UNL     1       4.893   4.137  15.641  0.00  0.00    +0.000 A 
ATOM     12  C   UNL     1       5.864   4.643  14.776  0.00  0.00    +0.000 A 
ATOM     13  C   UNL     1       7.095   4.996  15.305  0.00  0.00    +0.000 A 
ATOM     14  N   UNL     1       7.411   4.872  16.610  0.00  0.00    +0.000 NA
ATOM     15  C   UNL     1       6.443   4.381  17.423  0.00  0.00    +0.000 A 
ENDBRANCH   7  10
BRANCH   1  16
ATOM     16  S   UNL     1       2.151   7.736  19.850  0.00  0.00    +0.000 S 
BRANCH  16  17
ATOM     17  C   UNL     1       0.945   7.811  21.198  0.00  0.00    +0.000 C 
BRANCH  17  24
ATOM     18  C   UNL     1      -2.124  14.689  20.843  0.00  0.00    +0.000 C 
ATOM     19  C   UNL     1      -1.294  13.475  21.046  0.00  0.00    +0.000 A 
ATOM     20  N   UNL     1      -0.333  13.375  21.938  0.00  0.00    +0.000 NA
ATOM     21  N   UNL     1       0.235  12.117  21.950  0.00  0.00    +0.000 NA
ATOM     22  C   UNL     1      -0.311  11.322  21.063  0.00  0.00    +0.000 A 
ATOM     23  N   UNL     1      -0.051  10.003  20.794  0.00  0.00    +0.000 N 
ATOM     24  C   UNL     1       0.731   9.250  21.646  0.00  0.00    +0.000 C 
ATOM     25  O   UNL     1       1.265   9.646  22.679  0.00  0.00    +0.000 OA
ATOM     26  S   UNL     1      -1.536  12.046  20.114  0.00  0.00    +0.000 S 
ATOM     27  H   UNL     1      -0.577   9.563  20.051  0.00  0.00    +0.000 HD
ENDBRANCH  17  24
ENDBRANCH  16  17
ENDBRANCH   1  16
TORSDOF 4
ENDMDL
MODEL 5
REMARK VINA RESULT:      -7.9      2.459      2.633
REMARK  Name = 
REMARK  5 active torsions:
REMARK  status: ('A' for Active; 'I' for Inactive)
REMARK    1  A    between atoms: C_1  and  C_2
REMARK    2  A    between atoms: C_7  and  C_9
REMARK    3  A    between atoms: C_9  and  S_10
REMARK    4  A    between atoms: S_10  and  C_11
REMARK    5  A    between atoms: C_17  and  C_18
REMARK                            x       y       z     vdW  Elec       q    Type
REMARK                         _______ _______ _______ _____ _____    ______ ____
ROOT
ATOM      1  C   UNL     1       2.266   6.011  19.810  0.00  0.00    +0.000 A 
ATOM      2  C   UNL     1       1.301   5.132  20.521  0.00  0.00    +0.000 A 
ATOM      3  C   UNL     1       1.409   3.814  20.301  0.00  0.00    +0.000 A 
ATOM      4  C   UNL     1       2.393   3.340  19.407  0.00  0.00    +0.000 A 
ATOM      5  N   UNL     1       2.681   2.139  18.960  0.00  0.00    +0.000 NA
ATOM      6  N   UNL     1       3.713   2.265  18.058  0.00  0.00    +0.000 NA
ATOM      7  C   UNL     1       4.064   3.539  17.988  0.00  0.00    +0.000 A 
ATOM      8  N   UNL     1       3.234   4.268  18.826  0.00  0.00    +0.000 N 
ATOM      9  N   UNL     1       3.207   5.630  19.010  0.00  0.00    +0.000 NA
ENDROOT
BRANCH   7  10
ATOM     10  C   UNL     1       5.109   4.093  17.129  0.00  0.00    +0.000 A 
ATOM     11  C   UNL     1       4.896   4.268  15.757  0.00  0.00    +0.000 A 
ATOM     12  C   UNL     1       5.903   4.799  14.952  0.00  0.00    +0.000 A 
ATOM     13  C   UNL     1       7.110   5.132  15.544  0.00  0.00    +0.000 A 
ATOM     14  N   UNL     1       7.370   4.966  16.858  0.00  0.00    +0.000 NA
ATOM     15  C   UNL     1       6.367   4.451  17.612  0.00  0.00    +0.000 A 
ENDBRANCH   7  10
BRANCH   1  16
ATOM     16  S   UNL     1       2.038   7.733  20.029  0.00  0.00    +0.000 S 
BRANCH  16  17
ATOM     17  C   UNL     1       1.933   8.299  18.312  0.00  0.00    +0.000 C 
BRANCH  17  24
ATOM     18  C   UNL     1       0.773  15.725  18.906  0.00  0.00    +0.000 C 
ATOM     19  C   UNL     1       0.708  14.244  18.829  0.00  0.00    +0.000 A 
ATOM     20  N   UNL     1      -0.382  13.564  18.547  0.00  0.00    +0.000 NA
ATOM     21  N   UNL     1      -0.144  12.206  18.486  0.00  0.00    +0.000 NA
ATOM     22  C   UNL     1       1.109  11.913  18.732  0.00  0.00    +0.000 A 
ATOM     23  N   UNL     1       1.739  10.696  18.733  0.00  0.00    +0.000 N 
ATOM     24  C   UNL     1       1.113   9.577  18.220  0.00  0.00    +0.000 C 
ATOM     25  O   UNL     1      -0.017   9.537  17.740  0.00  0.00    +0.000 OA
ATOM     26  S   UNL     1       2.098  13.261  19.096  0.00  0.00    +0.000 S 
ATOM     27  H   UNL     1       2.722  10.676  18.965  0.00  0.00    +0.000 HD
ENDBRANCH  17  24
ENDBRANCH  16  17
ENDBRANCH   1  16
TORSDOF 4
ENDMDL
MODEL 6
REMARK VINA RESULT:      -7.8      2.367      2.649
REMARK  Name = 
REMARK  5 active torsions:
REMARK  status: ('A' for Active; 'I' for Inactive)
REMARK    1  A    between atoms: C_1  and  C_2
REMARK    2  A    between atoms: C_7  and  C_9
REMARK    3  A    between atoms: C_9  and  S_10
REMARK    4  A    between atoms: S_10  and  C_11
REMARK    5  A    between atoms: C_17  and  C_18
REMARK                            x       y       z     vdW  Elec       q    Type
REMARK                         _______ _______ _______ _____ _____    ______ ____
ROOT
ATOM      1  C   UNL     1       2.491   6.981  19.109  0.00  0.00    +0.000 A 
ATOM      2  C   UNL     1       1.747   6.463  20.287  0.00  0.00    +0.000 A 
ATOM      3  C   UNL     1       2.058   5.226  20.701  0.00  0.00    +0.000 A 
ATOM      4  C   UNL     1       3.034   4.486  19.999  0.00  0.00    +0.000 A 
ATOM      5  N   UNL     1       3.484   3.260  20.133  0.00  0.00    +0.000 NA
ATOM      6  N   UNL     1       4.405   3.041  19.134  0.00  0.00    +0.000 NA
ATOM      7  C   UNL     1       4.529   4.147  18.419  0.00  0.00    +0.000 A 
ATOM      8  N   UNL     1       3.657   5.097  18.929  0.00  0.00    +0.000 N 
ATOM      9  N   UNL     1       3.415   6.363  18.451  0.00  0.00    +0.000 NA
ENDROOT
BRANCH   7  10
ATOM     10  C   UNL     1       5.394   4.320  17.254  0.00  0.00    +0.000 A 
ATOM     11  C   UNL     1       4.896   4.153  15.957  0.00  0.00    +0.000 A 
ATOM     12  C   UNL     1       5.735   4.324  14.856  0.00  0.00    +0.000 A 
ATOM     13  C   UNL     1       7.062   4.648  15.085  0.00  0.00    +0.000 A 
ATOM     14  N   UNL     1       7.592   4.802  16.315  0.00  0.00    +0.000 NA
ATOM     15  C   UNL     1       6.749   4.634  17.363  0.00  0.00    +0.000 A 
ENDBRANCH   7  10
BRANCH   1  16
ATOM     16  S   UNL     1       1.993   8.553  18.521  0.00  0.00    +0.000 S 
BRANCH  16  17
ATOM     17  C   UNL     1       1.040   9.175  19.929  0.00  0.00    +0.000 C 
BRANCH  17  24
ATOM     18  C   UNL     1       1.165  16.587  18.553  0.00  0.00    +0.000 C 
ATOM     19  C   UNL     1       0.862  15.179  18.911  0.00  0.00    +0.000 A 
ATOM     20  N   UNL     1      -0.353  14.683  19.002  0.00  0.00    +0.000 NA
ATOM     21  N   UNL     1      -0.342  13.334  19.294  0.00  0.00    +0.000 NA
ATOM     22  C   UNL     1       0.876  12.868  19.422  0.00  0.00    +0.000 A 
ATOM     23  N   UNL     1       1.300  11.589  19.675  0.00  0.00    +0.000 N 
ATOM     24  C   UNL     1       0.422  10.526  19.602  0.00  0.00    +0.000 C 
ATOM     25  O   UNL     1      -0.774  10.594  19.329  0.00  0.00    +0.000 OA
ATOM     26  S   UNL     1       2.111  14.036  19.235  0.00  0.00    +0.000 S 
ATOM     27  H   UNL     1       2.296  11.432  19.753  0.00  0.00    +0.000 HD
ENDBRANCH  17  24
ENDBRANCH  16  17
ENDBRANCH   1  16
TORSDOF 4
ENDMDL
MODEL 7
REMARK VINA RESULT:      -7.8      1.459      1.841
REMARK  Name = 
REMARK  5 active torsions:
REMARK  status: ('A' for Active; 'I' for Inactive)
REMARK    1  A    between atoms: C_1  and  C_2
REMARK    2  A    between atoms: C_7  and  C_9
REMARK    3  A    between atoms: C_9  and  S_10
REMARK    4  A    between atoms: S_10  and  C_11
REMARK    5  A    between atoms: C_17  and  C_18
REMARK                            x       y       z     vdW  Elec       q    Type
REMARK                         _______ _______ _______ _____ _____    ______ ____
ROOT
ATOM      1  C   UNL     1       1.974   5.996  20.366  0.00  0.00    +0.000 A 
ATOM      2  C   UNL     1       1.051   4.833  20.415  0.00  0.00    +0.000 A 
ATOM      3  C   UNL     1       1.444   3.722  19.776  0.00  0.00    +0.000 A 
ATOM      4  C   UNL     1       2.674   3.721  19.083  0.00  0.00    +0.000 A 
ATOM      5  N   UNL     1       3.269   2.822  18.334  0.00  0.00    +0.000 NA
ATOM      6  N   UNL     1       4.437   3.377  17.863  0.00  0.00    +0.000 NA
ATOM      7  C   UNL     1       4.557   4.599  18.355  0.00  0.00    +0.000 A 
ATOM      8  N   UNL     1       3.440   4.868  19.133  0.00  0.00    +0.000 N 
ATOM      9  N   UNL     1       3.124   6.040  19.778  0.00  0.00    +0.000 NA
ENDROOT
BRANCH   7  10
ATOM     10  C   UNL     1       5.650   5.529  18.080  0.00  0.00    +0.000 A 
ATOM     11  C   UNL     1       6.787   5.565  18.895  0.00  0.00    +0.000 A 
ATOM     12  C   UNL     1       7.822   6.457  18.616  0.00  0.00    +0.000 A 
ATOM     13  C   UNL     1       7.684   7.305  17.530  0.00  0.00    +0.000 A 
ATOM     14  N   UNL     1       6.601   7.321  16.726  0.00  0.00    +0.000 NA
ATOM     15  C   UNL     1       5.616   6.437  17.022  0.00  0.00    +0.000 A 
ENDBRANCH   7  10
BRANCH   1  16
ATOM     16  S   UNL     1       1.393   7.468  21.115  0.00  0.00    +0.000 S 
BRANCH  16  17
ATOM     17  C   UNL     1       1.596   8.659  19.766  0.00  0.00    +0.000 C 
BRANCH  17  24
ATOM     18  C   UNL     1      -4.647  11.692  16.821  0.00  0.00    +0.000 C 
ATOM     19  C   UNL     1      -3.385  11.361  17.530  0.00  0.00    +0.000 A 
ATOM     20  N   UNL     1      -2.937  12.004  18.585  0.00  0.00    +0.000 NA
ATOM     21  N   UNL     1      -1.772  11.450  19.075  0.00  0.00    +0.000 NA
ATOM     22  C   UNL     1      -1.383  10.417  18.368  0.00  0.00    +0.000 A 
ATOM     23  N   UNL     1      -0.307   9.588  18.551  0.00  0.00    +0.000 N 
ATOM     24  C   UNL     1       0.421   9.625  19.724  0.00  0.00    +0.000 C 
ATOM     25  O   UNL     1       0.213  10.365  20.682  0.00  0.00    +0.000 OA
ATOM     26  S   UNL     1      -2.379  10.056  17.025  0.00  0.00    +0.000 S 
ATOM     27  H   UNL     1      -0.167   8.846  17.880  0.00  0.00    +0.000 HD
ENDBRANCH  17  24
ENDBRANCH  16  17
ENDBRANCH   1  16
TORSDOF 4
ENDMDL
MODEL 8
REMARK VINA RESULT:      -7.8      2.069      2.247
REMARK  Name = 
REMARK  5 active torsions:
REMARK  status: ('A' for Active; 'I' for Inactive)
REMARK    1  A    between atoms: C_1  and  C_2
REMARK    2  A    between atoms: C_7  and  C_9
REMARK    3  A    between atoms: C_9  and  S_10
REMARK    4  A    between atoms: S_10  and  C_11
REMARK    5  A    between atoms: C_17  and  C_18
REMARK                            x       y       z     vdW  Elec       q    Type
REMARK                         _______ _______ _______ _____ _____    ______ ____
ROOT
ATOM      1  C   UNL     1       2.523   6.602  19.344  0.00  0.00    +0.000 A 
ATOM      2  C   UNL     1       1.834   5.971  20.499  0.00  0.00    +0.000 A 
ATOM      3  C   UNL     1       2.208   4.724  20.818  0.00  0.00    +0.000 A 
ATOM      4  C   UNL     1       3.195   4.078  20.043  0.00  0.00    +0.000 A 
ATOM      5  N   UNL     1       3.701   2.867  20.081  0.00  0.00    +0.000 NA
ATOM      6  N   UNL     1       4.604   2.758  19.048  0.00  0.00    +0.000 NA
ATOM      7  C   UNL     1       4.662   3.916  18.409  0.00  0.00    +0.000 A 
ATOM      8  N   UNL     1       3.764   4.789  19.005  0.00  0.00    +0.000 N 
ATOM      9  N   UNL     1       3.456   6.072  18.623  0.00  0.00    +0.000 NA
ENDROOT
BRANCH   7  10
ATOM     10  C   UNL     1       5.488   4.207  17.239  0.00  0.00    +0.000 A 
ATOM     11  C   UNL     1       4.943   4.181  15.950  0.00  0.00    +0.000 A 
ATOM     12  C   UNL     1       5.745   4.464  14.844  0.00  0.00    +0.000 A 
ATOM     13  C   UNL     1       7.082   4.755  15.059  0.00  0.00    +0.000 A 
ATOM     14  N   UNL     1       7.656   4.775  16.279  0.00  0.00    +0.000 NA
ATOM     15  C   UNL     1       6.848   4.500  17.333  0.00  0.00    +0.000 A 
ENDBRANCH   7  10
BRANCH   1  16
ATOM     16  S   UNL     1       1.943   8.187  18.879  0.00  0.00    +0.000 S 
BRANCH  16  17
ATOM     17  C   UNL     1       1.244   8.782  20.440  0.00  0.00    +0.000 C 
BRANCH  17  24
ATOM     18  C   UNL     1      -3.263  14.465  22.502  0.00  0.00    +0.000 C 
ATOM     19  C   UNL     1      -2.530  13.355  21.842  0.00  0.00    +0.000 A 
ATOM     20  N   UNL     1      -2.485  13.166  20.541  0.00  0.00    +0.000 NA
ATOM     21  N   UNL     1      -1.685  12.095  20.199  0.00  0.00    +0.000 NA
ATOM     22  C   UNL     1      -1.166  11.513  21.252  0.00  0.00    +0.000 A 
ATOM     23  N   UNL     1      -0.302  10.451  21.327  0.00  0.00    +0.000 N 
ATOM     24  C   UNL     1       0.334   9.978  20.196  0.00  0.00    +0.000 C 
ATOM     25  O   UNL     1       0.205  10.416  19.056  0.00  0.00    +0.000 OA
ATOM     26  S   UNL     1      -1.635  12.195  22.749  0.00  0.00    +0.000 S 
ATOM     27  H   UNL     1      -0.024  10.136  22.246  0.00  0.00    +0.000 HD
ENDBRANCH  17  24
ENDBRANCH  16  17
ENDBRANCH   1  16
TORSDOF 4
ENDMDL
MODEL 9
REMARK VINA RESULT:      -7.7      1.783      1.832
REMARK  Name = 
REMARK  5 active torsions:
REMARK  status: ('A' for Active; 'I' for Inactive)
REMARK    1  A    between atoms: C_1  and  C_2
REMARK    2  A    between atoms: C_7  and  C_9
REMARK    3  A    between atoms: C_9  and  S_10
REMARK    4  A    between atoms: S_10  and  C_11
REMARK    5  A    between atoms: C_17  and  C_18
REMARK                            x       y       z     vdW  Elec       q    Type
REMARK                         _______ _______ _______ _____ _____    ______ ____
ROOT
ATOM      1  C   UNL     1       2.598   7.387  18.528  0.00  0.00    +0.000 A 
ATOM      2  C   UNL     1       1.949   6.946  19.790  0.00  0.00    +0.000 A 
ATOM      3  C   UNL     1       2.340   5.766  20.291  0.00  0.00    +0.000 A 
ATOM      4  C   UNL     1       3.308   5.007  19.598  0.00  0.00    +0.000 A 
ATOM      5  N   UNL     1       3.822   3.818  19.811  0.00  0.00    +0.000 NA
ATOM      6  N   UNL     1       4.694   3.548  18.780  0.00  0.00    +0.000 NA
ATOM      7  C   UNL     1       4.725   4.590  17.965  0.00  0.00    +0.000 A 
ATOM      8  N   UNL     1       3.840   5.545  18.443  0.00  0.00    +0.000 N 
ATOM      9  N   UNL     1       3.512   6.751  17.872  0.00  0.00    +0.000 NA
ENDROOT
BRANCH   7  10
ATOM     10  C   UNL     1       5.513   4.693  16.739  0.00  0.00    +0.000 A 
ATOM     11  C   UNL     1       5.116   4.032  15.571  0.00  0.00    +0.000 A 
ATOM     12  C   UNL     1       5.879   4.143  14.408  0.00  0.00    +0.000 A 
ATOM     13  C   UNL     1       7.032   4.909  14.449  0.00  0.00    +0.000 A 
ATOM     14  N   UNL     1       7.464   5.550  15.554  0.00  0.00    +0.000 NA
ATOM     15  C   UNL     1       6.697   5.425  16.666  0.00  0.00    +0.000 A 
ENDBRANCH   7  10
BRANCH   1  16
ATOM     16  S   UNL     1       1.995   8.878  17.837  0.00  0.00    +0.000 S 
BRANCH  16  17
ATOM     17  C   UNL     1       1.290   9.687  19.296  0.00  0.00    +0.000 C 
BRANCH  17  24
ATOM     18  C   UNL     1      -4.796  13.939  20.612  0.00  0.00    +0.000 C 
ATOM     19  C   UNL     1      -3.782  12.943  20.183  0.00  0.00    +0.000 A 
ATOM     20  N   UNL     1      -3.889  12.194  19.107  0.00  0.00    +0.000 NA
ATOM     21  N   UNL     1      -2.777  11.399  18.917  0.00  0.00    +0.000 NA
ATOM     22  C   UNL     1      -1.881  11.571  19.858  0.00  0.00    +0.000 A 
ATOM     23  N   UNL     1      -0.645  10.998  20.004  0.00  0.00    +0.000 N 
ATOM     24  C   UNL     1      -0.075  10.278  18.972  0.00  0.00    +0.000 C 
ATOM     25  O   UNL     1      -0.578  10.069  17.871  0.00  0.00    +0.000 OA
ATOM     26  S   UNL     1      -2.330  12.686  21.075  0.00  0.00    +0.000 S 
ATOM     27  H   UNL     1      -0.102  11.252  20.817  0.00  0.00    +0.000 HD
ENDBRANCH  17  24
ENDBRANCH  16  17
ENDBRANCH   1  16
TORSDOF 4
ENDMDL
