MODEL 1
REMARK VINA RESULT:      -7.7      0.000      0.000
REMARK  Name = 
REMARK  9 active torsions:
REMARK  status: ('A' for Active; 'I' for Inactive)
REMARK    1  A    between atoms: N_1  and  C_2
REMARK    2  A    between atoms: C_8  and  O_9
REMARK    3  A    between atoms: O_9  and  C_10
REMARK    4  A    between atoms: C_10  and  C_11
REMARK    5  A    between atoms: C_11  and  N_12
REMARK    6  A    between atoms: N_12  and  S_13
REMARK    7  A    between atoms: S_13  and  C_16
REMARK    8  A    between atoms: C_21  and  C_22
REMARK    9  A    between atoms: C_22  and  C_23
REMARK                            x       y       z     vdW  Elec       q    Type
REMARK                         _______ _______ _______ _____ _____    ______ ____
ROOT
ATOM      1  C   UNL     1       4.222   2.470  19.695  0.00  0.00    +0.000 C 
ATOM      2  C   UNL     1       3.494   1.690  18.601  0.00  0.00    +0.000 C 
ATOM      3  C   UNL     1       2.291   2.479  18.080  0.00  0.00    +0.000 C 
ATOM      4  C   UNL     1       2.420   3.988  18.122  0.00  0.00    +0.000 A 
ATOM      5  C   UNL     1       1.371   4.756  17.609  0.00  0.00    +0.000 A 
ATOM      6  C   UNL     1       1.420   6.151  17.646  0.00  0.00    +0.000 A 
ATOM      7  C   UNL     1       2.518   6.805  18.205  0.00  0.00    +0.000 A 
ATOM      8  C   UNL     1       3.589   6.044  18.688  0.00  0.00    +0.000 A 
ATOM      9  C   UNL     1       3.550   4.639  18.659  0.00  0.00    +0.000 A 
ATOM     10  C   UNL     1       4.747   3.838  19.157  0.00  0.00    +0.000 C 
ENDROOT
BRANCH   1  11
ATOM     11  N   UNL     1       5.204   1.637  20.386  0.00  0.00    +0.000 NA
ATOM     12  H   UNL     1       5.980   1.381  19.781  0.00  0.00    +0.000 HD
ATOM     13  H   UNL     1       5.579   2.096  21.211  0.00  0.00    +0.000 HD
ENDBRANCH   1  11
BRANCH   7  14
ATOM     14  O   UNL     1       2.673   8.158  18.289  0.00  0.00    +0.000 OA
BRANCH  14  15
ATOM     15  C   UNL     1       1.507   8.930  17.987  0.00  0.00    +0.000 C 
BRANCH  15  16
ATOM     16  C   UNL     1       1.665  10.338  18.563  0.00  0.00    +0.000 C 
BRANCH  16  17
ATOM     17  N   UNL     1       0.454  10.724  19.325  0.00  0.00    +0.000 NA
ATOM     18  H   UNL     1      -0.361  10.134  19.167  0.00  0.00    +0.000 HD
BRANCH  17  19
ATOM     19  S   UNL     1       0.652  10.957  20.982  0.00  0.00    +0.000 S 
ATOM     20  O   UNL     1       1.147   9.705  21.506  0.00  0.00    +0.000 OA
ATOM     21  O   UNL     1       1.405  12.188  21.147  0.00  0.00    +0.000 OA
BRANCH  19  22
ATOM     22  C   UNL     1      -0.996  11.277  21.667  0.00  0.00    +0.000 C 
ATOM     23  C   UNL     1      -1.153  10.860  23.110  0.00  0.00    +0.000 C 
ATOM     24  C   UNL     1      -1.062  12.320  22.754  0.00  0.00    +0.000 C 
ENDBRANCH  19  22
ENDBRANCH  17  19
ENDBRANCH  16  17
ENDBRANCH  15  16
ENDBRANCH  14  15
ENDBRANCH   7  14
BRANCH  10  25
ATOM     25  C   UNL     1       5.939   3.821  18.131  0.00  0.00    +0.000 C 
BRANCH  25  26
ATOM     26  C   UNL     1       6.699   5.117  17.886  0.00  0.00    +0.000 A 
ATOM     27  C   UNL     1       7.666   5.531  18.821  0.00  0.00    +0.000 A 
ATOM     28  C   UNL     1       8.159   6.836  18.832  0.00  0.00    +0.000 A 
ATOM     29  C   UNL     1       7.790   7.720  17.829  0.00  0.00    +0.000 A 
ATOM     30  C   UNL     1       6.973   7.276  16.790  0.00  0.00    +0.000 A 
ATOM     31  C   UNL     1       6.432   5.983  16.813  0.00  0.00    +0.000 A 
ATOM     32 CL   UNL     1       5.407   5.536  15.497  0.00  0.00    +0.000 Cl
ENDBRANCH  25  26
ENDBRANCH  10  25
TORSDOF 9
ENDMDL
MODEL 2
REMARK VINA RESULT:      -7.6      4.381      7.142
REMARK  Name = 
REMARK  9 active torsions:
REMARK  status: ('A' for Active; 'I' for Inactive)
REMARK    1  A    between atoms: N_1  and  C_2
REMARK    2  A    between atoms: C_8  and  O_9
REMARK    3  A    between atoms: O_9  and  C_10
REMARK    4  A    between atoms: C_10  and  C_11
REMARK    5  A    between atoms: C_11  and  N_12
REMARK    6  A    between atoms: N_12  and  S_13
REMARK    7  A    between atoms: S_13  and  C_16
REMARK    8  A    between atoms: C_21  and  C_22
REMARK    9  A    between atoms: C_22  and  C_23
REMARK                            x       y       z     vdW  Elec       q    Type
REMARK                         _______ _______ _______ _____ _____    ______ ____
ROOT
ATOM      1  C   UNL     1       2.603   4.465  17.619  0.00  0.00    +0.000 C 
ATOM      2  C   UNL     1       3.106   3.434  18.629  0.00  0.00    +0.000 C 
ATOM      3  C   UNL     1       4.631   3.327  18.583  0.00  0.00    +0.000 C 
ATOM      4  C   UNL     1       5.373   4.592  18.200  0.00  0.00    +0.000 A 
ATOM      5  C   UNL     1       6.769   4.564  18.195  0.00  0.00    +0.000 A 
ATOM      6  C   UNL     1       7.507   5.689  17.823  0.00  0.00    +0.000 A 
ATOM      7  C   UNL     1       6.860   6.865  17.443  0.00  0.00    +0.000 A 
ATOM      8  C   UNL     1       5.462   6.913  17.481  0.00  0.00    +0.000 A 
ATOM      9  C   UNL     1       4.708   5.785  17.850  0.00  0.00    +0.000 A 
ATOM     10  C   UNL     1       3.188   5.880  17.919  0.00  0.00    +0.000 C 
ENDROOT
BRANCH   1  11
ATOM     11  N   UNL     1       1.152   4.395  17.458  0.00  0.00    +0.000 NA
ATOM     12  H   UNL     1       0.881   4.268  16.486  0.00  0.00    +0.000 HD
ATOM     13  H   UNL     1       0.744   3.640  18.004  0.00  0.00    +0.000 HD
ENDBRANCH   1  11
BRANCH   7  14
ATOM     14  O   UNL     1       7.478   8.021  17.067  0.00  0.00    +0.000 OA
BRANCH  14  15
ATOM     15  C   UNL     1       8.248   8.665  18.086  0.00  0.00    +0.000 C 
BRANCH  15  16
ATOM     16  C   UNL     1       8.248  10.176  17.848  0.00  0.00    +0.000 C 
BRANCH  16  17
ATOM     17  N   UNL     1       9.499  10.781  18.360  0.00  0.00    +0.000 NA
ATOM     18  H   UNL     1      10.314  10.658  17.761  0.00  0.00    +0.000 HD
BRANCH  17  19
ATOM     19  S   UNL     1       9.413  12.392  18.847  0.00  0.00    +0.000 S 
ATOM     20  O   UNL     1       8.611  13.068  17.852  0.00  0.00    +0.000 OA
ATOM     21  O   UNL     1       9.022  12.389  20.246  0.00  0.00    +0.000 OA
BRANCH  19  22
ATOM     22  C   UNL     1      11.102  13.049  18.795  0.00  0.00    +0.000 C 
ATOM     23  C   UNL     1      12.026  12.450  19.829  0.00  0.00    +0.000 C 
ATOM     24  C   UNL     1      12.171  12.071  18.379  0.00  0.00    +0.000 C 
ENDBRANCH  19  22
ENDBRANCH  17  19
ENDBRANCH  16  17
ENDBRANCH  15  16
ENDBRANCH  14  15
ENDBRANCH   7  14
BRANCH  10  25
ATOM     25  C   UNL     1       2.682   6.633  19.205  0.00  0.00    +0.000 C 
BRANCH  25  26
ATOM     26  C   UNL     1       2.012   7.988  19.030  0.00  0.00    +0.000 A 
ATOM     27  C   UNL     1       2.199   8.695  17.827  0.00  0.00    +0.000 A 
ATOM     28  C   UNL     1       1.892  10.051  17.721  0.00  0.00    +0.000 A 
ATOM     29  C   UNL     1       1.273  10.701  18.778  0.00  0.00    +0.000 A 
ATOM     30  C   UNL     1       0.914   9.976  19.914  0.00  0.00    +0.000 A 
ATOM     31  C   UNL     1       1.276   8.627  20.041  0.00  0.00    +0.000 A 
ATOM     32 CL   UNL     1       0.814   7.823  21.498  0.00  0.00    +0.000 Cl
ENDBRANCH  25  26
ENDBRANCH  10  25
TORSDOF 9
ENDMDL
MODEL 3
REMARK VINA RESULT:      -7.5      0.987      1.161
REMARK  Name = 
REMARK  9 active torsions:
REMARK  status: ('A' for Active; 'I' for Inactive)
REMARK    1  A    between atoms: N_1  and  C_2
REMARK    2  A    between atoms: C_8  and  O_9
REMARK    3  A    between atoms: O_9  and  C_10
REMARK    4  A    between atoms: C_10  and  C_11
REMARK    5  A    between atoms: C_11  and  N_12
REMARK    6  A    between atoms: N_12  and  S_13
REMARK    7  A    between atoms: S_13  and  C_16
REMARK    8  A    between atoms: C_21  and  C_22
REMARK    9  A    between atoms: C_22  and  C_23
REMARK                            x       y       z     vdW  Elec       q    Type
REMARK                         _______ _______ _______ _____ _____    ______ ____
ROOT
ATOM      1  C   UNL     1       4.196   2.481  19.603  0.00  0.00    +0.000 C 
ATOM      2  C   UNL     1       3.460   1.736  18.490  0.00  0.00    +0.000 C 
ATOM      3  C   UNL     1       2.271   2.554  17.982  0.00  0.00    +0.000 C 
ATOM      4  C   UNL     1       2.423   4.060  18.057  0.00  0.00    +0.000 A 
ATOM      5  C   UNL     1       1.388   4.855  17.557  0.00  0.00    +0.000 A 
ATOM      6  C   UNL     1       1.458   6.248  17.625  0.00  0.00    +0.000 A 
ATOM      7  C   UNL     1       2.563   6.872  18.202  0.00  0.00    +0.000 A 
ATOM      8  C   UNL     1       3.620   6.085  18.672  0.00  0.00    +0.000 A 
ATOM      9  C   UNL     1       3.560   4.682  18.612  0.00  0.00    +0.000 A 
ATOM     10  C   UNL     1       4.743   3.852  19.097  0.00  0.00    +0.000 C 
ENDROOT
BRANCH   1  11
ATOM     11  N   UNL     1       5.162   1.618  20.279  0.00  0.00    +0.000 NA
ATOM     12  H   UNL     1       6.059   2.079  20.411  0.00  0.00    +0.000 HD
ATOM     13  H   UNL     1       4.826   1.308  21.186  0.00  0.00    +0.000 HD
ENDBRANCH   1  11
BRANCH   7  14
ATOM     14  O   UNL     1       2.738   8.221  18.316  0.00  0.00    +0.000 OA
BRANCH  14  15
ATOM     15  C   UNL     1       1.717   9.026  17.720  0.00  0.00    +0.000 C 
BRANCH  15  16
ATOM     16  C   UNL     1       0.660   9.370  18.771  0.00  0.00    +0.000 C 
BRANCH  16  17
ATOM     17  N   UNL     1       1.058  10.579  19.528  0.00  0.00    +0.000 NA
ATOM     18  H   UNL     1       1.242  11.403  18.959  0.00  0.00    +0.000 HD
BRANCH  17  19
ATOM     19  S   UNL     1       0.074  11.014  20.824  0.00  0.00    +0.000 S 
ATOM     20  O   UNL     1       0.856  11.919  21.635  0.00  0.00    +0.000 OA
ATOM     21  O   UNL     1      -1.202  11.424  20.265  0.00  0.00    +0.000 OA
BRANCH  19  22
ATOM     22  C   UNL     1      -0.252   9.501  21.769  0.00  0.00    +0.000 C 
ATOM     23  C   UNL     1       0.995   8.781  22.224  0.00  0.00    +0.000 C 
ATOM     24  C   UNL     1       0.155   9.535  23.220  0.00  0.00    +0.000 C 
ENDBRANCH  19  22
ENDBRANCH  17  19
ENDBRANCH  16  17
ENDBRANCH  15  16
ENDBRANCH  14  15
ENDBRANCH   7  14
BRANCH  10  25
ATOM     25  C   UNL     1       5.939   3.839  18.075  0.00  0.00    +0.000 C 
BRANCH  25  26
ATOM     26  C   UNL     1       6.717   5.130  17.859  0.00  0.00    +0.000 A 
ATOM     27  C   UNL     1       7.691   5.508  18.803  0.00  0.00    +0.000 A 
ATOM     28  C   UNL     1       8.204   6.804  18.843  0.00  0.00    +0.000 A 
ATOM     29  C   UNL     1       7.847   7.716  17.862  0.00  0.00    +0.000 A 
ATOM     30  C   UNL     1       7.023   7.309  16.813  0.00  0.00    +0.000 A 
ATOM     31  C   UNL     1       6.463   6.024  16.807  0.00  0.00    +0.000 A 
ATOM     32 CL   UNL     1       5.430   5.623  15.482  0.00  0.00    +0.000 Cl
ENDBRANCH  25  26
ENDBRANCH  10  25
TORSDOF 9
ENDMDL
MODEL 4
REMARK VINA RESULT:      -7.3      1.382      1.658
REMARK  Name = 
REMARK  9 active torsions:
REMARK  status: ('A' for Active; 'I' for Inactive)
REMARK    1  A    between atoms: N_1  and  C_2
REMARK    2  A    between atoms: C_8  and  O_9
REMARK    3  A    between atoms: O_9  and  C_10
REMARK    4  A    between atoms: C_10  and  C_11
REMARK    5  A    between atoms: C_11  and  N_12
REMARK    6  A    between atoms: N_12  and  S_13
REMARK    7  A    between atoms: S_13  and  C_16
REMARK    8  A    between atoms: C_21  and  C_22
REMARK    9  A    between atoms: C_22  and  C_23
REMARK                            x       y       z     vdW  Elec       q    Type
REMARK                         _______ _______ _______ _____ _____    ______ ____
ROOT
ATOM      1  C   UNL     1       4.268   2.349  19.636  0.00  0.00    +0.000 C 
ATOM      2  C   UNL     1       3.534   1.605  18.520  0.00  0.00    +0.000 C 
ATOM      3  C   UNL     1       2.326   2.408  18.035  0.00  0.00    +0.000 C 
ATOM      4  C   UNL     1       2.452   3.916  18.128  0.00  0.00    +0.000 A 
ATOM      5  C   UNL     1       1.399   4.699  17.648  0.00  0.00    +0.000 A 
ATOM      6  C   UNL     1       1.444   6.092  17.733  0.00  0.00    +0.000 A 
ATOM      7  C   UNL     1       2.544   6.728  18.308  0.00  0.00    +0.000 A 
ATOM      8  C   UNL     1       3.620   5.954  18.757  0.00  0.00    +0.000 A 
ATOM      9  C   UNL     1       3.584   4.551  18.680  0.00  0.00    +0.000 A 
ATOM     10  C   UNL     1       4.786   3.736  19.143  0.00  0.00    +0.000 C 
ENDROOT
BRANCH   1  11
ATOM     11  N   UNL     1       5.256   1.494  20.291  0.00  0.00    +0.000 NA
ATOM     12  H   UNL     1       4.820   0.799  20.892  0.00  0.00    +0.000 HD
ATOM     13  H   UNL     1       5.846   1.011  19.620  0.00  0.00    +0.000 HD
ENDBRANCH   1  11
BRANCH   7  14
ATOM     14  O   UNL     1       2.697   8.078  18.438  0.00  0.00    +0.000 OA
BRANCH  14  15
ATOM     15  C   UNL     1       1.732   8.875  17.744  0.00  0.00    +0.000 C 
BRANCH  15  16
ATOM     16  C   UNL     1       1.916  10.345  18.126  0.00  0.00    +0.000 C 
BRANCH  16  17
ATOM     17  N   UNL     1       0.604  11.029  18.196  0.00  0.00    +0.000 NA
ATOM     18  H   UNL     1      -0.154  10.557  17.708  0.00  0.00    +0.000 HD
BRANCH  17  19
ATOM     19  S   UNL     1       0.074  11.484  19.729  0.00  0.00    +0.000 S 
ATOM     20  O   UNL     1      -1.325  11.126  19.791  0.00  0.00    +0.000 OA
ATOM     21  O   UNL     1       1.027  10.942  20.683  0.00  0.00    +0.000 OA
BRANCH  19  22
ATOM     22  C   UNL     1       0.231  13.287  19.827  0.00  0.00    +0.000 C 
ATOM     23  C   UNL     1       1.259  13.867  18.885  0.00  0.00    +0.000 C 
ATOM     24  C   UNL     1      -0.208  14.049  18.603  0.00  0.00    +0.000 C 
ENDBRANCH  19  22
ENDBRANCH  17  19
ENDBRANCH  16  17
ENDBRANCH  15  16
ENDBRANCH  14  15
ENDBRANCH   7  14
BRANCH  10  25
ATOM     25  C   UNL     1       5.972   3.757  18.109  0.00  0.00    +0.000 C 
BRANCH  25  26
ATOM     26  C   UNL     1       6.716   5.067  17.892  0.00  0.00    +0.000 A 
ATOM     27  C   UNL     1       7.675   5.475  18.839  0.00  0.00    +0.000 A 
ATOM     28  C   UNL     1       8.152   6.785  18.877  0.00  0.00    +0.000 A 
ATOM     29  C   UNL     1       7.775   7.684  17.891  0.00  0.00    +0.000 A 
ATOM     30  C   UNL     1       6.968   7.250  16.840  0.00  0.00    +0.000 A 
ATOM     31  C   UNL     1       6.443   5.950  16.835  0.00  0.00    +0.000 A 
ATOM     32 CL   UNL     1       5.427   5.517  15.507  0.00  0.00    +0.000 Cl
ENDBRANCH  25  26
ENDBRANCH  10  25
TORSDOF 9
ENDMDL
MODEL 5
REMARK VINA RESULT:      -7.3      1.263      1.558
REMARK  Name = 
REMARK  9 active torsions:
REMARK  status: ('A' for Active; 'I' for Inactive)
REMARK    1  A    between atoms: N_1  and  C_2
REMARK    2  A    between atoms: C_8  and  O_9
REMARK    3  A    between atoms: O_9  and  C_10
REMARK    4  A    between atoms: C_10  and  C_11
REMARK    5  A    between atoms: C_11  and  N_12
REMARK    6  A    between atoms: N_12  and  S_13
REMARK    7  A    between atoms: S_13  and  C_16
REMARK    8  A    between atoms: C_21  and  C_22
REMARK    9  A    between atoms: C_22  and  C_23
REMARK                            x       y       z     vdW  Elec       q    Type
REMARK                         _______ _______ _______ _____ _____    ______ ____
ROOT
ATOM      1  C   UNL     1       4.277   2.326  19.651  0.00  0.00    +0.000 C 
ATOM      2  C   UNL     1       3.530   1.587  18.541  0.00  0.00    +0.000 C 
ATOM      3  C   UNL     1       2.322   2.396  18.066  0.00  0.00    +0.000 C 
ATOM      4  C   UNL     1       2.457   3.903  18.159  0.00  0.00    +0.000 A 
ATOM      5  C   UNL     1       1.404   4.692  17.687  0.00  0.00    +0.000 A 
ATOM      6  C   UNL     1       1.457   6.084  17.772  0.00  0.00    +0.000 A 
ATOM      7  C   UNL     1       2.566   6.715  18.337  0.00  0.00    +0.000 A 
ATOM      8  C   UNL     1       3.641   5.935  18.778  0.00  0.00    +0.000 A 
ATOM      9  C   UNL     1       3.596   4.532  18.701  0.00  0.00    +0.000 A 
ATOM     10  C   UNL     1       4.798   3.711  19.153  0.00  0.00    +0.000 C 
ENDROOT
BRANCH   1  11
ATOM     11  N   UNL     1       5.266   1.466  20.298  0.00  0.00    +0.000 NA
ATOM     12  H   UNL     1       5.442   1.745  21.260  0.00  0.00    +0.000 HD
ATOM     13  H   UNL     1       4.981   0.491  20.294  0.00  0.00    +0.000 HD
ENDBRANCH   1  11
BRANCH   7  14
ATOM     14  O   UNL     1       2.726   8.064  18.466  0.00  0.00    +0.000 OA
BRANCH  14  15
ATOM     15  C   UNL     1       1.781   8.866  17.753  0.00  0.00    +0.000 C 
BRANCH  15  16
ATOM     16  C   UNL     1       1.116   9.850  18.718  0.00  0.00    +0.000 C 
BRANCH  16  17
ATOM     17  N   UNL     1       1.046  11.200  18.113  0.00  0.00    +0.000 NA
ATOM     18  H   UNL     1       0.390  11.292  17.339  0.00  0.00    +0.000 HD
BRANCH  17  19
ATOM     19  S   UNL     1       0.831  12.491  19.174  0.00  0.00    +0.000 S 
ATOM     20  O   UNL     1       1.157  11.987  20.489  0.00  0.00    +0.000 OA
ATOM     21  O   UNL     1       1.543  13.624  18.610  0.00  0.00    +0.000 OA
BRANCH  19  22
ATOM     22  C   UNL     1      -0.929  12.924  19.125  0.00  0.00    +0.000 C 
ATOM     23  C   UNL     1      -1.730  12.130  18.121  0.00  0.00    +0.000 C 
ATOM     24  C   UNL     1      -1.880  11.853  19.593  0.00  0.00    +0.000 C 
ENDBRANCH  19  22
ENDBRANCH  17  19
ENDBRANCH  16  17
ENDBRANCH  15  16
ENDBRANCH  14  15
ENDBRANCH   7  14
BRANCH  10  25
ATOM     25  C   UNL     1       5.975   3.726  18.109  0.00  0.00    +0.000 C 
BRANCH  25  26
ATOM     26  C   UNL     1       6.722   5.033  17.884  0.00  0.00    +0.000 A 
ATOM     27  C   UNL     1       7.664   5.457  18.840  0.00  0.00    +0.000 A 
ATOM     28  C   UNL     1       8.140   6.767  18.865  0.00  0.00    +0.000 A 
ATOM     29  C   UNL     1       7.780   7.650  17.857  0.00  0.00    +0.000 A 
ATOM     30  C   UNL     1       6.991   7.198  16.799  0.00  0.00    +0.000 A 
ATOM     31  C   UNL     1       6.467   5.898  16.808  0.00  0.00    +0.000 A 
ATOM     32 CL   UNL     1       5.475   5.441  15.469  0.00  0.00    +0.000 Cl
ENDBRANCH  25  26
ENDBRANCH  10  25
TORSDOF 9
ENDMDL
MODEL 6
REMARK VINA RESULT:      -7.3      4.494      6.887
REMARK  Name = 
REMARK  9 active torsions:
REMARK  status: ('A' for Active; 'I' for Inactive)
REMARK    1  A    between atoms: N_1  and  C_2
REMARK    2  A    between atoms: C_8  and  O_9
REMARK    3  A    between atoms: O_9  and  C_10
REMARK    4  A    between atoms: C_10  and  C_11
REMARK    5  A    between atoms: C_11  and  N_12
REMARK    6  A    between atoms: N_12  and  S_13
REMARK    7  A    between atoms: S_13  and  C_16
REMARK    8  A    between atoms: C_21  and  C_22
REMARK    9  A    between atoms: C_22  and  C_23
REMARK                            x       y       z     vdW  Elec       q    Type
REMARK                         _______ _______ _______ _____ _____    ______ ____
ROOT
ATOM      1  C   UNL     1       2.700   4.308  17.848  0.00  0.00    +0.000 C 
ATOM      2  C   UNL     1       3.261   3.351  18.899  0.00  0.00    +0.000 C 
ATOM      3  C   UNL     1       4.786   3.276  18.808  0.00  0.00    +0.000 C 
ATOM      4  C   UNL     1       5.484   4.533  18.326  0.00  0.00    +0.000 A 
ATOM      5  C   UNL     1       6.880   4.535  18.275  0.00  0.00    +0.000 A 
ATOM      6  C   UNL     1       7.578   5.653  17.812  0.00  0.00    +0.000 A 
ATOM      7  C   UNL     1       6.889   6.788  17.385  0.00  0.00    +0.000 A 
ATOM      8  C   UNL     1       5.492   6.808  17.468  0.00  0.00    +0.000 A 
ATOM      9  C   UNL     1       4.779   5.687  17.928  0.00  0.00    +0.000 A 
ATOM     10  C   UNL     1       3.260   5.752  18.043  0.00  0.00    +0.000 C 
ENDROOT
BRANCH   1  11
ATOM     11  N   UNL     1       1.247   4.196  17.741  0.00  0.00    +0.000 NA
ATOM     12  H   UNL     1       0.847   3.673  18.516  0.00  0.00    +0.000 HD
ATOM     13  H   UNL     1       0.797   5.106  17.703  0.00  0.00    +0.000 HD
ENDBRANCH   1  11
BRANCH   7  14
ATOM     14  O   UNL     1       7.466   7.934  16.921  0.00  0.00    +0.000 OA
BRANCH  14  15
ATOM     15  C   UNL     1       7.499   9.025  17.846  0.00  0.00    +0.000 C 
BRANCH  15  16
ATOM     16  C   UNL     1       8.932   9.232  18.340  0.00  0.00    +0.000 C 
BRANCH  16  17
ATOM     17  N   UNL     1       8.964  10.239  19.426  0.00  0.00    +0.000 NA
ATOM     18  H   UNL     1       9.074   9.857  20.364  0.00  0.00    +0.000 HD
BRANCH  17  19
ATOM     19  S   UNL     1      10.030  11.528  19.227  0.00  0.00    +0.000 S 
ATOM     20  O   UNL     1      10.828  11.577  20.431  0.00  0.00    +0.000 OA
ATOM     21  O   UNL     1      10.652  11.363  17.924  0.00  0.00    +0.000 OA
BRANCH  19  22
ATOM     22  C   UNL     1       9.023  13.032  19.119  0.00  0.00    +0.000 C 
ATOM     23  C   UNL     1       9.821  14.312  19.187  0.00  0.00    +0.000 C 
ATOM     24  C   UNL     1       9.223  13.866  17.880  0.00  0.00    +0.000 C 
ENDBRANCH  19  22
ENDBRANCH  17  19
ENDBRANCH  16  17
ENDBRANCH  15  16
ENDBRANCH  14  15
ENDBRANCH   7  14
BRANCH  10  25
ATOM     25  C   UNL     1       2.778   6.569  19.298  0.00  0.00    +0.000 C 
BRANCH  25  26
ATOM     26  C   UNL     1       2.071   7.896  19.066  0.00  0.00    +0.000 A 
ATOM     27  C   UNL     1       2.232   8.551  17.830  0.00  0.00    +0.000 A 
ATOM     28  C   UNL     1       1.888   9.893  17.665  0.00  0.00    +0.000 A 
ATOM     29  C   UNL     1       1.258  10.574  18.696  0.00  0.00    +0.000 A 
ATOM     30  C   UNL     1       0.925   9.893  19.866  0.00  0.00    +0.000 A 
ATOM     31  C   UNL     1       1.324   8.562  20.052  0.00  0.00    +0.000 A 
ATOM     32 CL   UNL     1       0.893   7.813  21.547  0.00  0.00    +0.000 Cl
ENDBRANCH  25  26
ENDBRANCH  10  25
TORSDOF 9
ENDMDL
MODEL 7
REMARK VINA RESULT:      -7.3      1.761      2.227
REMARK  Name = 
REMARK  9 active torsions:
REMARK  status: ('A' for Active; 'I' for Inactive)
REMARK    1  A    between atoms: N_1  and  C_2
REMARK    2  A    between atoms: C_8  and  O_9
REMARK    3  A    between atoms: O_9  and  C_10
REMARK    4  A    between atoms: C_10  and  C_11
REMARK    5  A    between atoms: C_11  and  N_12
REMARK    6  A    between atoms: N_12  and  S_13
REMARK    7  A    between atoms: S_13  and  C_16
REMARK    8  A    between atoms: C_21  and  C_22
REMARK    9  A    between atoms: C_22  and  C_23
REMARK                            x       y       z     vdW  Elec       q    Type
REMARK                         _______ _______ _______ _____ _____    ______ ____
ROOT
ATOM      1  C   UNL     1       4.255   2.431  19.583  0.00  0.00    +0.000 C 
ATOM      2  C   UNL     1       3.512   1.688  18.473  0.00  0.00    +0.000 C 
ATOM      3  C   UNL     1       2.297   2.488  18.002  0.00  0.00    +0.000 C 
ATOM      4  C   UNL     1       2.418   3.996  18.098  0.00  0.00    +0.000 A 
ATOM      5  C   UNL     1       1.358   4.776  17.631  0.00  0.00    +0.000 A 
ATOM      6  C   UNL     1       1.399   6.169  17.720  0.00  0.00    +0.000 A 
ATOM      7  C   UNL     1       2.503   6.808  18.285  0.00  0.00    +0.000 A 
ATOM      8  C   UNL     1       3.586   6.036  18.721  0.00  0.00    +0.000 A 
ATOM      9  C   UNL     1       3.554   4.633  18.640  0.00  0.00    +0.000 A 
ATOM     10  C   UNL     1       4.763   3.821  19.088  0.00  0.00    +0.000 C 
ENDROOT
BRANCH   1  11
ATOM     11  N   UNL     1       5.252   1.577  20.226  0.00  0.00    +0.000 NA
ATOM     12  H   UNL     1       4.826   0.893  20.846  0.00  0.00    +0.000 HD
ATOM     13  H   UNL     1       5.822   1.081  19.547  0.00  0.00    +0.000 HD
ENDBRANCH   1  11
BRANCH   7  14
ATOM     14  O   UNL     1       2.652   8.158  18.417  0.00  0.00    +0.000 OA
BRANCH  14  15
ATOM     15  C   UNL     1       1.614   8.951  17.834  0.00  0.00    +0.000 C 
BRANCH  15  16
ATOM     16  C   UNL     1       1.307  10.139  18.747  0.00  0.00    +0.000 C 
BRANCH  16  17
ATOM     17  N   UNL     1       1.531  11.415  18.028  0.00  0.00    +0.000 NA
ATOM     18  H   UNL     1       1.191  11.434  17.068  0.00  0.00    +0.000 HD
BRANCH  17  19
ATOM     19  S   UNL     1       1.037  12.820  18.816  0.00  0.00    +0.000 S 
ATOM     20  O   UNL     1      -0.171  13.249  18.148  0.00  0.00    +0.000 OA
ATOM     21  O   UNL     1       1.043  12.529  20.239  0.00  0.00    +0.000 OA
BRANCH  19  22
ATOM     22  C   UNL     1       2.335  14.057  18.547  0.00  0.00    +0.000 C 
ATOM     23  C   UNL     1       2.189  15.296  19.397  0.00  0.00    +0.000 C 
ATOM     24  C   UNL     1       3.266  14.292  19.710  0.00  0.00    +0.000 C 
ENDBRANCH  19  22
ENDBRANCH  17  19
ENDBRANCH  16  17
ENDBRANCH  15  16
ENDBRANCH  14  15
ENDBRANCH   7  14
BRANCH  10  25
ATOM     25  C   UNL     1       5.938   3.849  18.042  0.00  0.00    +0.000 C 
BRANCH  25  26
ATOM     26  C   UNL     1       6.719   5.144  17.870  0.00  0.00    +0.000 A 
ATOM     27  C   UNL     1       7.708   5.478  18.815  0.00  0.00    +0.000 A 
ATOM     28  C   UNL     1       8.227   6.770  18.902  0.00  0.00    +0.000 A 
ATOM     29  C   UNL     1       7.860   7.724  17.965  0.00  0.00    +0.000 A 
ATOM     30  C   UNL     1       7.020   7.364  16.912  0.00  0.00    +0.000 A 
ATOM     31  C   UNL     1       6.454   6.082  16.859  0.00  0.00    +0.000 A 
ATOM     32 CL   UNL     1       5.401   5.742  15.534  0.00  0.00    +0.000 Cl
ENDBRANCH  25  26
ENDBRANCH  10  25
TORSDOF 9
ENDMDL
MODEL 8
REMARK VINA RESULT:      -7.3      2.204      2.868
REMARK  Name = 
REMARK  9 active torsions:
REMARK  status: ('A' for Active; 'I' for Inactive)
REMARK    1  A    between atoms: N_1  and  C_2
REMARK    2  A    between atoms: C_8  and  O_9
REMARK    3  A    between atoms: O_9  and  C_10
REMARK    4  A    between atoms: C_10  and  C_11
REMARK    5  A    between atoms: C_11  and  N_12
REMARK    6  A    between atoms: N_12  and  S_13
REMARK    7  A    between atoms: S_13  and  C_16
REMARK    8  A    between atoms: C_21  and  C_22
REMARK    9  A    between atoms: C_22  and  C_23
REMARK                            x       y       z     vdW  Elec       q    Type
REMARK                         _______ _______ _______ _____ _____    ______ ____
ROOT
ATOM      1  C   UNL     1       4.330   2.297  19.608  0.00  0.00    +0.000 C 
ATOM      2  C   UNL     1       3.763   1.660  18.340  0.00  0.00    +0.000 C 
ATOM      3  C   UNL     1       2.567   2.459  17.819  0.00  0.00    +0.000 C 
ATOM      4  C   UNL     1       2.592   3.948  18.099  0.00  0.00    +0.000 A 
ATOM      5  C   UNL     1       1.549   4.733  17.598  0.00  0.00    +0.000 A 
ATOM      6  C   UNL     1       1.503   6.106  17.848  0.00  0.00    +0.000 A 
ATOM      7  C   UNL     1       2.497   6.719  18.610  0.00  0.00    +0.000 A 
ATOM      8  C   UNL     1       3.563   5.948  19.084  0.00  0.00    +0.000 A 
ATOM      9  C   UNL     1       3.619   4.564  18.842  0.00  0.00    +0.000 A 
ATOM     10  C   UNL     1       4.813   3.756  19.338  0.00  0.00    +0.000 C 
ENDROOT
BRANCH   1  11
ATOM     11  N   UNL     1       5.293   1.416  20.266  0.00  0.00    +0.000 NA
ATOM     12  H   UNL     1       5.999   1.072  19.619  0.00  0.00    +0.000 HD
ATOM     13  H   UNL     1       5.766   1.879  21.037  0.00  0.00    +0.000 HD
ENDBRANCH   1  11
BRANCH   7  14
ATOM     14  O   UNL     1       2.553   8.049  18.911  0.00  0.00    +0.000 OA
BRANCH  14  15
ATOM     15  C   UNL     1       1.739   8.898  18.098  0.00  0.00    +0.000 C 
BRANCH  15  16
ATOM     16  C   UNL     1       1.330  10.134  18.902  0.00  0.00    +0.000 C 
BRANCH  16  17
ATOM     17  N   UNL     1       0.573  11.079  18.048  0.00  0.00    +0.000 NA
ATOM     18  H   UNL     1       0.737  10.982  17.048  0.00  0.00    +0.000 HD
BRANCH  17  19
ATOM     19  S   UNL     1      -1.086  11.182  18.327  0.00  0.00    +0.000 S 
ATOM     20  O   UNL     1      -1.282  10.817  19.712  0.00  0.00    +0.000 OA
ATOM     21  O   UNL     1      -1.517  12.475  17.827  0.00  0.00    +0.000 OA
BRANCH  19  22
ATOM     22  C   UNL     1      -1.875   9.940  17.268  0.00  0.00    +0.000 C 
ATOM     23  C   UNL     1      -3.341   9.725  17.561  0.00  0.00    +0.000 C 
ATOM     24  C   UNL     1      -2.922  10.462  16.317  0.00  0.00    +0.000 C 
ENDBRANCH  19  22
ENDBRANCH  17  19
ENDBRANCH  16  17
ENDBRANCH  15  16
ENDBRANCH  14  15
ENDBRANCH   7  14
BRANCH  10  25
ATOM     25  C   UNL     1       6.097   3.958  18.451  0.00  0.00    +0.000 C 
BRANCH  25  26
ATOM     26  C   UNL     1       5.915   4.421  17.013  0.00  0.00    +0.000 A 
ATOM     27  C   UNL     1       5.511   3.488  16.039  0.00  0.00    +0.000 A 
ATOM     28  C   UNL     1       5.633   3.757  14.676  0.00  0.00    +0.000 A 
ATOM     29  C   UNL     1       6.044   5.013  14.256  0.00  0.00    +0.000 A 
ATOM     30  C   UNL     1       6.276   6.011  15.202  0.00  0.00    +0.000 A 
ATOM     31  C   UNL     1       6.209   5.721  16.572  0.00  0.00    +0.000 A 
ATOM     32 CL   UNL     1       6.544   7.015  17.666  0.00  0.00    +0.000 Cl
ENDBRANCH  25  26
ENDBRANCH  10  25
TORSDOF 9
ENDMDL
MODEL 9
REMARK VINA RESULT:      -7.2      1.504      2.110
REMARK  Name = 
REMARK  9 active torsions:
REMARK  status: ('A' for Active; 'I' for Inactive)
REMARK    1  A    between atoms: N_1  and  C_2
REMARK    2  A    between atoms: C_8  and  O_9
REMARK    3  A    between atoms: O_9  and  C_10
REMARK    4  A    between atoms: C_10  and  C_11
REMARK    5  A    between atoms: C_11  and  N_12
REMARK    6  A    between atoms: N_12  and  S_13
REMARK    7  A    between atoms: S_13  and  C_16
REMARK    8  A    between atoms: C_21  and  C_22
REMARK    9  A    between atoms: C_22  and  C_23
REMARK                            x       y       z     vdW  Elec       q    Type
REMARK                         _______ _______ _______ _____ _____    ______ ____
ROOT
ATOM      1  C   UNL     1       4.275   2.402  19.769  0.00  0.00    +0.000 C 
ATOM      2  C   UNL     1       3.719   1.674  18.546  0.00  0.00    +0.000 C 
ATOM      3  C   UNL     1       2.538   2.440  17.948  0.00  0.00    +0.000 C 
ATOM      4  C   UNL     1       2.573   3.946  18.112  0.00  0.00    +0.000 A 
ATOM      5  C   UNL     1       1.545   4.698  17.538  0.00  0.00    +0.000 A 
ATOM      6  C   UNL     1       1.508   6.087  17.680  0.00  0.00    +0.000 A 
ATOM      7  C   UNL     1       2.498   6.749  18.407  0.00  0.00    +0.000 A 
ATOM      8  C   UNL     1       3.551   6.007  18.954  0.00  0.00    +0.000 A 
ATOM      9  C   UNL     1       3.597   4.608  18.820  0.00  0.00    +0.000 A 
ATOM     10  C   UNL     1       4.776   3.832  19.394  0.00  0.00    +0.000 C 
ENDROOT
BRANCH   1  11
ATOM     11  N   UNL     1       5.221   1.566  20.506  0.00  0.00    +0.000 NA
ATOM     12  H   UNL     1       6.071   1.392  19.975  0.00  0.00    +0.000 HD
ATOM     13  H   UNL     1       5.481   1.981  21.396  0.00  0.00    +0.000 HD
ENDBRANCH   1  11
BRANCH   7  14
ATOM     14  O   UNL     1       2.564   8.097  18.605  0.00  0.00    +0.000 OA
BRANCH  14  15
ATOM     15  C   UNL     1       1.699   8.883  17.779  0.00  0.00    +0.000 C 
BRANCH  15  16
ATOM     16  C   UNL     1       1.722  10.337  18.255  0.00  0.00    +0.000 C 
BRANCH  16  17
ATOM     17  N   UNL     1       0.350  10.798  18.571  0.00  0.00    +0.000 NA
ATOM     18  H   UNL     1      -0.396  10.281  18.110  0.00  0.00    +0.000 HD
BRANCH  17  19
ATOM     19  S   UNL     1      -0.028  10.971  20.204  0.00  0.00    +0.000 S 
ATOM     20  O   UNL     1       1.095  11.656  20.804  0.00  0.00    +0.000 OA
ATOM     21  O   UNL     1      -1.367  11.530  20.270  0.00  0.00    +0.000 OA
BRANCH  19  22
ATOM     22  C   UNL     1      -0.143   9.300  20.897  0.00  0.00    +0.000 C 
ATOM     23  C   UNL     1       1.046   8.899  21.737  0.00  0.00    +0.000 C 
ATOM     24  C   UNL     1      -0.269   9.221  22.397  0.00  0.00    +0.000 C 
ENDBRANCH  19  22
ENDBRANCH  17  19
ENDBRANCH  16  17
ENDBRANCH  15  16
ENDBRANCH  14  15
ENDBRANCH   7  14
BRANCH  10  25
ATOM     25  C   UNL     1       6.074   3.953  18.512  0.00  0.00    +0.000 C 
BRANCH  25  26
ATOM     26  C   UNL     1       5.924   4.407  17.067  0.00  0.00    +0.000 A 
ATOM     27  C   UNL     1       5.470   3.486  16.104  0.00  0.00    +0.000 A 
ATOM     28  C   UNL     1       5.612   3.728  14.738  0.00  0.00    +0.000 A 
ATOM     29  C   UNL     1       6.097   4.953  14.303  0.00  0.00    +0.000 A 
ATOM     30  C   UNL     1       6.383   5.948  15.237  0.00  0.00    +0.000 A 
ATOM     31  C   UNL     1       6.295   5.681  16.610  0.00  0.00    +0.000 A 
ATOM     32 CL   UNL     1       6.701   6.968  17.689  0.00  0.00    +0.000 Cl
ENDBRANCH  25  26
ENDBRANCH  10  25
TORSDOF 9
ENDMDL
