MODEL 1
REMARK VINA RESULT:      -5.3      0.000      0.000
REMARK  Name = 
REMARK  4 active torsions:
REMARK  status: ('A' for Active; 'I' for Inactive)
REMARK    1  A    between atoms: N_1  and  C_2
REMARK    2  A    between atoms: C_5  and  N_6
REMARK    3  A    between atoms: C_7  and  C_8
REMARK    4  A    between atoms: C_8  and  O_10
REMARK                            x       y       z     vdW  Elec       q    Type
REMARK                         _______ _______ _______ _____ _____    ______ ____
ROOT
ATOM      1  C   UNL     1       4.753   3.729  18.540  0.00  0.00    +0.000 A 
ATOM      2  C   UNL     1       4.131   3.283  17.374  0.00  0.00    +0.000 A 
ATOM      3  C   UNL     1       2.841   2.744  17.410  0.00  0.00    +0.000 A 
ATOM      4  C   UNL     1       2.142   2.628  18.616  0.00  0.00    +0.000 A 
ATOM      5  C   UNL     1       2.812   2.973  19.807  0.00  0.00    +0.000 A 
ATOM      6  C   UNL     1       4.105   3.529  19.760  0.00  0.00    +0.000 A 
ENDROOT
BRANCH   1   7
ATOM      7  N   UNL     1       6.088   4.143  18.512  0.00  0.00    +0.000 N 
ATOM      8  H   UNL     1       6.391   4.620  19.358  0.00  0.00    +0.000 HD
ATOM      9  H   UNL     1       6.748   3.425  18.228  0.00  0.00    +0.000 HD
ENDBRANCH   1   7
BRANCH   4  10
ATOM     10  N   UNL     1       0.912   1.944  18.614  0.00  0.00    +0.000 N 
ATOM     11  H   UNL     1       0.950   1.023  19.039  0.00  0.00    +0.000 HD
ATOM     12  H   UNL     1       0.494   1.904  17.676  0.00  0.00    +0.000 HD
ENDBRANCH   4  10
BRANCH   5  13
ATOM     13  C   UNL     1       2.115   2.826  21.109  0.00  0.00    +0.000 C 
ATOM     14  O   UNL     1       2.668   2.396  22.112  0.00  0.00    +0.000 OA
BRANCH  13  15
ATOM     15  O   UNL     1       0.820   3.209  21.098  0.00  0.00    +0.000 OA
ATOM     16  H   UNL     1       0.613   3.956  21.691  0.00  0.00    +0.000 HD
ENDBRANCH  13  15
ENDBRANCH   5  13
TORSDOF 4
ENDMDL
MODEL 2
REMARK VINA RESULT:      -5.2      3.765      5.233
REMARK  Name = 
REMARK  4 active torsions:
REMARK  status: ('A' for Active; 'I' for Inactive)
REMARK    1  A    between atoms: N_1  and  C_2
REMARK    2  A    between atoms: C_5  and  N_6
REMARK    3  A    between atoms: C_7  and  C_8
REMARK    4  A    between atoms: C_8  and  O_10
REMARK                            x       y       z     vdW  Elec       q    Type
REMARK                         _______ _______ _______ _____ _____    ______ ____
ROOT
ATOM      1  C   UNL     1       4.450   3.959  18.479  0.00  0.00    +0.000 A 
ATOM      2  C   UNL     1       4.428   3.930  17.085  0.00  0.00    +0.000 A 
ATOM      3  C   UNL     1       5.457   4.512  16.339  0.00  0.00    +0.000 A 
ATOM      4  C   UNL     1       6.533   5.148  16.969  0.00  0.00    +0.000 A 
ATOM      5  C   UNL     1       6.498   5.276  18.371  0.00  0.00    +0.000 A 
ATOM      6  C   UNL     1       5.465   4.674  19.116  0.00  0.00    +0.000 A 
ENDROOT
BRANCH   1   7
ATOM      7  N   UNL     1       3.353   3.491  19.210  0.00  0.00    +0.000 N 
ATOM      8  H   UNL     1       2.737   2.878  18.682  0.00  0.00    +0.000 HD
ATOM      9  H   UNL     1       3.585   3.100  20.118  0.00  0.00    +0.000 HD
ENDBRANCH   1   7
BRANCH   4  10
ATOM     10  N   UNL     1       7.460   5.844  16.170  0.00  0.00    +0.000 N 
ATOM     11  H   UNL     1       8.138   6.383  16.698  0.00  0.00    +0.000 HD
ATOM     12  H   UNL     1       6.998   6.422  15.458  0.00  0.00    +0.000 HD
ENDBRANCH   4  10
BRANCH   5  13
ATOM     13  C   UNL     1       7.603   5.979  19.071  0.00  0.00    +0.000 C 
ATOM     14  O   UNL     1       8.141   6.980  18.620  0.00  0.00    +0.000 OA
BRANCH  13  15
ATOM     15  O   UNL     1       7.962   5.425  20.248  0.00  0.00    +0.000 OA
ATOM     16  H   UNL     1       8.416   4.565  20.171  0.00  0.00    +0.000 HD
ENDBRANCH  13  15
ENDBRANCH   5  13
TORSDOF 4
ENDMDL
MODEL 3
REMARK VINA RESULT:      -5.2      4.468      5.843
REMARK  Name = 
REMARK  4 active torsions:
REMARK  status: ('A' for Active; 'I' for Inactive)
REMARK    1  A    between atoms: N_1  and  C_2
REMARK    2  A    between atoms: C_5  and  N_6
REMARK    3  A    between atoms: C_7  and  C_8
REMARK    4  A    between atoms: C_8  and  O_10
REMARK                            x       y       z     vdW  Elec       q    Type
REMARK                         _______ _______ _______ _____ _____    ______ ____
ROOT
ATOM      1  C   UNL     1       3.997   5.457  17.886  0.00  0.00    +0.000 A 
ATOM      2  C   UNL     1       4.717   5.311  19.072  0.00  0.00    +0.000 A 
ATOM      3  C   UNL     1       6.076   4.982  19.051  0.00  0.00    +0.000 A 
ATOM      4  C   UNL     1       6.749   4.780  17.842  0.00  0.00    +0.000 A 
ATOM      5  C   UNL     1       5.998   4.817  16.650  0.00  0.00    +0.000 A 
ATOM      6  C   UNL     1       4.634   5.164  16.679  0.00  0.00    +0.000 A 
ENDROOT
BRANCH   1   7
ATOM      7  N   UNL     1       2.614   5.656  17.923  0.00  0.00    +0.000 N 
ATOM      8  H   UNL     1       2.086   4.835  18.209  0.00  0.00    +0.000 HD
ATOM      9  H   UNL     1       2.318   6.487  18.425  0.00  0.00    +0.000 HD
ENDBRANCH   1   7
BRANCH   4  10
ATOM     10  N   UNL     1       8.074   4.306  17.885  0.00  0.00    +0.000 N 
ATOM     11  H   UNL     1       8.635   4.572  17.082  0.00  0.00    +0.000 HD
ATOM     12  H   UNL     1       8.117   3.294  18.050  0.00  0.00    +0.000 HD
ENDBRANCH   4  10
BRANCH   5  13
ATOM     13  C   UNL     1       6.672   4.569  15.351  0.00  0.00    +0.000 C 
ATOM     14  O   UNL     1       7.548   5.299  14.909  0.00  0.00    +0.000 OA
BRANCH  13  15
ATOM     15  O   UNL     1       6.242   3.469  14.698  0.00  0.00    +0.000 OA
ATOM     16  H   UNL     1       6.953   2.912  14.329  0.00  0.00    +0.000 HD
ENDBRANCH  13  15
ENDBRANCH   5  13
TORSDOF 4
ENDMDL
MODEL 4
REMARK VINA RESULT:      -5.2      3.092      3.816
REMARK  Name = 
REMARK  4 active torsions:
REMARK  status: ('A' for Active; 'I' for Inactive)
REMARK    1  A    between atoms: N_1  and  C_2
REMARK    2  A    between atoms: C_5  and  N_6
REMARK    3  A    between atoms: C_7  and  C_8
REMARK    4  A    between atoms: C_8  and  O_10
REMARK                            x       y       z     vdW  Elec       q    Type
REMARK                         _______ _______ _______ _____ _____    ______ ____
ROOT
ATOM      1  C   UNL     1       2.056   5.413  20.342  0.00  0.00    +0.000 A 
ATOM      2  C   UNL     1       1.080   4.424  20.451  0.00  0.00    +0.000 A 
ATOM      3  C   UNL     1       1.226   3.196  19.797  0.00  0.00    +0.000 A 
ATOM      4  C   UNL     1       2.350   2.930  19.007  0.00  0.00    +0.000 A 
ATOM      5  C   UNL     1       3.280   3.969  18.806  0.00  0.00    +0.000 A 
ATOM      6  C   UNL     1       3.133   5.197  19.480  0.00  0.00    +0.000 A 
ENDROOT
BRANCH   1   7
ATOM      7  N   UNL     1       1.838   6.681  20.892  0.00  0.00    +0.000 N 
ATOM      8  H   UNL     1       2.426   6.889  21.696  0.00  0.00    +0.000 HD
ATOM      9  H   UNL     1       1.840   7.441  20.218  0.00  0.00    +0.000 HD
ENDBRANCH   1   7
BRANCH   4  10
ATOM     10  N   UNL     1       2.372   1.741  18.255  0.00  0.00    +0.000 N 
ATOM     11  H   UNL     1       1.753   1.748  17.451  0.00  0.00    +0.000 HD
ATOM     12  H   UNL     1       2.214   0.912  18.839  0.00  0.00    +0.000 HD
ENDBRANCH   4  10
BRANCH   5  13
ATOM     13  C   UNL     1       4.465   3.736  17.942  0.00  0.00    +0.000 C 
ATOM     14  O   UNL     1       4.391   3.656  16.724  0.00  0.00    +0.000 OA
BRANCH  13  15
ATOM     15  O   UNL     1       5.631   3.621  18.612  0.00  0.00    +0.000 OA
ATOM     16  H   UNL     1       5.755   4.273  19.326  0.00  0.00    +0.000 HD
ENDBRANCH  13  15
ENDBRANCH   5  13
TORSDOF 4
ENDMDL
MODEL 5
REMARK VINA RESULT:      -5.2      2.249      2.561
REMARK  Name = 
REMARK  4 active torsions:
REMARK  status: ('A' for Active; 'I' for Inactive)
REMARK    1  A    between atoms: N_1  and  C_2
REMARK    2  A    between atoms: C_5  and  N_6
REMARK    3  A    between atoms: C_7  and  C_8
REMARK    4  A    between atoms: C_8  and  O_10
REMARK                            x       y       z     vdW  Elec       q    Type
REMARK                         _______ _______ _______ _____ _____    ______ ____
ROOT
ATOM      1  C   UNL     1       3.495   5.360  18.090  0.00  0.00    +0.000 A 
ATOM      2  C   UNL     1       2.136   5.213  17.816  0.00  0.00    +0.000 A 
ATOM      3  C   UNL     1       1.476   4.009  18.083  0.00  0.00    +0.000 A 
ATOM      4  C   UNL     1       2.162   2.916  18.623  0.00  0.00    +0.000 A 
ATOM      5  C   UNL     1       3.556   3.027  18.794  0.00  0.00    +0.000 A 
ATOM      6  C   UNL     1       4.210   4.247  18.536  0.00  0.00    +0.000 A 
ENDROOT
BRANCH   1   7
ATOM      7  N   UNL     1       4.170   6.520  17.698  0.00  0.00    +0.000 N 
ATOM      8  H   UNL     1       3.800   6.947  16.852  0.00  0.00    +0.000 HD
ATOM      9  H   UNL     1       4.305   7.203  18.437  0.00  0.00    +0.000 HD
ENDBRANCH   1   7
BRANCH   4  10
ATOM     10  N   UNL     1       1.484   1.687  18.731  0.00  0.00    +0.000 N 
ATOM     11  H   UNL     1       1.590   1.234  19.633  0.00  0.00    +0.000 HD
ATOM     12  H   UNL     1       1.720   1.047  17.963  0.00  0.00    +0.000 HD
ENDBRANCH   4  10
BRANCH   5  13
ATOM     13  C   UNL     1       4.324   1.874  19.328  0.00  0.00    +0.000 C 
ATOM     14  O   UNL     1       4.926   1.914  20.391  0.00  0.00    +0.000 OA
BRANCH  13  15
ATOM     15  O   UNL     1       4.300   0.774  18.545  0.00  0.00    +0.000 OA
ATOM     16  H   UNL     1       3.970  -0.031  18.986  0.00  0.00    +0.000 HD
ENDBRANCH  13  15
ENDBRANCH   5  13
TORSDOF 4
ENDMDL
MODEL 6
REMARK VINA RESULT:      -5.2      4.060      5.161
REMARK  Name = 
REMARK  4 active torsions:
REMARK  status: ('A' for Active; 'I' for Inactive)
REMARK    1  A    between atoms: N_1  and  C_2
REMARK    2  A    between atoms: C_5  and  N_6
REMARK    3  A    between atoms: C_7  and  C_8
REMARK    4  A    between atoms: C_8  and  O_10
REMARK                            x       y       z     vdW  Elec       q    Type
REMARK                         _______ _______ _______ _____ _____    ______ ____
ROOT
ATOM      1  C   UNL     1       6.646   5.101  15.525  0.00  0.00    +0.000 A 
ATOM      2  C   UNL     1       5.542   4.273  15.724  0.00  0.00    +0.000 A 
ATOM      3  C   UNL     1       5.083   3.985  17.013  0.00  0.00    +0.000 A 
ATOM      4  C   UNL     1       5.724   4.513  18.140  0.00  0.00    +0.000 A 
ATOM      5  C   UNL     1       6.904   5.257  17.944  0.00  0.00    +0.000 A 
ATOM      6  C   UNL     1       7.351   5.553  16.642  0.00  0.00    +0.000 A 
ENDROOT
BRANCH   1   7
ATOM      7  N   UNL     1       7.174   5.274  14.242  0.00  0.00    +0.000 N 
ATOM      8  H   UNL     1       7.953   4.655  14.029  0.00  0.00    +0.000 HD
ATOM      9  H   UNL     1       6.484   5.280  13.497  0.00  0.00    +0.000 HD
ENDBRANCH   1   7
BRANCH   4  10
ATOM     10  N   UNL     1       5.312   4.072  19.411  0.00  0.00    +0.000 N 
ATOM     11  H   UNL     1       5.524   4.720  20.163  0.00  0.00    +0.000 HD
ATOM     12  H   UNL     1       5.658   3.129  19.624  0.00  0.00    +0.000 HD
ENDBRANCH   4  10
BRANCH   5  13
ATOM     13  C   UNL     1       7.633   5.799  19.119  0.00  0.00    +0.000 C 
ATOM     14  O   UNL     1       7.635   5.246  20.210  0.00  0.00    +0.000 OA
BRANCH  13  15
ATOM     15  O   UNL     1       8.295   6.951  18.883  0.00  0.00    +0.000 OA
ATOM     16  H   UNL     1       9.090   7.082  19.434  0.00  0.00    +0.000 HD
ENDBRANCH  13  15
ENDBRANCH   5  13
TORSDOF 4
ENDMDL
MODEL 7
REMARK VINA RESULT:      -5.2      2.121      2.544
REMARK  Name = 
REMARK  4 active torsions:
REMARK  status: ('A' for Active; 'I' for Inactive)
REMARK    1  A    between atoms: N_1  and  C_2
REMARK    2  A    between atoms: C_5  and  N_6
REMARK    3  A    between atoms: C_7  and  C_8
REMARK    4  A    between atoms: C_8  and  O_10
REMARK                            x       y       z     vdW  Elec       q    Type
REMARK                         _______ _______ _______ _____ _____    ______ ____
ROOT
ATOM      1  C   UNL     1       3.201   5.654  17.833  0.00  0.00    +0.000 A 
ATOM      2  C   UNL     1       4.279   4.880  17.405  0.00  0.00    +0.000 A 
ATOM      3  C   UNL     1       4.231   3.484  17.470  0.00  0.00    +0.000 A 
ATOM      4  C   UNL     1       3.104   2.825  17.974  0.00  0.00    +0.000 A 
ATOM      5  C   UNL     1       2.063   3.608  18.510  0.00  0.00    +0.000 A 
ATOM      6  C   UNL     1       2.113   5.013  18.428  0.00  0.00    +0.000 A 
ENDROOT
BRANCH   1   7
ATOM      7  N   UNL     1       3.312   7.047  17.886  0.00  0.00    +0.000 N 
ATOM      8  H   UNL     1       2.529   7.507  18.345  0.00  0.00    +0.000 HD
ATOM      9  H   UNL     1       4.204   7.389  18.233  0.00  0.00    +0.000 HD
ENDBRANCH   1   7
BRANCH   4  10
ATOM     10  N   UNL     1       3.169   1.431  18.154  0.00  0.00    +0.000 N 
ATOM     11  H   UNL     1       3.116   0.899  17.291  0.00  0.00    +0.000 HD
ATOM     12  H   UNL     1       2.482   1.097  18.840  0.00  0.00    +0.000 HD
ENDBRANCH   4  10
BRANCH   5  13
ATOM     13  C   UNL     1       0.869   2.942  19.090  0.00  0.00    +0.000 C 
ATOM     14  O   UNL     1       0.234   2.085  18.493  0.00  0.00    +0.000 OA
BRANCH  13  15
ATOM     15  O   UNL     1       0.543   3.359  20.332  0.00  0.00    +0.000 OA
ATOM     16  H   UNL     1      -0.226   2.905  20.724  0.00  0.00    +0.000 HD
ENDBRANCH  13  15
ENDBRANCH   5  13
TORSDOF 4
ENDMDL
MODEL 8
REMARK VINA RESULT:      -5.2      2.984      3.683
REMARK  Name = 
REMARK  4 active torsions:
REMARK  status: ('A' for Active; 'I' for Inactive)
REMARK    1  A    between atoms: N_1  and  C_2
REMARK    2  A    between atoms: C_5  and  N_6
REMARK    3  A    between atoms: C_7  and  C_8
REMARK    4  A    between atoms: C_8  and  O_10
REMARK                            x       y       z     vdW  Elec       q    Type
REMARK                         _______ _______ _______ _____ _____    ______ ____
ROOT
ATOM      1  C   UNL     1       1.998   5.367  20.490  0.00  0.00    +0.000 A 
ATOM      2  C   UNL     1       1.038   4.356  20.473  0.00  0.00    +0.000 A 
ATOM      3  C   UNL     1       1.317   3.111  19.901  0.00  0.00    +0.000 A 
ATOM      4  C   UNL     1       2.563   2.847  19.321  0.00  0.00    +0.000 A 
ATOM      5  C   UNL     1       3.491   3.903  19.237  0.00  0.00    +0.000 A 
ATOM      6  C   UNL     1       3.208   5.150  19.829  0.00  0.00    +0.000 A 
ENDROOT
BRANCH   1   7
ATOM      7  N   UNL     1       1.665   6.647  20.945  0.00  0.00    +0.000 N 
ATOM      8  H   UNL     1       1.565   6.713  21.955  0.00  0.00    +0.000 HD
ATOM      9  H   UNL     1       2.245   7.393  20.575  0.00  0.00    +0.000 HD
ENDBRANCH   1   7
BRANCH   4  10
ATOM     10  N   UNL     1       2.736   1.633  18.630  0.00  0.00    +0.000 N 
ATOM     11  H   UNL     1       2.693   1.722  17.621  0.00  0.00    +0.000 HD
ATOM     12  H   UNL     1       2.098   0.903  18.968  0.00  0.00    +0.000 HD
ENDBRANCH   4  10
BRANCH   5  13
ATOM     13  C   UNL     1       4.809   3.672  18.593  0.00  0.00    +0.000 C 
ATOM     14  O   UNL     1       5.870   3.929  19.144  0.00  0.00    +0.000 OA
BRANCH  13  15
ATOM     15  O   UNL     1       4.740   3.150  17.350  0.00  0.00    +0.000 OA
ATOM     16  H   UNL     1       4.504   3.791  16.653  0.00  0.00    +0.000 HD
ENDBRANCH  13  15
ENDBRANCH   5  13
TORSDOF 4
ENDMDL
MODEL 9
REMARK VINA RESULT:      -5.1      3.973      4.871
REMARK  Name = 
REMARK  4 active torsions:
REMARK  status: ('A' for Active; 'I' for Inactive)
REMARK    1  A    between atoms: N_1  and  C_2
REMARK    2  A    between atoms: C_5  and  N_6
REMARK    3  A    between atoms: C_7  and  C_8
REMARK    4  A    between atoms: C_8  and  O_10
REMARK                            x       y       z     vdW  Elec       q    Type
REMARK                         _______ _______ _______ _____ _____    ______ ____
ROOT
ATOM      1  C   UNL     1       3.845   4.962  19.294  0.00  0.00    +0.000 A 
ATOM      2  C   UNL     1       3.251   4.288  18.227  0.00  0.00    +0.000 A 
ATOM      3  C   UNL     1       4.016   3.839  17.146  0.00  0.00    +0.000 A 
ATOM      4  C   UNL     1       5.397   4.062  17.100  0.00  0.00    +0.000 A 
ATOM      5  C   UNL     1       5.978   4.839  18.121  0.00  0.00    +0.000 A 
ATOM      6  C   UNL     1       5.203   5.275  19.213  0.00  0.00    +0.000 A 
ENDROOT
BRANCH   1   7
ATOM      7  N   UNL     1       3.053   5.519  20.303  0.00  0.00    +0.000 N 
ATOM      8  H   UNL     1       3.496   5.528  21.218  0.00  0.00    +0.000 HD
ATOM      9  H   UNL     1       2.646   6.421  20.073  0.00  0.00    +0.000 HD
ENDBRANCH   1   7
BRANCH   4  10
ATOM     10  N   UNL     1       6.090   3.722  15.923  0.00  0.00    +0.000 N 
ATOM     11  H   UNL     1       6.581   4.499  15.492  0.00  0.00    +0.000 HD
ATOM     12  H   UNL     1       5.487   3.241  15.245  0.00  0.00    +0.000 HD
ENDBRANCH   4  10
BRANCH   5  13
ATOM     13  C   UNL     1       7.434   5.129  18.083  0.00  0.00    +0.000 C 
ATOM     14  O   UNL     1       7.897   6.228  18.353  0.00  0.00    +0.000 OA
BRANCH  13  15
ATOM     15  O   UNL     1       8.205   4.079  17.730  0.00  0.00    +0.000 OA
ATOM     16  H   UNL     1       8.973   3.926  18.311  0.00  0.00    +0.000 HD
ENDBRANCH  13  15
ENDBRANCH   5  13
TORSDOF 4
ENDMDL
