MODEL 1
REMARK VINA RESULT:      -7.6      0.000      0.000
REMARK  Name = 
REMARK  2 active torsions:
REMARK  status: ('A' for Active; 'I' for Inactive)
REMARK    1  A    between atoms: C_1  and  C_2
REMARK    2  A    between atoms: C_7  and  N_8
REMARK                            x       y       z     vdW  Elec       q    Type
REMARK                         _______ _______ _______ _____ _____    ______ ____
ROOT
ATOM      1  N   UNL     1       2.819   6.116  19.313  0.00  0.00    +0.000 N 
ATOM      2  C   UNL     1       2.183   7.313  19.534  0.00  0.00    +0.000 A 
ATOM      3  N   UNL     1       1.484   7.587  20.587  0.00  0.00    +0.000 NA
ATOM      4  C   UNL     1       0.902   8.839  20.696  0.00  0.00    +0.000 A 
ATOM      5  C   UNL     1       0.152   9.147  21.832  0.00  0.00    +0.000 A 
ATOM      6  C   UNL     1      -0.417  10.412  21.983  0.00  0.00    +0.000 A 
ATOM      7  C   UNL     1      -0.240  11.377  20.992  0.00  0.00    +0.000 A 
ATOM      8  C   UNL     1       0.495  11.068  19.844  0.00  0.00    +0.000 A 
ATOM      9  C   UNL     1       1.059   9.793  19.707  0.00  0.00    +0.000 A 
ATOM     10  C   UNL     1       1.835   9.409  18.524  0.00  0.00    +0.000 A 
ATOM     11  O   UNL     1       1.970  10.190  17.588  0.00  0.00    +0.000 OA
ATOM     12  O   UNL     1       2.392   8.171  18.503  0.00  0.00    +0.000 OA
ATOM     13  H   UNL     1       3.223   6.015  18.391  0.00  0.00    +0.000 HD
ENDROOT
BRANCH   1  20
ATOM     14  C   UNL     1       1.420   4.213  17.556  0.00  0.00    +0.000 C 
ATOM     15  C   UNL     1       1.660   3.965  19.020  0.00  0.00    +0.000 A 
ATOM     16  C   UNL     1       1.181   2.768  19.584  0.00  0.00    +0.000 A 
ATOM     17  C   UNL     1       1.389   2.475  20.931  0.00  0.00    +0.000 A 
ATOM     18  C   UNL     1       2.062   3.381  21.738  0.00  0.00    +0.000 A 
ATOM     19  C   UNL     1       2.531   4.576  21.195  0.00  0.00    +0.000 A 
ATOM     20  C   UNL     1       2.357   4.882  19.834  0.00  0.00    +0.000 A 
ENDBRANCH   1  20
TORSDOF 1
ENDMDL
MODEL 2
REMARK VINA RESULT:      -7.6      2.064      6.630
REMARK  Name = 
REMARK  2 active torsions:
REMARK  status: ('A' for Active; 'I' for Inactive)
REMARK    1  A    between atoms: C_1  and  C_2
REMARK    2  A    between atoms: C_7  and  N_8
REMARK                            x       y       z     vdW  Elec       q    Type
REMARK                         _______ _______ _______ _____ _____    ______ ____
ROOT
ATOM      1  N   UNL     1       1.933   7.419  20.922  0.00  0.00    +0.000 N 
ATOM      2  C   UNL     1       2.084   6.143  20.439  0.00  0.00    +0.000 A 
ATOM      3  N   UNL     1       2.227   5.845  19.187  0.00  0.00    +0.000 NA
ATOM      4  C   UNL     1       2.383   4.517  18.830  0.00  0.00    +0.000 A 
ATOM      5  C   UNL     1       2.546   4.187  17.483  0.00  0.00    +0.000 A 
ATOM      6  C   UNL     1       2.739   2.860  17.098  0.00  0.00    +0.000 A 
ATOM      7  C   UNL     1       2.768   1.853  18.063  0.00  0.00    +0.000 A 
ATOM      8  C   UNL     1       2.588   2.176  19.410  0.00  0.00    +0.000 A 
ATOM      9  C   UNL     1       2.393   3.512  19.781  0.00  0.00    +0.000 A 
ATOM     10  C   UNL     1       2.194   3.912  21.177  0.00  0.00    +0.000 A 
ATOM     11  O   UNL     1       2.141   3.067  22.064  0.00  0.00    +0.000 OA
ATOM     12  O   UNL     1       2.070   5.236  21.449  0.00  0.00    +0.000 OA
ATOM     13  H   UNL     1       1.712   7.475  21.907  0.00  0.00    +0.000 HD
ENDROOT
BRANCH   1  20
ATOM     14  C   UNL     1      -0.283   8.968  22.088  0.00  0.00    +0.000 C 
ATOM     15  C   UNL     1       0.254   9.206  20.703  0.00  0.00    +0.000 A 
ATOM     16  C   UNL     1      -0.340  10.211  19.918  0.00  0.00    +0.000 A 
ATOM     17  C   UNL     1       0.127  10.489  18.633  0.00  0.00    +0.000 A 
ATOM     18  C   UNL     1       1.181   9.755  18.108  0.00  0.00    +0.000 A 
ATOM     19  C   UNL     1       1.770   8.748  18.871  0.00  0.00    +0.000 A 
ATOM     20  C   UNL     1       1.335   8.466  20.178  0.00  0.00    +0.000 A 
ENDBRANCH   1  20
TORSDOF 1
ENDMDL
MODEL 3
REMARK VINA RESULT:      -7.5      4.156      6.763
REMARK  Name = 
REMARK  2 active torsions:
REMARK  status: ('A' for Active; 'I' for Inactive)
REMARK    1  A    between atoms: C_1  and  C_2
REMARK    2  A    between atoms: C_7  and  N_8
REMARK                            x       y       z     vdW  Elec       q    Type
REMARK                         _______ _______ _______ _____ _____    ______ ____
ROOT
ATOM      1  N   UNL     1       4.606   4.701  19.722  0.00  0.00    +0.000 N 
ATOM      2  C   UNL     1       5.214   4.599  18.495  0.00  0.00    +0.000 A 
ATOM      3  N   UNL     1       4.584   4.574  17.366  0.00  0.00    +0.000 NA
ATOM      4  C   UNL     1       5.316   4.481  16.194  0.00  0.00    +0.000 A 
ATOM      5  C   UNL     1       4.645   4.460  14.970  0.00  0.00    +0.000 A 
ATOM      6  C   UNL     1       5.359   4.401  13.772  0.00  0.00    +0.000 A 
ATOM      7  C   UNL     1       6.753   4.358  13.796  0.00  0.00    +0.000 A 
ATOM      8  C   UNL     1       7.428   4.360  15.019  0.00  0.00    +0.000 A 
ATOM      9  C   UNL     1       6.697   4.419  16.212  0.00  0.00    +0.000 A 
ATOM     10  C   UNL     1       7.350   4.419  17.525  0.00  0.00    +0.000 A 
ATOM     11  O   UNL     1       8.568   4.314  17.614  0.00  0.00    +0.000 OA
ATOM     12  O   UNL     1       6.564   4.536  18.626  0.00  0.00    +0.000 OA
ATOM     13  H   UNL     1       5.227   4.586  20.512  0.00  0.00    +0.000 HD
ENDROOT
BRANCH   1  20
ATOM     14  C   UNL     1       2.338   6.572  19.871  0.00  0.00    +0.000 C 
ATOM     15  C   UNL     1       2.204   5.090  20.090  0.00  0.00    +0.000 A 
ATOM     16  C   UNL     1       0.932   4.570  20.395  0.00  0.00    +0.000 A 
ATOM     17  C   UNL     1       0.744   3.202  20.592  0.00  0.00    +0.000 A 
ATOM     18  C   UNL     1       1.825   2.337  20.504  0.00  0.00    +0.000 A 
ATOM     19  C   UNL     1       3.092   2.840  20.215  0.00  0.00    +0.000 A 
ATOM     20  C   UNL     1       3.303   4.212  19.988  0.00  0.00    +0.000 A 
ENDBRANCH   1  20
TORSDOF 1
ENDMDL
MODEL 4
REMARK VINA RESULT:      -7.5      1.590      2.148
REMARK  Name = 
REMARK  2 active torsions:
REMARK  status: ('A' for Active; 'I' for Inactive)
REMARK    1  A    between atoms: C_1  and  C_2
REMARK    2  A    between atoms: C_7  and  N_8
REMARK                            x       y       z     vdW  Elec       q    Type
REMARK                         _______ _______ _______ _____ _____    ______ ____
ROOT
ATOM      1  N   UNL     1       3.420   6.129  17.851  0.00  0.00    +0.000 N 
ATOM      2  C   UNL     1       2.719   7.132  18.475  0.00  0.00    +0.000 A 
ATOM      3  N   UNL     1       2.246   7.056  19.677  0.00  0.00    +0.000 NA
ATOM      4  C   UNL     1       1.567   8.145  20.197  0.00  0.00    +0.000 A 
ATOM      5  C   UNL     1       1.060   8.075  21.496  0.00  0.00    +0.000 A 
ATOM      6  C   UNL     1       0.401   9.169  22.058  0.00  0.00    +0.000 A 
ATOM      7  C   UNL     1       0.243  10.340  21.318  0.00  0.00    +0.000 A 
ATOM      8  C   UNL     1       0.733  10.409  20.011  0.00  0.00    +0.000 A 
ATOM      9  C   UNL     1       1.391   9.302  19.461  0.00  0.00    +0.000 A 
ATOM     10  C   UNL     1       1.922   9.312  18.094  0.00  0.00    +0.000 A 
ATOM     11  O   UNL     1       1.755  10.287  17.370  0.00  0.00    +0.000 OA
ATOM     12  O   UNL     1       2.595   8.214  17.665  0.00  0.00    +0.000 OA
ATOM     13  H   UNL     1       3.616   6.296  16.873  0.00  0.00    +0.000 HD
ENDROOT
BRANCH   1  20
ATOM     14  C   UNL     1       5.556   4.586  19.163  0.00  0.00    +0.000 C 
ATOM     15  C   UNL     1       4.244   3.986  18.736  0.00  0.00    +0.000 A 
ATOM     16  C   UNL     1       4.029   2.614  18.963  0.00  0.00    +0.000 A 
ATOM     17  C   UNL     1       2.827   2.006  18.604  0.00  0.00    +0.000 A 
ATOM     18  C   UNL     1       1.829   2.755  17.999  0.00  0.00    +0.000 A 
ATOM     19  C   UNL     1       2.033   4.113  17.757  0.00  0.00    +0.000 A 
ATOM     20  C   UNL     1       3.226   4.754  18.132  0.00  0.00    +0.000 A 
ENDBRANCH   1  20
TORSDOF 1
ENDMDL
MODEL 5
REMARK VINA RESULT:      -7.4      4.413      6.785
REMARK  Name = 
REMARK  2 active torsions:
REMARK  status: ('A' for Active; 'I' for Inactive)
REMARK    1  A    between atoms: C_1  and  C_2
REMARK    2  A    between atoms: C_7  and  N_8
REMARK                            x       y       z     vdW  Elec       q    Type
REMARK                         _______ _______ _______ _____ _____    ______ ____
ROOT
ATOM      1  N   UNL     1       6.549   4.193  18.432  0.00  0.00    +0.000 N 
ATOM      2  C   UNL     1       5.383   3.896  19.094  0.00  0.00    +0.000 A 
ATOM      3  N   UNL     1       4.308   4.614  19.041  0.00  0.00    +0.000 NA
ATOM      4  C   UNL     1       3.191   4.197  19.746  0.00  0.00    +0.000 A 
ATOM      5  C   UNL     1       2.024   4.962  19.689  0.00  0.00    +0.000 A 
ATOM      6  C   UNL     1       0.874   4.548  20.362  0.00  0.00    +0.000 A 
ATOM      7  C   UNL     1       0.888   3.364  21.100  0.00  0.00    +0.000 A 
ATOM      8  C   UNL     1       2.058   2.605  21.174  0.00  0.00    +0.000 A 
ATOM      9  C   UNL     1       3.205   3.034  20.495  0.00  0.00    +0.000 A 
ATOM     10  C   UNL     1       4.463   2.283  20.539  0.00  0.00    +0.000 A 
ATOM     11  O   UNL     1       4.560   1.272  21.225  0.00  0.00    +0.000 OA
ATOM     12  O   UNL     1       5.507   2.745  19.803  0.00  0.00    +0.000 OA
ATOM     13  H   UNL     1       7.333   3.601  18.671  0.00  0.00    +0.000 HD
ENDROOT
BRANCH   1  20
ATOM     14  C   UNL     1       5.621   5.462  15.943  0.00  0.00    +0.000 C 
ATOM     15  C   UNL     1       6.542   6.136  16.923  0.00  0.00    +0.000 A 
ATOM     16  C   UNL     1       6.995   7.436  16.630  0.00  0.00    +0.000 A 
ATOM     17  C   UNL     1       7.836   8.119  17.508  0.00  0.00    +0.000 A 
ATOM     18  C   UNL     1       8.251   7.506  18.682  0.00  0.00    +0.000 A 
ATOM     19  C   UNL     1       7.819   6.214  18.978  0.00  0.00    +0.000 A 
ATOM     20  C   UNL     1       6.951   5.516  18.121  0.00  0.00    +0.000 A 
ENDBRANCH   1  20
TORSDOF 1
ENDMDL
MODEL 6
REMARK VINA RESULT:      -7.4      4.322      6.730
REMARK  Name = 
REMARK  2 active torsions:
REMARK  status: ('A' for Active; 'I' for Inactive)
REMARK    1  A    between atoms: C_1  and  C_2
REMARK    2  A    between atoms: C_7  and  N_8
REMARK                            x       y       z     vdW  Elec       q    Type
REMARK                         _______ _______ _______ _____ _____    ______ ____
ROOT
ATOM      1  N   UNL     1       5.912   4.344  17.307  0.00  0.00    +0.000 N 
ATOM      2  C   UNL     1       4.809   3.921  18.008  0.00  0.00    +0.000 A 
ATOM      3  N   UNL     1       3.969   4.710  18.596  0.00  0.00    +0.000 NA
ATOM      4  C   UNL     1       2.887   4.158  19.261  0.00  0.00    +0.000 A 
ATOM      5  C   UNL     1       1.972   5.002  19.892  0.00  0.00    +0.000 A 
ATOM      6  C   UNL     1       0.854   4.474  20.541  0.00  0.00    +0.000 A 
ATOM      7  C   UNL     1       0.651   3.095  20.564  0.00  0.00    +0.000 A 
ATOM      8  C   UNL     1       1.574   2.246  19.949  0.00  0.00    +0.000 A 
ATOM      9  C   UNL     1       2.691   2.790  19.303  0.00  0.00    +0.000 A 
ATOM     10  C   UNL     1       3.696   1.949  18.646  0.00  0.00    +0.000 A 
ATOM     11  O   UNL     1       3.610   0.727  18.689  0.00  0.00    +0.000 OA
ATOM     12  O   UNL     1       4.715   2.567  17.995  0.00  0.00    +0.000 OA
ATOM     13  H   UNL     1       6.533   3.603  17.010  0.00  0.00    +0.000 HD
ENDROOT
BRANCH   1  20
ATOM     14  C   UNL     1       5.321   6.794  15.784  0.00  0.00    +0.000 C 
ATOM     15  C   UNL     1       6.363   6.723  16.868  0.00  0.00    +0.000 A 
ATOM     16  C   UNL     1       7.103   7.883  17.162  0.00  0.00    +0.000 A 
ATOM     17  C   UNL     1       8.069   7.883  18.168  0.00  0.00    +0.000 A 
ATOM     18  C   UNL     1       8.321   6.721  18.882  0.00  0.00    +0.000 A 
ATOM     19  C   UNL     1       7.604   5.561  18.592  0.00  0.00    +0.000 A 
ATOM     20  C   UNL     1       6.608   5.543  17.600  0.00  0.00    +0.000 A 
ENDBRANCH   1  20
TORSDOF 1
ENDMDL
MODEL 7
REMARK VINA RESULT:      -7.4      4.063      6.587
REMARK  Name = 
REMARK  2 active torsions:
REMARK  status: ('A' for Active; 'I' for Inactive)
REMARK    1  A    between atoms: C_1  and  C_2
REMARK    2  A    between atoms: C_7  and  N_8
REMARK                            x       y       z     vdW  Elec       q    Type
REMARK                         _______ _______ _______ _____ _____    ______ ____
ROOT
ATOM      1  N   UNL     1       3.984   5.691  18.925  0.00  0.00    +0.000 N 
ATOM      2  C   UNL     1       4.766   5.521  17.810  0.00  0.00    +0.000 A 
ATOM      3  N   UNL     1       4.470   4.743  16.819  0.00  0.00    +0.000 NA
ATOM      4  C   UNL     1       5.339   4.669  15.744  0.00  0.00    +0.000 A 
ATOM      5  C   UNL     1       5.024   3.838  14.667  0.00  0.00    +0.000 A 
ATOM      6  C   UNL     1       5.865   3.770  13.556  0.00  0.00    +0.000 A 
ATOM      7  C   UNL     1       7.031   4.534  13.519  0.00  0.00    +0.000 A 
ATOM      8  C   UNL     1       7.360   5.354  14.602  0.00  0.00    +0.000 A 
ATOM      9  C   UNL     1       6.507   5.410  15.711  0.00  0.00    +0.000 A 
ATOM     10  C   UNL     1       6.801   6.247  16.878  0.00  0.00    +0.000 A 
ATOM     11  O   UNL     1       7.844   6.890  16.935  0.00  0.00    +0.000 OA
ATOM     12  O   UNL     1       5.888   6.283  17.882  0.00  0.00    +0.000 OA
ATOM     13  H   UNL     1       4.411   6.238  19.661  0.00  0.00    +0.000 HD
ENDROOT
BRANCH   1  20
ATOM     14  C   UNL     1       1.636   6.443  20.534  0.00  0.00    +0.000 C 
ATOM     15  C   UNL     1       2.009   5.017  20.229  0.00  0.00    +0.000 A 
ATOM     16  C   UNL     1       1.202   3.988  20.749  0.00  0.00    +0.000 A 
ATOM     17  C   UNL     1       1.488   2.649  20.486  0.00  0.00    +0.000 A 
ATOM     18  C   UNL     1       2.593   2.318  19.714  0.00  0.00    +0.000 A 
ATOM     19  C   UNL     1       3.407   3.327  19.203  0.00  0.00    +0.000 A 
ATOM     20  C   UNL     1       3.125   4.686  19.433  0.00  0.00    +0.000 A 
ENDBRANCH   1  20
TORSDOF 1
ENDMDL
MODEL 8
REMARK VINA RESULT:      -7.3      3.656      5.276
REMARK  Name = 
REMARK  2 active torsions:
REMARK  status: ('A' for Active; 'I' for Inactive)
REMARK    1  A    between atoms: C_1  and  C_2
REMARK    2  A    between atoms: C_7  and  N_8
REMARK                            x       y       z     vdW  Elec       q    Type
REMARK                         _______ _______ _______ _____ _____    ______ ____
ROOT
ATOM      1  N   UNL     1       4.237   3.818  17.543  0.00  0.00    +0.000 N 
ATOM      2  C   UNL     1       3.568   4.778  18.261  0.00  0.00    +0.000 A 
ATOM      3  N   UNL     1       3.305   5.967  17.826  0.00  0.00    +0.000 NA
ATOM      4  C   UNL     1       2.610   6.841  18.646  0.00  0.00    +0.000 A 
ATOM      5  C   UNL     1       2.316   8.124  18.181  0.00  0.00    +0.000 A 
ATOM      6  C   UNL     1       1.587   9.013  18.973  0.00  0.00    +0.000 A 
ATOM      7  C   UNL     1       1.153   8.621  20.239  0.00  0.00    +0.000 A 
ATOM      8  C   UNL     1       1.461   7.344  20.715  0.00  0.00    +0.000 A 
ATOM      9  C   UNL     1       2.193   6.463  19.909  0.00  0.00    +0.000 A 
ATOM     10  C   UNL     1       2.551   5.114  20.356  0.00  0.00    +0.000 A 
ATOM     11  O   UNL     1       2.257   4.734  21.484  0.00  0.00    +0.000 OA
ATOM     12  O   UNL     1       3.213   4.310  19.485  0.00  0.00    +0.000 OA
ATOM     13  H   UNL     1       4.469   2.983  18.066  0.00  0.00    +0.000 HD
ENDROOT
BRANCH   1  20
ATOM     14  C   UNL     1       6.907   4.756  18.354  0.00  0.00    +0.000 C 
ATOM     15  C   UNL     1       6.486   4.597  16.918  0.00  0.00    +0.000 A 
ATOM     16  C   UNL     1       7.410   4.925  15.909  0.00  0.00    +0.000 A 
ATOM     17  C   UNL     1       7.083   4.781  14.561  0.00  0.00    +0.000 A 
ATOM     18  C   UNL     1       5.823   4.325  14.202  0.00  0.00    +0.000 A 
ATOM     19  C   UNL     1       4.894   4.008  15.191  0.00  0.00    +0.000 A 
ATOM     20  C   UNL     1       5.209   4.120  16.557  0.00  0.00    +0.000 A 
ENDBRANCH   1  20
TORSDOF 1
ENDMDL
MODEL 9
REMARK VINA RESULT:      -7.3      1.206      1.548
REMARK  Name = 
REMARK  2 active torsions:
REMARK  status: ('A' for Active; 'I' for Inactive)
REMARK    1  A    between atoms: C_1  and  C_2
REMARK    2  A    between atoms: C_7  and  N_8
REMARK                            x       y       z     vdW  Elec       q    Type
REMARK                         _______ _______ _______ _____ _____    ______ ____
ROOT
ATOM      1  N   UNL     1       2.638   6.728  19.363  0.00  0.00    +0.000 N 
ATOM      2  C   UNL     1       1.869   7.755  19.853  0.00  0.00    +0.000 A 
ATOM      3  N   UNL     1       1.402   7.808  21.058  0.00  0.00    +0.000 NA
ATOM      4  C   UNL     1       0.648   8.908  21.434  0.00  0.00    +0.000 A 
ATOM      5  C   UNL     1       0.146   8.977  22.735  0.00  0.00    +0.000 A 
ATOM      6  C   UNL     1      -0.588  10.089  23.151  0.00  0.00    +0.000 A 
ATOM      7  C   UNL     1      -0.825  11.138  22.262  0.00  0.00    +0.000 A 
ATOM      8  C   UNL     1      -0.340  11.064  20.954  0.00  0.00    +0.000 A 
ATOM      9  C   UNL     1       0.394   9.941  20.551  0.00  0.00    +0.000 A 
ATOM     10  C   UNL     1       0.924   9.805  19.191  0.00  0.00    +0.000 A 
ATOM     11  O   UNL     1       0.692  10.661  18.344  0.00  0.00    +0.000 OA
ATOM     12  O   UNL     1       1.672   8.708  18.907  0.00  0.00    +0.000 OA
ATOM     13  H   UNL     1       2.824   6.775  18.370  0.00  0.00    +0.000 HD
ENDROOT
BRANCH   1  20
ATOM     14  C   UNL     1       4.970   4.939  19.192  0.00  0.00    +0.000 C 
ATOM     15  C   UNL     1       3.634   4.508  19.732  0.00  0.00    +0.000 A 
ATOM     16  C   UNL     1       3.485   3.178  20.167  0.00  0.00    +0.000 A 
ATOM     17  C   UNL     1       2.276   2.725  20.693  0.00  0.00    +0.000 A 
ATOM     18  C   UNL     1       1.193   3.589  20.776  0.00  0.00    +0.000 A 
ATOM     19  C   UNL     1       1.323   4.906  20.338  0.00  0.00    +0.000 A 
ATOM     20  C   UNL     1       2.540   5.393  19.827  0.00  0.00    +0.000 A 
ENDBRANCH   1  20
TORSDOF 1
ENDMDL
