MODEL 1
REMARK VINA RESULT:      -8.3      0.000      0.000
REMARK  Name = 
REMARK  6 active torsions:
REMARK  status: ('A' for Active; 'I' for Inactive)
REMARK    1  A    between atoms: C_2  and  C_3
REMARK    2  A    between atoms: C_3  and  O_4
REMARK    3  A    between atoms: O_4  and  C_5
REMARK    4  A    between atoms: C_8  and  C_9
REMARK    5  A    between atoms: C_9  and  C_11
REMARK    6  A    between atoms: N_20  and  C_21
REMARK                            x       y       z     vdW  Elec       q    Type
REMARK                         _______ _______ _______ _____ _____    ______ ____
ROOT
ATOM      1  C   UNL     1       7.804   7.357  18.209  0.00  0.00    +0.000 A 
ATOM      2  C   UNL     1       6.844   7.491  17.202  0.00  0.00    +0.000 A 
ATOM      3  C   UNL     1       5.967   6.443  16.921  0.00  0.00    +0.000 A 
ATOM      4  C   UNL     1       6.064   5.236  17.620  0.00  0.00    +0.000 A 
ATOM      5  C   UNL     1       7.082   5.070  18.566  0.00  0.00    +0.000 A 
ATOM      6  C   UNL     1       7.946   6.132  18.862  0.00  0.00    +0.000 A 
ENDROOT
BRANCH   4   7
ATOM      7  C   UNL     1       5.093   4.165  17.279  0.00  0.00    +0.000 C 
ATOM      8  O   UNL     1       5.330   3.427  16.324  0.00  0.00    +0.000 OA
BRANCH   7   9
ATOM      9  C   UNL     1       3.845   3.949  18.046  0.00  0.00    +0.000 A 
ATOM     10  C   UNL     1       2.630   4.258  17.425  0.00  0.00    +0.000 A 
ATOM     11  C   UNL     1       1.425   4.062  18.098  0.00  0.00    +0.000 A 
ATOM     12  C   UNL     1       1.433   3.562  19.400  0.00  0.00    +0.000 A 
ATOM     13  C   UNL     1       2.646   3.282  20.030  0.00  0.00    +0.000 A 
ATOM     14 CL   UNL     1       2.652   2.671  21.638  0.00  0.00    +0.000 Cl
ATOM     15  C   UNL     1       3.856   3.487  19.368  0.00  0.00    +0.000 A 
ENDBRANCH   7   9
ENDBRANCH   4   7
BRANCH   1  16
ATOM     16  O   UNL     1       8.634   8.367  18.629  0.00  0.00    +0.000 OA
BRANCH  16  17
ATOM     17  C   UNL     1       8.314   9.636  18.064  0.00  0.00    +0.000 C 
BRANCH  17  19
ATOM     18  O   UNL     1      10.072  10.596  19.347  0.00  0.00    +0.000 OA
ATOM     19  C   UNL     1       9.257  10.767  18.444  0.00  0.00    +0.000 C 
ATOM     20  N   UNL     1       9.098  11.922  17.710  0.00  0.00    +0.000 N 
ATOM     21  H   UNL     1       8.263  11.967  17.128  0.00  0.00    +0.000 HD
BRANCH  20  22
ATOM     22  C   UNL     1       9.917  13.068  17.783  0.00  0.00    +0.000 A 
ATOM     23  C   UNL     1      11.104  13.211  17.064  0.00  0.00    +0.000 A 
ATOM     24  C   UNL     1      11.870  14.366  17.207  0.00  0.00    +0.000 A 
ATOM     25  C   UNL     1      11.420  15.353  18.064  0.00  0.00    +0.000 A 
ATOM     26  N   UNL     1      10.263  15.271  18.756  0.00  0.00    +0.000 NA
ATOM     27  C   UNL     1       9.540  14.135  18.593  0.00  0.00    +0.000 A 
ENDBRANCH  20  22
ENDBRANCH  17  19
ENDBRANCH  16  17
ENDBRANCH   1  16
TORSDOF 6
ENDMDL
MODEL 2
REMARK VINA RESULT:      -8.1      1.020      1.607
REMARK  Name = 
REMARK  6 active torsions:
REMARK  status: ('A' for Active; 'I' for Inactive)
REMARK    1  A    between atoms: C_2  and  C_3
REMARK    2  A    between atoms: C_3  and  O_4
REMARK    3  A    between atoms: O_4  and  C_5
REMARK    4  A    between atoms: C_8  and  C_9
REMARK    5  A    between atoms: C_9  and  C_11
REMARK    6  A    between atoms: N_20  and  C_21
REMARK                            x       y       z     vdW  Elec       q    Type
REMARK                         _______ _______ _______ _____ _____    ______ ____
ROOT
ATOM      1  C   UNL     1       7.862   7.287  18.314  0.00  0.00    +0.000 A 
ATOM      2  C   UNL     1       7.866   6.027  18.918  0.00  0.00    +0.000 A 
ATOM      3  C   UNL     1       6.992   5.033  18.478  0.00  0.00    +0.000 A 
ATOM      4  C   UNL     1       6.080   5.299  17.453  0.00  0.00    +0.000 A 
ATOM      5  C   UNL     1       6.014   6.587  16.909  0.00  0.00    +0.000 A 
ATOM      6  C   UNL     1       6.909   7.576  17.337  0.00  0.00    +0.000 A 
ENDROOT
BRANCH   4   7
ATOM      7  C   UNL     1       5.185   4.192  17.026  0.00  0.00    +0.000 C 
ATOM      8  O   UNL     1       5.472   3.548  16.020  0.00  0.00    +0.000 OA
BRANCH   7   9
ATOM      9  C   UNL     1       3.956   3.832  17.768  0.00  0.00    +0.000 A 
ATOM     10  C   UNL     1       3.339   2.612  17.467  0.00  0.00    +0.000 A 
ATOM     11  C   UNL     1       2.186   2.220  18.145  0.00  0.00    +0.000 A 
ATOM     12  C   UNL     1       1.640   3.051  19.123  0.00  0.00    +0.000 A 
ATOM     13  C   UNL     1       2.237   4.281  19.401  0.00  0.00    +0.000 A 
ATOM     14 CL   UNL     1       1.558   5.307  20.603  0.00  0.00    +0.000 Cl
ATOM     15  C   UNL     1       3.384   4.686  18.719  0.00  0.00    +0.000 A 
ENDBRANCH   7   9
ENDBRANCH   4   7
BRANCH   1  16
ATOM     16  O   UNL     1       8.754   8.290  18.604  0.00  0.00    +0.000 OA
BRANCH  16  17
ATOM     17  C   UNL     1       8.350   9.567  18.115  0.00  0.00    +0.000 C 
BRANCH  17  19
ATOM     18  O   UNL     1      10.023  10.593  19.460  0.00  0.00    +0.000 OA
ATOM     19  C   UNL     1       9.255  10.724  18.509  0.00  0.00    +0.000 C 
ATOM     20  N   UNL     1       9.119  11.854  17.733  0.00  0.00    +0.000 N 
ATOM     21  H   UNL     1       8.316  11.868  17.107  0.00  0.00    +0.000 HD
BRANCH  20  22
ATOM     22  C   UNL     1       9.916  13.014  17.814  0.00  0.00    +0.000 A 
ATOM     23  C   UNL     1       9.556  14.144  18.548  0.00  0.00    +0.000 A 
ATOM     24  C   UNL     1      10.388  15.261  18.562  0.00  0.00    +0.000 A 
ATOM     25  C   UNL     1      11.568  15.212  17.842  0.00  0.00    +0.000 A 
ATOM     26  N   UNL     1      11.972  14.130  17.143  0.00  0.00    +0.000 NA
ATOM     27  C   UNL     1      11.140  13.059  17.152  0.00  0.00    +0.000 A 
ENDBRANCH  20  22
ENDBRANCH  17  19
ENDBRANCH  16  17
ENDBRANCH   1  16
TORSDOF 6
ENDMDL
MODEL 3
REMARK VINA RESULT:      -8.0      6.250      9.000
REMARK  Name = 
REMARK  6 active torsions:
REMARK  status: ('A' for Active; 'I' for Inactive)
REMARK    1  A    between atoms: C_2  and  C_3
REMARK    2  A    between atoms: C_3  and  O_4
REMARK    3  A    between atoms: O_4  and  C_5
REMARK    4  A    between atoms: C_8  and  C_9
REMARK    5  A    between atoms: C_9  and  C_11
REMARK    6  A    between atoms: N_20  and  C_21
REMARK                            x       y       z     vdW  Elec       q    Type
REMARK                         _______ _______ _______ _____ _____    ______ ____
ROOT
ATOM      1  C   UNL     1       2.290   7.486  19.511  0.00  0.00    +0.000 A 
ATOM      2  C   UNL     1       1.556   8.135  20.508  0.00  0.00    +0.000 A 
ATOM      3  C   UNL     1       0.803   9.268  20.203  0.00  0.00    +0.000 A 
ATOM      4  C   UNL     1       0.803   9.788  18.905  0.00  0.00    +0.000 A 
ATOM      5  C   UNL     1       1.608   9.191  17.927  0.00  0.00    +0.000 A 
ATOM      6  C   UNL     1       2.345   8.039  18.231  0.00  0.00    +0.000 A 
ENDROOT
BRANCH   4   7
ATOM      7  C   UNL     1      -0.028  10.991  18.646  0.00  0.00    +0.000 C 
ATOM      8  O   UNL     1       0.484  12.104  18.748  0.00  0.00    +0.000 OA
BRANCH   7   9
ATOM      9  C   UNL     1      -1.457  10.904  18.268  0.00  0.00    +0.000 A 
ATOM     10  C   UNL     1      -1.806  10.054  17.213  0.00  0.00    +0.000 A 
ATOM     11  C   UNL     1      -3.139   9.925  16.824  0.00  0.00    +0.000 A 
ATOM     12  C   UNL     1      -4.127  10.654  17.486  0.00  0.00    +0.000 A 
ATOM     13  C   UNL     1      -3.775  11.525  18.517  0.00  0.00    +0.000 A 
ATOM     14 CL   UNL     1      -4.995  12.427  19.327  0.00  0.00    +0.000 Cl
ATOM     15  C   UNL     1      -2.443  11.668  18.904  0.00  0.00    +0.000 A 
ENDBRANCH   7   9
ENDBRANCH   4   7
BRANCH   1  16
ATOM     16  O   UNL     1       2.970   6.307  19.690  0.00  0.00    +0.000 OA
BRANCH  16  17
ATOM     17  C   UNL     1       2.455   5.232  18.909  0.00  0.00    +0.000 C 
BRANCH  17  19
ATOM     18  O   UNL     1       3.432   3.387  17.767  0.00  0.00    +0.000 OA
ATOM     19  C   UNL     1       3.450   4.602  17.944  0.00  0.00    +0.000 C 
ATOM     20  N   UNL     1       4.311   5.492  17.341  0.00  0.00    +0.000 N 
ATOM     21  H   UNL     1       4.320   6.433  17.730  0.00  0.00    +0.000 HD
BRANCH  20  22
ATOM     22  C   UNL     1       5.242   5.184  16.328  0.00  0.00    +0.000 A 
ATOM     23  C   UNL     1       4.893   4.576  15.123  0.00  0.00    +0.000 A 
ATOM     24  C   UNL     1       5.875   4.284  14.179  0.00  0.00    +0.000 A 
ATOM     25  C   UNL     1       7.186   4.618  14.468  0.00  0.00    +0.000 A 
ATOM     26  N   UNL     1       7.566   5.236  15.606  0.00  0.00    +0.000 NA
ATOM     27  C   UNL     1       6.585   5.508  16.503  0.00  0.00    +0.000 A 
ENDBRANCH  20  22
ENDBRANCH  17  19
ENDBRANCH  16  17
ENDBRANCH   1  16
TORSDOF 6
ENDMDL
MODEL 4
REMARK VINA RESULT:      -8.0      6.259      8.310
REMARK  Name = 
REMARK  6 active torsions:
REMARK  status: ('A' for Active; 'I' for Inactive)
REMARK    1  A    between atoms: C_2  and  C_3
REMARK    2  A    between atoms: C_3  and  O_4
REMARK    3  A    between atoms: O_4  and  C_5
REMARK    4  A    between atoms: C_8  and  C_9
REMARK    5  A    between atoms: C_9  and  C_11
REMARK    6  A    between atoms: N_20  and  C_21
REMARK                            x       y       z     vdW  Elec       q    Type
REMARK                         _______ _______ _______ _____ _____    ______ ____
ROOT
ATOM      1  C   UNL     1       3.297   5.465  18.137  0.00  0.00    +0.000 A 
ATOM      2  C   UNL     1       4.109   6.478  17.618  0.00  0.00    +0.000 A 
ATOM      3  C   UNL     1       5.275   6.158  16.923  0.00  0.00    +0.000 A 
ATOM      4  C   UNL     1       5.662   4.824  16.770  0.00  0.00    +0.000 A 
ATOM      5  C   UNL     1       4.896   3.814  17.366  0.00  0.00    +0.000 A 
ATOM      6  C   UNL     1       3.713   4.137  18.043  0.00  0.00    +0.000 A 
ENDROOT
BRANCH   4   7
ATOM      7  C   UNL     1       6.909   4.553  16.010  0.00  0.00    +0.000 C 
ATOM      8  O   UNL     1       7.958   4.381  16.628  0.00  0.00    +0.000 OA
BRANCH   7   9
ATOM      9  C   UNL     1       6.940   4.481  14.532  0.00  0.00    +0.000 A 
ATOM     10  C   UNL     1       7.785   5.363  13.848  0.00  0.00    +0.000 A 
ATOM     11  C   UNL     1       7.861   5.328  12.457  0.00  0.00    +0.000 A 
ATOM     12  C   UNL     1       7.085   4.415  11.743  0.00  0.00    +0.000 A 
ATOM     13  C   UNL     1       6.220   3.557  12.422  0.00  0.00    +0.000 A 
ATOM     14 CL   UNL     1       5.259   2.436  11.539  0.00  0.00    +0.000 Cl
ATOM     15  C   UNL     1       6.129   3.593  13.814  0.00  0.00    +0.000 A 
ENDBRANCH   7   9
ENDBRANCH   4   7
BRANCH   1  16
ATOM     16  O   UNL     1       2.080   5.677  18.738  0.00  0.00    +0.000 OA
BRANCH  16  17
ATOM     17  C   UNL     1       2.185   6.213  20.055  0.00  0.00    +0.000 C 
BRANCH  17  19
ATOM     18  O   UNL     1       2.095   8.494  19.384  0.00  0.00    +0.000 OA
ATOM     19  C   UNL     1       1.724   7.656  20.201  0.00  0.00    +0.000 C 
ATOM     20  N   UNL     1       0.903   7.892  21.283  0.00  0.00    +0.000 N 
ATOM     21  H   UNL     1       0.839   7.137  21.964  0.00  0.00    +0.000 HD
BRANCH  20  22
ATOM     22  C   UNL     1       0.250   9.106  21.575  0.00  0.00    +0.000 A 
ATOM     23  C   UNL     1      -0.396   9.882  20.613  0.00  0.00    +0.000 A 
ATOM     24  C   UNL     1      -1.001  11.083  20.977  0.00  0.00    +0.000 A 
ATOM     25  C   UNL     1      -0.948  11.471  22.303  0.00  0.00    +0.000 A 
ATOM     26  N   UNL     1      -0.362  10.739  23.273  0.00  0.00    +0.000 NA
ATOM     27  C   UNL     1       0.216   9.574  22.886  0.00  0.00    +0.000 A 
ENDBRANCH  20  22
ENDBRANCH  17  19
ENDBRANCH  16  17
ENDBRANCH   1  16
TORSDOF 6
ENDMDL
MODEL 5
REMARK VINA RESULT:      -8.0      1.224      1.516
REMARK  Name = 
REMARK  6 active torsions:
REMARK  status: ('A' for Active; 'I' for Inactive)
REMARK    1  A    between atoms: C_2  and  C_3
REMARK    2  A    between atoms: C_3  and  O_4
REMARK    3  A    between atoms: O_4  and  C_5
REMARK    4  A    between atoms: C_8  and  C_9
REMARK    5  A    between atoms: C_9  and  C_11
REMARK    6  A    between atoms: N_20  and  C_21
REMARK                            x       y       z     vdW  Elec       q    Type
REMARK                         _______ _______ _______ _____ _____    ______ ____
ROOT
ATOM      1  C   UNL     1       7.743   7.179  18.150  0.00  0.00    +0.000 A 
ATOM      2  C   UNL     1       6.823   7.462  17.137  0.00  0.00    +0.000 A 
ATOM      3  C   UNL     1       5.895   6.500  16.739  0.00  0.00    +0.000 A 
ATOM      4  C   UNL     1       5.899   5.231  17.325  0.00  0.00    +0.000 A 
ATOM      5  C   UNL     1       6.877   4.917  18.277  0.00  0.00    +0.000 A 
ATOM      6  C   UNL     1       7.793   5.893  18.691  0.00  0.00    +0.000 A 
ENDROOT
BRANCH   4   7
ATOM      7  C   UNL     1       4.877   4.257  16.863  0.00  0.00    +0.000 C 
ATOM      8  O   UNL     1       4.864   3.924  15.679  0.00  0.00    +0.000 OA
BRANCH   7   9
ATOM      9  C   UNL     1       3.871   3.668  17.774  0.00  0.00    +0.000 A 
ATOM     10  C   UNL     1       3.660   2.285  17.715  0.00  0.00    +0.000 A 
ATOM     11  C   UNL     1       2.732   1.678  18.560  0.00  0.00    +0.000 A 
ATOM     12  C   UNL     1       2.005   2.454  19.462  0.00  0.00    +0.000 A 
ATOM     13  C   UNL     1       2.192   3.836  19.499  0.00  0.00    +0.000 A 
ATOM     14 CL   UNL     1       1.289   4.792  20.608  0.00  0.00    +0.000 Cl
ATOM     15  C   UNL     1       3.110   4.453  18.649  0.00  0.00    +0.000 A 
ENDBRANCH   7   9
ENDBRANCH   4   7
BRANCH   1  16
ATOM     16  O   UNL     1       8.618   8.093  18.682  0.00  0.00    +0.000 OA
BRANCH  16  17
ATOM     17  C   UNL     1       8.393   9.425  18.225  0.00  0.00    +0.000 C 
BRANCH  17  19
ATOM     18  O   UNL     1       9.483  10.351  20.127  0.00  0.00    +0.000 OA
ATOM     19  C   UNL     1       9.203  10.497  18.940  0.00  0.00    +0.000 C 
ATOM     20  N   UNL     1       9.555  11.573  18.156  0.00  0.00    +0.000 N 
ATOM     21  H   UNL     1       9.093  11.632  17.250  0.00  0.00    +0.000 HD
BRANCH  20  22
ATOM     22  C   UNL     1      10.397  12.636  18.541  0.00  0.00    +0.000 A 
ATOM     23  C   UNL     1      10.223  13.367  19.716  0.00  0.00    +0.000 A 
ATOM     24  C   UNL     1      11.085  14.419  20.017  0.00  0.00    +0.000 A 
ATOM     25  C   UNL     1      12.107  14.707  19.131  0.00  0.00    +0.000 A 
ATOM     26  N   UNL     1      12.333  14.008  17.998  0.00  0.00    +0.000 NA
ATOM     27  C   UNL     1      11.477  12.989  17.735  0.00  0.00    +0.000 A 
ENDBRANCH  20  22
ENDBRANCH  17  19
ENDBRANCH  16  17
ENDBRANCH   1  16
TORSDOF 6
ENDMDL
MODEL 6
REMARK VINA RESULT:      -7.9      6.143      8.243
REMARK  Name = 
REMARK  6 active torsions:
REMARK  status: ('A' for Active; 'I' for Inactive)
REMARK    1  A    between atoms: C_2  and  C_3
REMARK    2  A    between atoms: C_3  and  O_4
REMARK    3  A    between atoms: O_4  and  C_5
REMARK    4  A    between atoms: C_8  and  C_9
REMARK    5  A    between atoms: C_9  and  C_11
REMARK    6  A    between atoms: N_20  and  C_21
REMARK                            x       y       z     vdW  Elec       q    Type
REMARK                         _______ _______ _______ _____ _____    ______ ____
ROOT
ATOM      1  C   UNL     1       3.841   3.178  18.855  0.00  0.00    +0.000 A 
ATOM      2  C   UNL     1       5.108   3.747  19.002  0.00  0.00    +0.000 A 
ATOM      3  C   UNL     1       5.657   4.518  17.978  0.00  0.00    +0.000 A 
ATOM      4  C   UNL     1       4.960   4.700  16.780  0.00  0.00    +0.000 A 
ATOM      5  C   UNL     1       3.730   4.057  16.597  0.00  0.00    +0.000 A 
ATOM      6  C   UNL     1       3.171   3.302  17.637  0.00  0.00    +0.000 A 
ENDROOT
BRANCH   4   7
ATOM      7  C   UNL     1       5.598   5.541  15.734  0.00  0.00    +0.000 C 
ATOM      8  O   UNL     1       5.689   6.753  15.918  0.00  0.00    +0.000 OA
BRANCH   7   9
ATOM      9  C   UNL     1       6.131   4.974  14.475  0.00  0.00    +0.000 A 
ATOM     10  C   UNL     1       7.365   5.445  14.013  0.00  0.00    +0.000 A 
ATOM     11  C   UNL     1       7.918   4.937  12.838  0.00  0.00    +0.000 A 
ATOM     12  C   UNL     1       7.232   3.960  12.116  0.00  0.00    +0.000 A 
ATOM     13  C   UNL     1       5.988   3.513  12.560  0.00  0.00    +0.000 A 
ATOM     14 CL   UNL     1       5.142   2.312  11.665  0.00  0.00    +0.000 Cl
ATOM     15  C   UNL     1       5.423   4.025  13.728  0.00  0.00    +0.000 A 
ENDBRANCH   7   9
ENDBRANCH   4   7
BRANCH   1  16
ATOM     16  O   UNL     1       3.175   2.498  19.845  0.00  0.00    +0.000 OA
BRANCH  16  17
ATOM     17  C   UNL     1       2.761   3.332  20.925  0.00  0.00    +0.000 C 
BRANCH  17  19
ATOM     18  O   UNL     1       0.721   4.397  20.322  0.00  0.00    +0.000 OA
ATOM     19  C   UNL     1       1.924   4.538  20.524  0.00  0.00    +0.000 C 
ATOM     20  N   UNL     1       2.627   5.719  20.419  0.00  0.00    +0.000 N 
ATOM     21  H   UNL     1       3.641   5.634  20.437  0.00  0.00    +0.000 HD
BRANCH  20  22
ATOM     22  C   UNL     1       2.072   6.992  20.178  0.00  0.00    +0.000 A 
ATOM     23  C   UNL     1       1.333   7.700  21.126  0.00  0.00    +0.000 A 
ATOM     24  C   UNL     1       0.799   8.946  20.806  0.00  0.00    +0.000 A 
ATOM     25  C   UNL     1       1.026   9.453  19.540  0.00  0.00    +0.000 A 
ATOM     26  N   UNL     1       1.760   8.819  18.601  0.00  0.00    +0.000 NA
ATOM     27  C   UNL     1       2.268   7.610  18.946  0.00  0.00    +0.000 A 
ENDBRANCH  20  22
ENDBRANCH  17  19
ENDBRANCH  16  17
ENDBRANCH   1  16
TORSDOF 6
ENDMDL
MODEL 7
REMARK VINA RESULT:      -7.8      7.437      9.024
REMARK  Name = 
REMARK  6 active torsions:
REMARK  status: ('A' for Active; 'I' for Inactive)
REMARK    1  A    between atoms: C_2  and  C_3
REMARK    2  A    between atoms: C_3  and  O_4
REMARK    3  A    between atoms: O_4  and  C_5
REMARK    4  A    between atoms: C_8  and  C_9
REMARK    5  A    between atoms: C_9  and  C_11
REMARK    6  A    between atoms: N_20  and  C_21
REMARK                            x       y       z     vdW  Elec       q    Type
REMARK                         _______ _______ _______ _____ _____    ______ ____
ROOT
ATOM      1  C   UNL     1       1.394   8.806  19.794  0.00  0.00    +0.000 A 
ATOM      2  C   UNL     1       1.751   8.878  18.445  0.00  0.00    +0.000 A 
ATOM      3  C   UNL     1       2.312   7.773  17.806  0.00  0.00    +0.000 A 
ATOM      4  C   UNL     1       2.555   6.594  18.517  0.00  0.00    +0.000 A 
ATOM      5  C   UNL     1       2.280   6.551  19.889  0.00  0.00    +0.000 A 
ATOM      6  C   UNL     1       1.696   7.655  20.523  0.00  0.00    +0.000 A 
ENDROOT
BRANCH   4   7
ATOM      7  C   UNL     1       3.145   5.451  17.773  0.00  0.00    +0.000 C 
ATOM      8  O   UNL     1       2.464   4.444  17.590  0.00  0.00    +0.000 OA
BRANCH   7   9
ATOM      9  C   UNL     1       4.526   5.477  17.240  0.00  0.00    +0.000 A 
ATOM     10  C   UNL     1       4.889   4.498  16.309  0.00  0.00    +0.000 A 
ATOM     11  C   UNL     1       6.173   4.485  15.767  0.00  0.00    +0.000 A 
ATOM     12  C   UNL     1       7.102   5.448  16.161  0.00  0.00    +0.000 A 
ATOM     13  C   UNL     1       6.749   6.405  17.112  0.00  0.00    +0.000 A 
ATOM     14 CL   UNL     1       7.899   7.588  17.601  0.00  0.00    +0.000 Cl
ATOM     15  C   UNL     1       5.470   6.418  17.668  0.00  0.00    +0.000 A 
ENDBRANCH   7   9
ENDBRANCH   4   7
BRANCH   1  16
ATOM     16  O   UNL     1       0.739   9.801  20.478  0.00  0.00    +0.000 OA
BRANCH  16  17
ATOM     17  C   UNL     1      -0.147   9.310  21.481  0.00  0.00    +0.000 C 
BRANCH  17  19
ATOM     18  O   UNL     1      -0.103  10.164  23.702  0.00  0.00    +0.000 OA
ATOM     19  C   UNL     1      -0.523  10.317  22.558  0.00  0.00    +0.000 C 
ATOM     20  N   UNL     1      -1.334  11.345  22.128  0.00  0.00    +0.000 N 
ATOM     21  H   UNL     1      -1.743  11.230  21.203  0.00  0.00    +0.000 HD
BRANCH  20  22
ATOM     22  C   UNL     1      -1.727  12.462  22.892  0.00  0.00    +0.000 A 
ATOM     23  C   UNL     1      -0.924  13.588  23.077  0.00  0.00    +0.000 A 
ATOM     24  C   UNL     1      -1.375  14.645  23.865  0.00  0.00    +0.000 A 
ATOM     25  C   UNL     1      -2.627  14.547  24.443  0.00  0.00    +0.000 A 
ATOM     26  N   UNL     1      -3.452  13.492  24.267  0.00  0.00    +0.000 NA
ATOM     27  C   UNL     1      -2.983  12.481  23.493  0.00  0.00    +0.000 A 
ENDBRANCH  20  22
ENDBRANCH  17  19
ENDBRANCH  16  17
ENDBRANCH   1  16
TORSDOF 6
ENDMDL
MODEL 8
REMARK VINA RESULT:      -7.8      6.521      9.082
REMARK  Name = 
REMARK  6 active torsions:
REMARK  status: ('A' for Active; 'I' for Inactive)
REMARK    1  A    between atoms: C_2  and  C_3
REMARK    2  A    between atoms: C_3  and  O_4
REMARK    3  A    between atoms: O_4  and  C_5
REMARK    4  A    between atoms: C_8  and  C_9
REMARK    5  A    between atoms: C_9  and  C_11
REMARK    6  A    between atoms: N_20  and  C_21
REMARK                            x       y       z     vdW  Elec       q    Type
REMARK                         _______ _______ _______ _____ _____    ______ ____
ROOT
ATOM      1  C   UNL     1       1.845   7.969  19.791  0.00  0.00    +0.000 A 
ATOM      2  C   UNL     1       1.886   8.467  18.486  0.00  0.00    +0.000 A 
ATOM      3  C   UNL     1       1.148   9.599  18.141  0.00  0.00    +0.000 A 
ATOM      4  C   UNL     1       0.332  10.225  19.089  0.00  0.00    +0.000 A 
ATOM      5  C   UNL     1       0.222   9.674  20.371  0.00  0.00    +0.000 A 
ATOM      6  C   UNL     1       0.983   8.551  20.720  0.00  0.00    +0.000 A 
ENDROOT
BRANCH   4   7
ATOM      7  C   UNL     1      -0.420  11.432  18.658  0.00  0.00    +0.000 C 
ATOM      8  O   UNL     1       0.120  12.532  18.743  0.00  0.00    +0.000 OA
BRANCH   7   9
ATOM      9  C   UNL     1      -1.800  11.361  18.127  0.00  0.00    +0.000 A 
ATOM     10  C   UNL     1      -2.843  11.803  18.949  0.00  0.00    +0.000 A 
ATOM     11  C   UNL     1      -4.160  11.770  18.493  0.00  0.00    +0.000 A 
ATOM     12  C   UNL     1      -4.439  11.286  17.215  0.00  0.00    +0.000 A 
ATOM     13  C   UNL     1      -3.403  10.817  16.408  0.00  0.00    +0.000 A 
ATOM     14 CL   UNL     1      -3.750  10.215  14.834  0.00  0.00    +0.000 Cl
ATOM     15  C   UNL     1      -2.084  10.836  16.861  0.00  0.00    +0.000 A 
ENDBRANCH   7   9
ENDBRANCH   4   7
BRANCH   1  16
ATOM     16  O   UNL     1       2.618   6.931  20.250  0.00  0.00    +0.000 OA
BRANCH  16  17
ATOM     17  C   UNL     1       2.644   5.811  19.368  0.00  0.00    +0.000 C 
BRANCH  17  19
ATOM     18  O   UNL     1       4.963   5.277  19.418  0.00  0.00    +0.000 OA
ATOM     19  C   UNL     1       3.991   5.538  18.714  0.00  0.00    +0.000 C 
ATOM     20  N   UNL     1       3.990   5.616  17.338  0.00  0.00    +0.000 N 
ATOM     21  H   UNL     1       3.155   6.021  16.918  0.00  0.00    +0.000 HD
BRANCH  20  22
ATOM     22  C   UNL     1       5.070   5.295  16.491  0.00  0.00    +0.000 A 
ATOM     23  C   UNL     1       5.065   4.207  15.618  0.00  0.00    +0.000 A 
ATOM     24  C   UNL     1       6.181   3.943  14.827  0.00  0.00    +0.000 A 
ATOM     25  C   UNL     1       7.274   4.784  14.929  0.00  0.00    +0.000 A 
ATOM     26  N   UNL     1       7.312   5.866  15.735  0.00  0.00    +0.000 NA
ATOM     27  C   UNL     1       6.209   6.096  16.490  0.00  0.00    +0.000 A 
ENDBRANCH  20  22
ENDBRANCH  17  19
ENDBRANCH  16  17
ENDBRANCH   1  16
TORSDOF 6
ENDMDL
MODEL 9
REMARK VINA RESULT:      -7.8      7.502      9.987
REMARK  Name = 
REMARK  6 active torsions:
REMARK  status: ('A' for Active; 'I' for Inactive)
REMARK    1  A    between atoms: C_2  and  C_3
REMARK    2  A    between atoms: C_3  and  O_4
REMARK    3  A    between atoms: O_4  and  C_5
REMARK    4  A    between atoms: C_8  and  C_9
REMARK    5  A    between atoms: C_9  and  C_11
REMARK    6  A    between atoms: N_20  and  C_21
REMARK                            x       y       z     vdW  Elec       q    Type
REMARK                         _______ _______ _______ _____ _____    ______ ____
ROOT
ATOM      1  C   UNL     1       0.793  10.137  19.386  0.00  0.00    +0.000 A 
ATOM      2  C   UNL     1       0.921   9.180  20.396  0.00  0.00    +0.000 A 
ATOM      3  C   UNL     1       1.634   8.004  20.166  0.00  0.00    +0.000 A 
ATOM      4  C   UNL     1       2.198   7.755  18.911  0.00  0.00    +0.000 A 
ATOM      5  C   UNL     1       1.995   8.672  17.873  0.00  0.00    +0.000 A 
ATOM      6  C   UNL     1       1.297   9.862  18.114  0.00  0.00    +0.000 A 
ENDROOT
BRANCH   4   7
ATOM      7  C   UNL     1       2.954   6.488  18.737  0.00  0.00    +0.000 C 
ATOM      8  O   UNL     1       4.130   6.539  18.386  0.00  0.00    +0.000 OA
BRANCH   7   9
ATOM      9  C   UNL     1       2.343   5.159  18.970  0.00  0.00    +0.000 A 
ATOM     10  C   UNL     1       1.807   4.480  17.870  0.00  0.00    +0.000 A 
ATOM     11  C   UNL     1       1.231   3.221  18.033  0.00  0.00    +0.000 A 
ATOM     12  C   UNL     1       1.183   2.640  19.300  0.00  0.00    +0.000 A 
ATOM     13  C   UNL     1       1.690   3.330  20.401  0.00  0.00    +0.000 A 
ATOM     14 CL   UNL     1       1.623   2.613  21.963  0.00  0.00    +0.000 Cl
ATOM     15  C   UNL     1       2.257   4.595  20.249  0.00  0.00    +0.000 A 
ENDBRANCH   7   9
ENDBRANCH   4   7
BRANCH   1  16
ATOM     16  O   UNL     1       0.206  11.367  19.552  0.00  0.00    +0.000 OA
BRANCH  16  17
ATOM     17  C   UNL     1      -0.599  11.764  18.444  0.00  0.00    +0.000 C 
BRANCH  17  19
ATOM     18  O   UNL     1      -2.273  10.078  18.306  0.00  0.00    +0.000 OA
ATOM     19  C   UNL     1      -2.038  11.271  18.483  0.00  0.00    +0.000 C 
ATOM     20  N   UNL     1      -2.977  12.251  18.721  0.00  0.00    +0.000 N 
ATOM     21  H   UNL     1      -2.641  13.210  18.663  0.00  0.00    +0.000 HD
BRANCH  20  22
ATOM     22  C   UNL     1      -4.357  12.042  18.921  0.00  0.00    +0.000 A 
ATOM     23  C   UNL     1      -5.003  12.284  20.133  0.00  0.00    +0.000 A 
ATOM     24  C   UNL     1      -6.368  12.033  20.259  0.00  0.00    +0.000 A 
ATOM     25  C   UNL     1      -7.052  11.551  19.158  0.00  0.00    +0.000 A 
ATOM     26  N   UNL     1      -6.476  11.332  17.957  0.00  0.00    +0.000 NA
ATOM     27  C   UNL     1      -5.147  11.589  17.868  0.00  0.00    +0.000 A 
ENDBRANCH  20  22
ENDBRANCH  17  19
ENDBRANCH  16  17
ENDBRANCH   1  16
TORSDOF 6
ENDMDL
