MODEL 1
REMARK VINA RESULT:      -8.5      0.000      0.000
REMARK  Name = 
REMARK  5 active torsions:
REMARK  status: ('A' for Active; 'I' for Inactive)
REMARK    1  A    between atoms: C_1  and  C_2
REMARK    2  A    between atoms: C_5  and  C_6
REMARK    3  A    between atoms: C_12  and  C_13
REMARK    4  A    between atoms: C_13  and  N_14
REMARK    5  A    between atoms: N_17  and  C_18
REMARK                            x       y       z     vdW  Elec       q    Type
REMARK                         _______ _______ _______ _____ _____    ______ ____
ROOT
ATOM      1  N   UNL     1       2.943   7.370  18.641  0.00  0.00    +0.000 N 
ATOM      2  C   UNL     1       2.189   8.491  18.384  0.00  0.00    +0.000 C 
ATOM      3  O   UNL     1       2.292   9.111  17.333  0.00  0.00    +0.000 OA
ATOM      4  N   UNL     1       1.362   8.823  19.430  0.00  0.00    +0.000 N 
ATOM      5  H   UNL     1       2.551   6.691  19.275  0.00  0.00    +0.000 HD
ATOM      6  H   UNL     1       1.633   8.492  20.349  0.00  0.00    +0.000 HD
ENDROOT
BRANCH   4   7
ATOM      7  C   UNL     1       0.424   9.881  19.404  0.00  0.00    +0.000 A 
ATOM      8  C   UNL     1      -0.493  10.067  18.363  0.00  0.00    +0.000 A 
ATOM      9  C   UNL     1      -1.368  11.156  18.374  0.00  0.00    +0.000 A 
ATOM     10  C   UNL     1      -1.336  12.052  19.436  0.00  0.00    +0.000 A 
ATOM     11  F   UNL     1      -2.171  13.100  19.434  0.00  0.00    +0.000 F 
ATOM     12  C   UNL     1      -0.458  11.874  20.496  0.00  0.00    +0.000 A 
ATOM     13  C   UNL     1       0.409  10.787  20.474  0.00  0.00    +0.000 A 
ATOM     14  F   UNL     1       1.269  10.621  21.493  0.00  0.00    +0.000 F 
ENDBRANCH   4   7
BRANCH   1  15
ATOM     15  C   UNL     1       3.818   6.858  17.604  0.00  0.00    +0.000 C 
BRANCH  15  21
ATOM     16  C   UNL     1       7.201   6.718  17.460  0.00  0.00    +0.000 C 
ATOM     17  C   UNL     1       6.173   5.845  18.059  0.00  0.00    +0.000 A 
ATOM     18  O   UNL     1       6.647   4.763  18.722  0.00  0.00    +0.000 OA
ATOM     19  N   UNL     1       5.603   4.016  19.205  0.00  0.00    +0.000 NA
ATOM     20  C   UNL     1       4.475   4.631  18.814  0.00  0.00    +0.000 A 
ATOM     21  C   UNL     1       4.790   5.853  18.113  0.00  0.00    +0.000 A 
BRANCH  20  22
ATOM     22  C   UNL     1       3.169   4.040  19.141  0.00  0.00    +0.000 A 
ATOM     23  C   UNL     1       2.613   4.222  20.417  0.00  0.00    +0.000 A 
ATOM     24  C   UNL     1       1.379   3.654  20.750  0.00  0.00    +0.000 A 
ATOM     25  C   UNL     1       0.677   2.905  19.810  0.00  0.00    +0.000 A 
ATOM     26  C   UNL     1       1.220   2.702  18.545  0.00  0.00    +0.000 A 
ATOM     27  C   UNL     1       2.466   3.247  18.222  0.00  0.00    +0.000 A 
ENDBRANCH  20  22
ENDBRANCH  15  21
ENDBRANCH   1  15
TORSDOF 4
ENDMDL
MODEL 2
REMARK VINA RESULT:      -8.5      2.107      4.063
REMARK  Name = 
REMARK  5 active torsions:
REMARK  status: ('A' for Active; 'I' for Inactive)
REMARK    1  A    between atoms: C_1  and  C_2
REMARK    2  A    between atoms: C_5  and  C_6
REMARK    3  A    between atoms: C_12  and  C_13
REMARK    4  A    between atoms: C_13  and  N_14
REMARK    5  A    between atoms: N_17  and  C_18
REMARK                            x       y       z     vdW  Elec       q    Type
REMARK                         _______ _______ _______ _____ _____    ______ ____
ROOT
ATOM      1  N   UNL     1       2.272   6.899  20.549  0.00  0.00    +0.000 N 
ATOM      2  C   UNL     1       1.609   8.097  20.423  0.00  0.00    +0.000 C 
ATOM      3  O   UNL     1       1.270   8.536  19.331  0.00  0.00    +0.000 OA
ATOM      4  N   UNL     1       1.412   8.721  21.631  0.00  0.00    +0.000 N 
ATOM      5  H   UNL     1       2.156   6.401  21.417  0.00  0.00    +0.000 HD
ATOM      6  H   UNL     1       2.047   8.473  22.382  0.00  0.00    +0.000 HD
ENDROOT
BRANCH   4   7
ATOM      7  C   UNL     1       0.689   9.924  21.802  0.00  0.00    +0.000 A 
ATOM      8  C   UNL     1       0.967  11.094  21.085  0.00  0.00    +0.000 A 
ATOM      9  C   UNL     1       0.244  12.265  21.330  0.00  0.00    +0.000 A 
ATOM     10  C   UNL     1      -0.769  12.260  22.281  0.00  0.00    +0.000 A 
ATOM     11  F   UNL     1      -1.451  13.389  22.516  0.00  0.00    +0.000 F 
ATOM     12  C   UNL     1      -1.086  11.106  22.983  0.00  0.00    +0.000 A 
ATOM     13  C   UNL     1      -0.359   9.947  22.733  0.00  0.00    +0.000 A 
ATOM     14  F   UNL     1      -0.656   8.833  23.423  0.00  0.00    +0.000 F 
ENDBRANCH   4   7
BRANCH   1  15
ATOM     15  C   UNL     1       2.497   6.092  19.364  0.00  0.00    +0.000 C 
BRANCH  15  21
ATOM     16  C   UNL     1       1.511   3.234  20.896  0.00  0.00    +0.000 C 
ATOM     17  C   UNL     1       2.773   3.665  20.263  0.00  0.00    +0.000 A 
ATOM     18  O   UNL     1       3.759   2.736  20.249  0.00  0.00    +0.000 OA
ATOM     19  N   UNL     1       4.885   3.259  19.668  0.00  0.00    +0.000 NA
ATOM     20  C   UNL     1       4.597   4.530  19.342  0.00  0.00    +0.000 A 
ATOM     21  C   UNL     1       3.221   4.826  19.657  0.00  0.00    +0.000 A 
BRANCH  20  22
ATOM     22  C   UNL     1       5.631   5.382  18.735  0.00  0.00    +0.000 A 
ATOM     23  C   UNL     1       6.889   5.505  19.345  0.00  0.00    +0.000 A 
ATOM     24  C   UNL     1       7.879   6.322  18.790  0.00  0.00    +0.000 A 
ATOM     25  C   UNL     1       7.630   7.021  17.612  0.00  0.00    +0.000 A 
ATOM     26  C   UNL     1       6.383   6.923  17.002  0.00  0.00    +0.000 A 
ATOM     27  C   UNL     1       5.386   6.127  17.572  0.00  0.00    +0.000 A 
ENDBRANCH  20  22
ENDBRANCH  15  21
ENDBRANCH   1  15
TORSDOF 4
ENDMDL
MODEL 3
REMARK VINA RESULT:      -8.5      0.954      1.661
REMARK  Name = 
REMARK  5 active torsions:
REMARK  status: ('A' for Active; 'I' for Inactive)
REMARK    1  A    between atoms: C_1  and  C_2
REMARK    2  A    between atoms: C_5  and  C_6
REMARK    3  A    between atoms: C_12  and  C_13
REMARK    4  A    between atoms: C_13  and  N_14
REMARK    5  A    between atoms: N_17  and  C_18
REMARK                            x       y       z     vdW  Elec       q    Type
REMARK                         _______ _______ _______ _____ _____    ______ ____
ROOT
ATOM      1  N   UNL     1       2.797   7.279  18.530  0.00  0.00    +0.000 N 
ATOM      2  C   UNL     1       2.273   8.543  18.384  0.00  0.00    +0.000 C 
ATOM      3  O   UNL     1       2.624   9.286  17.477  0.00  0.00    +0.000 OA
ATOM      4  N   UNL     1       1.363   8.854  19.366  0.00  0.00    +0.000 N 
ATOM      5  H   UNL     1       2.215   6.593  18.984  0.00  0.00    +0.000 HD
ATOM      6  H   UNL     1       1.442   8.344  20.238  0.00  0.00    +0.000 HD
ENDROOT
BRANCH   4   7
ATOM      7  C   UNL     1       0.616  10.053  19.413  0.00  0.00    +0.000 A 
ATOM      8  C   UNL     1       0.807  11.039  20.388  0.00  0.00    +0.000 A 
ATOM      9  C   UNL     1       0.007  12.184  20.406  0.00  0.00    +0.000 A 
ATOM     10  C   UNL     1      -0.975  12.351  19.437  0.00  0.00    +0.000 A 
ATOM     11  F   UNL     1      -1.745  13.447  19.467  0.00  0.00    +0.000 F 
ATOM     12  C   UNL     1      -1.165  11.405  18.441  0.00  0.00    +0.000 A 
ATOM     13  C   UNL     1      -0.365  10.267  18.433  0.00  0.00    +0.000 A 
ATOM     14  F   UNL     1      -0.557   9.344  17.476  0.00  0.00    +0.000 F 
ENDBRANCH   4   7
BRANCH   1  15
ATOM     15  C   UNL     1       3.724   6.784  17.531  0.00  0.00    +0.000 C 
BRANCH  15  21
ATOM     16  C   UNL     1       7.110   6.700  17.416  0.00  0.00    +0.000 C 
ATOM     17  C   UNL     1       6.093   5.833  18.044  0.00  0.00    +0.000 A 
ATOM     18  O   UNL     1       6.582   4.788  18.754  0.00  0.00    +0.000 OA
ATOM     19  N   UNL     1       5.548   4.043  19.259  0.00  0.00    +0.000 NA
ATOM     20  C   UNL     1       4.411   4.620  18.835  0.00  0.00    +0.000 A 
ATOM     21  C   UNL     1       4.710   5.818  18.088  0.00  0.00    +0.000 A 
BRANCH  20  22
ATOM     22  C   UNL     1       3.114   4.019  19.177  0.00  0.00    +0.000 A 
ATOM     23  C   UNL     1       2.407   3.277  18.217  0.00  0.00    +0.000 A 
ATOM     24  C   UNL     1       1.164   2.711  18.520  0.00  0.00    +0.000 A 
ATOM     25  C   UNL     1       0.614   2.869  19.789  0.00  0.00    +0.000 A 
ATOM     26  C   UNL     1       1.295   3.613  20.747  0.00  0.00    +0.000 A 
ATOM     27  C   UNL     1       2.523   4.201  20.436  0.00  0.00    +0.000 A 
ENDBRANCH  20  22
ENDBRANCH  15  21
ENDBRANCH   1  15
TORSDOF 4
ENDMDL
MODEL 4
REMARK VINA RESULT:      -8.4      2.221      4.268
REMARK  Name = 
REMARK  5 active torsions:
REMARK  status: ('A' for Active; 'I' for Inactive)
REMARK    1  A    between atoms: C_1  and  C_2
REMARK    2  A    between atoms: C_5  and  C_6
REMARK    3  A    between atoms: C_12  and  C_13
REMARK    4  A    between atoms: C_13  and  N_14
REMARK    5  A    between atoms: N_17  and  C_18
REMARK                            x       y       z     vdW  Elec       q    Type
REMARK                         _______ _______ _______ _____ _____    ______ ____
ROOT
ATOM      1  N   UNL     1       3.009   6.104  20.218  0.00  0.00    +0.000 N 
ATOM      2  C   UNL     1       1.871   6.760  20.627  0.00  0.00    +0.000 C 
ATOM      3  O   UNL     1       0.843   6.157  20.904  0.00  0.00    +0.000 OA
ATOM      4  N   UNL     1       2.030   8.124  20.655  0.00  0.00    +0.000 N 
ATOM      5  H   UNL     1       3.890   6.555  20.405  0.00  0.00    +0.000 HD
ATOM      6  H   UNL     1       2.754   8.511  20.060  0.00  0.00    +0.000 HD
ENDROOT
BRANCH   4   7
ATOM      7  C   UNL     1       1.050   9.035  21.112  0.00  0.00    +0.000 A 
ATOM      8  C   UNL     1       0.710   9.183  22.461  0.00  0.00    +0.000 A 
ATOM      9  C   UNL     1      -0.298  10.070  22.846  0.00  0.00    +0.000 A 
ATOM     10  C   UNL     1      -0.956  10.823  21.881  0.00  0.00    +0.000 A 
ATOM     11  F   UNL     1      -1.928  11.664  22.257  0.00  0.00    +0.000 F 
ATOM     12  C   UNL     1      -0.618  10.719  20.540  0.00  0.00    +0.000 A 
ATOM     13  C   UNL     1       0.386   9.831  20.167  0.00  0.00    +0.000 A 
ATOM     14  F   UNL     1       0.704   9.719  18.866  0.00  0.00    +0.000 F 
ENDBRANCH   4   7
BRANCH   1  15
ATOM     15  C   UNL     1       3.015   4.653  20.200  0.00  0.00    +0.000 C 
BRANCH  15  21
ATOM     16  C   UNL     1       0.821   2.510  18.759  0.00  0.00    +0.000 C 
ATOM     17  C   UNL     1       2.005   3.238  18.262  0.00  0.00    +0.000 A 
ATOM     18  O   UNL     1       2.288   3.055  16.950  0.00  0.00    +0.000 OA
ATOM     19  N   UNL     1       3.420   3.752  16.615  0.00  0.00    +0.000 NA
ATOM     20  C   UNL     1       3.852   4.351  17.738  0.00  0.00    +0.000 A 
ATOM     21  C   UNL     1       2.937   4.093  18.823  0.00  0.00    +0.000 A 
BRANCH  20  22
ATOM     22  C   UNL     1       5.089   5.145  17.713  0.00  0.00    +0.000 A 
ATOM     23  C   UNL     1       6.268   4.629  18.276  0.00  0.00    +0.000 A 
ATOM     24  C   UNL     1       7.450   5.377  18.274  0.00  0.00    +0.000 A 
ATOM     25  C   UNL     1       7.475   6.646  17.704  0.00  0.00    +0.000 A 
ATOM     26  C   UNL     1       6.312   7.178  17.156  0.00  0.00    +0.000 A 
ATOM     27  C   UNL     1       5.124   6.442  17.181  0.00  0.00    +0.000 A 
ENDBRANCH  20  22
ENDBRANCH  15  21
ENDBRANCH   1  15
TORSDOF 4
ENDMDL
MODEL 5
REMARK VINA RESULT:      -8.3      1.790      2.205
REMARK  Name = 
REMARK  5 active torsions:
REMARK  status: ('A' for Active; 'I' for Inactive)
REMARK    1  A    between atoms: C_1  and  C_2
REMARK    2  A    between atoms: C_5  and  C_6
REMARK    3  A    between atoms: C_12  and  C_13
REMARK    4  A    between atoms: C_13  and  N_14
REMARK    5  A    between atoms: N_17  and  C_18
REMARK                            x       y       z     vdW  Elec       q    Type
REMARK                         _______ _______ _______ _____ _____    ______ ____
ROOT
ATOM      1  N   UNL     1       2.835   7.864  17.835  0.00  0.00    +0.000 N 
ATOM      2  C   UNL     1       1.884   8.530  18.572  0.00  0.00    +0.000 C 
ATOM      3  O   UNL     1       1.708   8.294  19.761  0.00  0.00    +0.000 OA
ATOM      4  N   UNL     1       1.173   9.436  17.822  0.00  0.00    +0.000 N 
ATOM      5  H   UNL     1       3.220   8.349  17.040  0.00  0.00    +0.000 HD
ATOM      6  H   UNL     1       1.137   9.272  16.823  0.00  0.00    +0.000 HD
ENDROOT
BRANCH   4   7
ATOM      7  C   UNL     1       0.192  10.311  18.344  0.00  0.00    +0.000 A 
ATOM      8  C   UNL     1       0.466  11.276  19.320  0.00  0.00    +0.000 A 
ATOM      9  C   UNL     1      -0.555  12.084  19.826  0.00  0.00    +0.000 A 
ATOM     10  C   UNL     1      -1.850  11.937  19.343  0.00  0.00    +0.000 A 
ATOM     11  F   UNL     1      -2.826  12.708  19.840  0.00  0.00    +0.000 F 
ATOM     12  C   UNL     1      -2.143  11.010  18.353  0.00  0.00    +0.000 A 
ATOM     13  C   UNL     1      -1.119  10.210  17.858  0.00  0.00    +0.000 A 
ATOM     14  F   UNL     1      -1.405   9.302  16.909  0.00  0.00    +0.000 F 
ENDBRANCH   4   7
BRANCH   1  15
ATOM     15  C   UNL     1       3.709   6.920  18.504  0.00  0.00    +0.000 C 
BRANCH  15  21
ATOM     16  C   UNL     1       5.282   6.540  15.526  0.00  0.00    +0.000 C 
ATOM     17  C   UNL     1       4.666   5.595  16.477  0.00  0.00    +0.000 A 
ATOM     18  O   UNL     1       4.753   4.288  16.133  0.00  0.00    +0.000 OA
ATOM     19  N   UNL     1       4.122   3.514  17.072  0.00  0.00    +0.000 NA
ATOM     20  C   UNL     1       3.621   4.354  17.992  0.00  0.00    +0.000 A 
ATOM     21  C   UNL     1       3.993   5.713  17.681  0.00  0.00    +0.000 A 
BRANCH  20  22
ATOM     22  C   UNL     1       2.838   3.824  19.118  0.00  0.00    +0.000 A 
ATOM     23  C   UNL     1       1.447   4.013  19.160  0.00  0.00    +0.000 A 
ATOM     24  C   UNL     1       0.689   3.529  20.230  0.00  0.00    +0.000 A 
ATOM     25  C   UNL     1       1.307   2.839  21.270  0.00  0.00    +0.000 A 
ATOM     26  C   UNL     1       2.685   2.656  21.252  0.00  0.00    +0.000 A 
ATOM     27  C   UNL     1       3.446   3.164  20.195  0.00  0.00    +0.000 A 
ENDBRANCH  20  22
ENDBRANCH  15  21
ENDBRANCH   1  15
TORSDOF 4
ENDMDL
MODEL 6
REMARK VINA RESULT:      -8.3      2.236      4.057
REMARK  Name = 
REMARK  5 active torsions:
REMARK  status: ('A' for Active; 'I' for Inactive)
REMARK    1  A    between atoms: C_1  and  C_2
REMARK    2  A    between atoms: C_5  and  C_6
REMARK    3  A    between atoms: C_12  and  C_13
REMARK    4  A    between atoms: C_13  and  N_14
REMARK    5  A    between atoms: N_17  and  C_18
REMARK                            x       y       z     vdW  Elec       q    Type
REMARK                         _______ _______ _______ _____ _____    ______ ____
ROOT
ATOM      1  N   UNL     1       2.933   7.022  18.947  0.00  0.00    +0.000 N 
ATOM      2  C   UNL     1       1.972   7.730  19.629  0.00  0.00    +0.000 C 
ATOM      3  O   UNL     1       1.512   7.335  20.692  0.00  0.00    +0.000 OA
ATOM      4  N   UNL     1       1.596   8.877  18.973  0.00  0.00    +0.000 N 
ATOM      5  H   UNL     1       3.553   7.548  18.351  0.00  0.00    +0.000 HD
ATOM      6  H   UNL     1       1.746   8.899  17.971  0.00  0.00    +0.000 HD
ENDROOT
BRANCH   4   7
ATOM      7  C   UNL     1       0.686   9.831  19.485  0.00  0.00    +0.000 A 
ATOM      8  C   UNL     1       0.833  10.434  20.740  0.00  0.00    +0.000 A 
ATOM      9  C   UNL     1      -0.123  11.339  21.209  0.00  0.00    +0.000 A 
ATOM     10  C   UNL     1      -1.219  11.653  20.415  0.00  0.00    +0.000 A 
ATOM     11  F   UNL     1      -2.136  12.514  20.875  0.00  0.00    +0.000 F 
ATOM     12  C   UNL     1      -1.372  11.094  19.154  0.00  0.00    +0.000 A 
ATOM     13  C   UNL     1      -0.416  10.193  18.698  0.00  0.00    +0.000 A 
ATOM     14  F   UNL     1      -0.571   9.640  17.483  0.00  0.00    +0.000 F 
ENDBRANCH   4   7
BRANCH   1  15
ATOM     15  C   UNL     1       3.478   5.819  19.547  0.00  0.00    +0.000 C 
BRANCH  15  21
ATOM     16  C   UNL     1       0.827   3.810  20.197  0.00  0.00    +0.000 C 
ATOM     17  C   UNL     1       1.884   3.795  19.168  0.00  0.00    +0.000 A 
ATOM     18  O   UNL     1       1.792   2.796  18.257  0.00  0.00    +0.000 OA
ATOM     19  N   UNL     1       2.840   2.868  17.377  0.00  0.00    +0.000 NA
ATOM     20  C   UNL     1       3.599   3.906  17.763  0.00  0.00    +0.000 A 
ATOM     21  C   UNL     1       2.993   4.575  18.888  0.00  0.00    +0.000 A 
BRANCH  20  22
ATOM     22  C   UNL     1       4.840   4.216  17.036  0.00  0.00    +0.000 A 
ATOM     23  C   UNL     1       4.825   4.334  15.637  0.00  0.00    +0.000 A 
ATOM     24  C   UNL     1       5.998   4.614  14.929  0.00  0.00    +0.000 A 
ATOM     25  C   UNL     1       7.200   4.790  15.607  0.00  0.00    +0.000 A 
ATOM     26  C   UNL     1       7.235   4.662  16.992  0.00  0.00    +0.000 A 
ATOM     27  C   UNL     1       6.068   4.356  17.697  0.00  0.00    +0.000 A 
ENDBRANCH  20  22
ENDBRANCH  15  21
ENDBRANCH   1  15
TORSDOF 4
ENDMDL
MODEL 7
REMARK VINA RESULT:      -8.2      1.639      1.756
REMARK  Name = 
REMARK  5 active torsions:
REMARK  status: ('A' for Active; 'I' for Inactive)
REMARK    1  A    between atoms: C_1  and  C_2
REMARK    2  A    between atoms: C_5  and  C_6
REMARK    3  A    between atoms: C_12  and  C_13
REMARK    4  A    between atoms: C_13  and  N_14
REMARK    5  A    between atoms: N_17  and  C_18
REMARK                            x       y       z     vdW  Elec       q    Type
REMARK                         _______ _______ _______ _____ _____    ______ ____
ROOT
ATOM      1  N   UNL     1       3.276   7.679  17.756  0.00  0.00    +0.000 N 
ATOM      2  C   UNL     1       2.219   8.273  18.405  0.00  0.00    +0.000 C 
ATOM      3  O   UNL     1       1.870   7.924  19.525  0.00  0.00    +0.000 OA
ATOM      4  N   UNL     1       1.618   9.251  17.649  0.00  0.00    +0.000 N 
ATOM      5  H   UNL     1       3.770   8.238  17.078  0.00  0.00    +0.000 HD
ATOM      6  H   UNL     1       1.733   9.186  16.644  0.00  0.00    +0.000 HD
ENDROOT
BRANCH   4   7
ATOM      7  C   UNL     1       0.561  10.075  18.101  0.00  0.00    +0.000 A 
ATOM      8  C   UNL     1      -0.790   9.754  17.927  0.00  0.00    +0.000 A 
ATOM      9  C   UNL     1      -1.789  10.630  18.358  0.00  0.00    +0.000 A 
ATOM     10  C   UNL     1      -1.436  11.822  18.980  0.00  0.00    +0.000 A 
ATOM     11  F   UNL     1      -2.399  12.661  19.382  0.00  0.00    +0.000 F 
ATOM     12  C   UNL     1      -0.105  12.150  19.193  0.00  0.00    +0.000 A 
ATOM     13  C   UNL     1       0.882  11.271  18.758  0.00  0.00    +0.000 A 
ATOM     14  F   UNL     1       2.171  11.595  18.952  0.00  0.00    +0.000 F 
ENDBRANCH   4   7
BRANCH   1  15
ATOM     15  C   UNL     1       4.052   6.671  18.453  0.00  0.00    +0.000 C 
BRANCH  15  21
ATOM     16  C   UNL     1       5.500   6.028  15.458  0.00  0.00    +0.000 C 
ATOM     17  C   UNL     1       4.822   5.183  16.460  0.00  0.00    +0.000 A 
ATOM     18  O   UNL     1       4.773   3.862  16.167  0.00  0.00    +0.000 OA
ATOM     19  N   UNL     1       4.096   3.189  17.150  0.00  0.00    +0.000 NA
ATOM     20  C   UNL     1       3.702   4.109  18.047  0.00  0.00    +0.000 A 
ATOM     21  C   UNL     1       4.196   5.412  17.673  0.00  0.00    +0.000 A 
BRANCH  20  22
ATOM     22  C   UNL     1       2.902   3.700  19.211  0.00  0.00    +0.000 A 
ATOM     23  C   UNL     1       3.493   2.960  20.248  0.00  0.00    +0.000 A 
ATOM     24  C   UNL     1       2.743   2.551  21.355  0.00  0.00    +0.000 A 
ATOM     25  C   UNL     1       1.395   2.882  21.448  0.00  0.00    +0.000 A 
ATOM     26  C   UNL     1       0.790   3.603  20.423  0.00  0.00    +0.000 A 
ATOM     27  C   UNL     1       1.533   3.988  19.304  0.00  0.00    +0.000 A 
ENDBRANCH  20  22
ENDBRANCH  15  21
ENDBRANCH   1  15
TORSDOF 4
ENDMDL
MODEL 8
REMARK VINA RESULT:      -8.2      2.228      3.929
REMARK  Name = 
REMARK  5 active torsions:
REMARK  status: ('A' for Active; 'I' for Inactive)
REMARK    1  A    between atoms: C_1  and  C_2
REMARK    2  A    between atoms: C_5  and  C_6
REMARK    3  A    between atoms: C_12  and  C_13
REMARK    4  A    between atoms: C_13  and  N_14
REMARK    5  A    between atoms: N_17  and  C_18
REMARK                            x       y       z     vdW  Elec       q    Type
REMARK                         _______ _______ _______ _____ _____    ______ ____
ROOT
ATOM      1  N   UNL     1       2.781   7.143  18.372  0.00  0.00    +0.000 N 
ATOM      2  C   UNL     1       1.989   8.100  18.962  0.00  0.00    +0.000 C 
ATOM      3  O   UNL     1       1.696   8.053  20.150  0.00  0.00    +0.000 OA
ATOM      4  N   UNL     1       1.568   9.059  18.072  0.00  0.00    +0.000 N 
ATOM      5  H   UNL     1       3.317   7.426  17.567  0.00  0.00    +0.000 HD
ATOM      6  H   UNL     1       1.546   8.795  17.094  0.00  0.00    +0.000 HD
ENDROOT
BRANCH   4   7
ATOM      7  C   UNL     1       0.811  10.200  18.425  0.00  0.00    +0.000 A 
ATOM      8  C   UNL     1       1.335  11.273  19.155  0.00  0.00    +0.000 A 
ATOM      9  C   UNL     1       0.524  12.354  19.510  0.00  0.00    +0.000 A 
ATOM     10  C   UNL     1      -0.809  12.370  19.117  0.00  0.00    +0.000 A 
ATOM     11  F   UNL     1      -1.582  13.406  19.468  0.00  0.00    +0.000 F 
ATOM     12  C   UNL     1      -1.345  11.335  18.365  0.00  0.00    +0.000 A 
ATOM     13  C   UNL     1      -0.530  10.262  18.020  0.00  0.00    +0.000 A 
ATOM     14  F   UNL     1      -1.053   9.253  17.303  0.00  0.00    +0.000 F 
ENDBRANCH   4   7
BRANCH   1  15
ATOM     15  C   UNL     1       3.355   6.099  19.198  0.00  0.00    +0.000 C 
BRANCH  15  21
ATOM     16  C   UNL     1       0.873   4.020  20.199  0.00  0.00    +0.000 C 
ATOM     17  C   UNL     1       1.926   3.923  19.169  0.00  0.00    +0.000 A 
ATOM     18  O   UNL     1       1.910   2.788  18.430  0.00  0.00    +0.000 OA
ATOM     19  N   UNL     1       2.948   2.799  17.534  0.00  0.00    +0.000 NA
ATOM     20  C   UNL     1       3.624   3.942  17.740  0.00  0.00    +0.000 A 
ATOM     21  C   UNL     1       2.969   4.732  18.753  0.00  0.00    +0.000 A 
BRANCH  20  22
ATOM     22  C   UNL     1       4.834   4.227  16.955  0.00  0.00    +0.000 A 
ATOM     23  C   UNL     1       6.075   4.361  17.597  0.00  0.00    +0.000 A 
ATOM     24  C   UNL     1       7.233   4.647  16.868  0.00  0.00    +0.000 A 
ATOM     25  C   UNL     1       7.171   4.794  15.485  0.00  0.00    +0.000 A 
ATOM     26  C   UNL     1       5.948   4.679  14.834  0.00  0.00    +0.000 A 
ATOM     27  C   UNL     1       4.786   4.420  15.567  0.00  0.00    +0.000 A 
ENDBRANCH  20  22
ENDBRANCH  15  21
ENDBRANCH   1  15
TORSDOF 4
ENDMDL
MODEL 9
REMARK VINA RESULT:      -8.2      2.202      3.918
REMARK  Name = 
REMARK  5 active torsions:
REMARK  status: ('A' for Active; 'I' for Inactive)
REMARK    1  A    between atoms: C_1  and  C_2
REMARK    2  A    between atoms: C_5  and  C_6
REMARK    3  A    between atoms: C_12  and  C_13
REMARK    4  A    between atoms: C_13  and  N_14
REMARK    5  A    between atoms: N_17  and  C_18
REMARK                            x       y       z     vdW  Elec       q    Type
REMARK                         _______ _______ _______ _____ _____    ______ ____
ROOT
ATOM      1  N   UNL     1       2.660   7.024  18.519  0.00  0.00    +0.000 N 
ATOM      2  C   UNL     1       1.977   8.052  19.125  0.00  0.00    +0.000 C 
ATOM      3  O   UNL     1       1.816   8.093  20.338  0.00  0.00    +0.000 OA
ATOM      4  N   UNL     1       1.500   8.973  18.224  0.00  0.00    +0.000 N 
ATOM      5  H   UNL     1       3.114   7.230  17.643  0.00  0.00    +0.000 HD
ATOM      6  H   UNL     1       1.359   8.650  17.274  0.00  0.00    +0.000 HD
ENDROOT
BRANCH   4   7
ATOM      7  C   UNL     1       0.833  10.168  18.579  0.00  0.00    +0.000 A 
ATOM      8  C   UNL     1      -0.483  10.201  19.054  0.00  0.00    +0.000 A 
ATOM      9  C   UNL     1      -1.102  11.418  19.347  0.00  0.00    +0.000 A 
ATOM     10  C   UNL     1      -0.398  12.605  19.182  0.00  0.00    +0.000 A 
ATOM     11  F   UNL     1      -1.001  13.768  19.457  0.00  0.00    +0.000 F 
ATOM     12  C   UNL     1       0.918  12.599  18.743  0.00  0.00    +0.000 A 
ATOM     13  C   UNL     1       1.525  11.382  18.451  0.00  0.00    +0.000 A 
ATOM     14  F   UNL     1       2.794  11.377  18.013  0.00  0.00    +0.000 F 
ENDBRANCH   4   7
BRANCH   1  15
ATOM     15  C   UNL     1       3.279   6.007  19.346  0.00  0.00    +0.000 C 
BRANCH  15  21
ATOM     16  C   UNL     1       0.851   3.826  20.258  0.00  0.00    +0.000 C 
ATOM     17  C   UNL     1       1.946   3.772  19.270  0.00  0.00    +0.000 A 
ATOM     18  O   UNL     1       2.008   2.636  18.535  0.00  0.00    +0.000 OA
ATOM     19  N   UNL     1       3.078   2.689  17.680  0.00  0.00    +0.000 NA
ATOM     20  C   UNL     1       3.696   3.861  17.907  0.00  0.00    +0.000 A 
ATOM     21  C   UNL     1       2.969   4.624  18.892  0.00  0.00    +0.000 A 
BRANCH  20  22
ATOM     22  C   UNL     1       4.922   4.196  17.168  0.00  0.00    +0.000 A 
ATOM     23  C   UNL     1       4.902   4.267  15.766  0.00  0.00    +0.000 A 
ATOM     24  C   UNL     1       6.063   4.570  15.046  0.00  0.00    +0.000 A 
ATOM     25  C   UNL     1       7.257   4.816  15.717  0.00  0.00    +0.000 A 
ATOM     26  C   UNL     1       7.298   4.735  17.105  0.00  0.00    +0.000 A 
ATOM     27  C   UNL     1       6.144   4.406  17.822  0.00  0.00    +0.000 A 
ENDBRANCH  20  22
ENDBRANCH  15  21
ENDBRANCH   1  15
TORSDOF 4
ENDMDL
