MODEL 1
REMARK VINA RESULT:      -8.4      0.000      0.000
REMARK  Name = 
REMARK  5 active torsions:
REMARK  status: ('A' for Active; 'I' for Inactive)
REMARK    1  A    between atoms: C_4  and  C_5
REMARK    2  A    between atoms: C_5  and  N_6
REMARK    3  A    between atoms: C_10  and  C_11
REMARK    4  A    between atoms: C_18  and  C_19
REMARK    5  A    between atoms: C_18  and  C_25
REMARK                            x       y       z     vdW  Elec       q    Type
REMARK                         _______ _______ _______ _____ _____    ______ ____
ROOT
ATOM      1  O   UNL     1       1.611  12.075  18.433  0.00  0.00    +0.000 OA
ATOM      2  C   UNL     1       1.498  10.857  18.438  0.00  0.00    +0.000 C 
ATOM      3  O   UNL     1       2.547  10.055  18.106  0.00  0.00    +0.000 OA
ATOM      4  C   UNL     1       2.229   8.686  18.348  0.00  0.00    +0.000 C 
ATOM      5  C   UNL     1       0.721   8.656  18.299  0.00  0.00    +0.000 C 
ATOM      6  C   UNL     1       0.272  10.022  18.875  0.00  0.00    +0.000 C 
ENDROOT
BRANCH   6   7
ATOM      7  C   UNL     1       0.166   9.924  20.412  0.00  0.00    +0.000 A 
ATOM      8  C   UNL     1       0.219   8.690  21.088  0.00  0.00    +0.000 A 
ATOM      9  C   UNL     1      -0.059   8.597  22.455  0.00  0.00    +0.000 A 
ATOM     10  C   UNL     1      -0.373   9.738  23.184  0.00  0.00    +0.000 A 
ATOM     11  C   UNL     1      -0.374  10.977  22.553  0.00  0.00    +0.000 A 
ATOM     12  C   UNL     1      -0.094  11.072  21.187  0.00  0.00    +0.000 A 
ENDBRANCH   6   7
BRANCH   6  13
ATOM     13  C   UNL     1      -1.028  10.470  18.166  0.00  0.00    +0.000 A 
ATOM     14  C   UNL     1      -1.838  11.491  18.706  0.00  0.00    +0.000 A 
ATOM     15  C   UNL     1      -3.115  11.753  18.203  0.00  0.00    +0.000 A 
ATOM     16  C   UNL     1      -3.600  11.025  17.124  0.00  0.00    +0.000 A 
ATOM     17  C   UNL     1      -2.790  10.069  16.522  0.00  0.00    +0.000 A 
ATOM     18  C   UNL     1      -1.510   9.811  17.023  0.00  0.00    +0.000 A 
ENDBRANCH   6  13
BRANCH   4  19
ATOM     19  C   UNL     1       2.817   7.826  17.228  0.00  0.00    +0.000 C 
BRANCH  19  20
ATOM     20  N   UNL     1       4.000   7.049  17.537  0.00  0.00    +0.000 N 
ATOM     21  C   UNL     1       5.287   7.381  17.202  0.00  0.00    +0.000 A 
ATOM     22  C   UNL     1       6.060   6.345  17.655  0.00  0.00    +0.000 A 
ATOM     23  N   UNL     1       5.288   5.418  18.292  0.00  0.00    +0.000 NA
ATOM     24  C   UNL     1       4.030   5.831  18.202  0.00  0.00    +0.000 A 
BRANCH  24  25
ATOM     25  C   UNL     1       2.895   5.093  18.792  0.00  0.00    +0.000 A 
ATOM     26  C   UNL     1       2.488   5.433  20.093  0.00  0.00    +0.000 A 
ATOM     27  C   UNL     1       1.434   4.763  20.722  0.00  0.00    +0.000 A 
ATOM     28  C   UNL     1       0.759   3.744  20.056  0.00  0.00    +0.000 A 
ATOM     29  C   UNL     1       1.154   3.378  18.775  0.00  0.00    +0.000 A 
ATOM     30  C   UNL     1       2.232   4.032  18.163  0.00  0.00    +0.000 A 
ENDBRANCH  24  25
ENDBRANCH  19  20
ENDBRANCH   4  19
TORSDOF 5
ENDMDL
MODEL 2
REMARK VINA RESULT:      -8.3      0.189      1.251
REMARK  Name = 
REMARK  5 active torsions:
REMARK  status: ('A' for Active; 'I' for Inactive)
REMARK    1  A    between atoms: C_4  and  C_5
REMARK    2  A    between atoms: C_5  and  N_6
REMARK    3  A    between atoms: C_10  and  C_11
REMARK    4  A    between atoms: C_18  and  C_19
REMARK    5  A    between atoms: C_18  and  C_25
REMARK                            x       y       z     vdW  Elec       q    Type
REMARK                         _______ _______ _______ _____ _____    ______ ____
ROOT
ATOM      1  O   UNL     1       1.360  12.031  18.352  0.00  0.00    +0.000 OA
ATOM      2  C   UNL     1       1.313  10.809  18.394  0.00  0.00    +0.000 C 
ATOM      3  O   UNL     1       2.398  10.056  18.062  0.00  0.00    +0.000 OA
ATOM      4  C   UNL     1       2.159   8.679  18.349  0.00  0.00    +0.000 C 
ATOM      5  C   UNL     1       0.655   8.566  18.331  0.00  0.00    +0.000 C 
ATOM      6  C   UNL     1       0.143   9.922  18.878  0.00  0.00    +0.000 C 
ENDROOT
BRANCH   6   7
ATOM      7  C   UNL     1       0.071   9.863  20.419  0.00  0.00    +0.000 A 
ATOM      8  C   UNL     1       0.038   8.641  21.120  0.00  0.00    +0.000 A 
ATOM      9  C   UNL     1      -0.209   8.599  22.495  0.00  0.00    +0.000 A 
ATOM     10  C   UNL     1      -0.406   9.776  23.207  0.00  0.00    +0.000 A 
ATOM     11  C   UNL     1      -0.319  10.999  22.551  0.00  0.00    +0.000 A 
ATOM     12  C   UNL     1      -0.069  11.043  21.176  0.00  0.00    +0.000 A 
ENDBRANCH   6   7
BRANCH   6  13
ATOM     13  C   UNL     1      -1.193  10.279  18.184  0.00  0.00    +0.000 A 
ATOM     14  C   UNL     1      -1.534   9.726  16.931  0.00  0.00    +0.000 A 
ATOM     15  C   UNL     1      -2.622  10.203  16.195  0.00  0.00    +0.000 A 
ATOM     16  C   UNL     1      -3.418  11.218  16.708  0.00  0.00    +0.000 A 
ATOM     17  C   UNL     1      -3.152  11.724  17.977  0.00  0.00    +0.000 A 
ATOM     18  C   UNL     1      -2.066  11.243  18.715  0.00  0.00    +0.000 A 
ENDBRANCH   6  13
BRANCH   4  19
ATOM     19  C   UNL     1       2.772   7.820  17.242  0.00  0.00    +0.000 C 
BRANCH  19  20
ATOM     20  N   UNL     1       3.974   7.077  17.563  0.00  0.00    +0.000 N 
ATOM     21  C   UNL     1       5.252   7.431  17.217  0.00  0.00    +0.000 A 
ATOM     22  C   UNL     1       6.049   6.422  17.690  0.00  0.00    +0.000 A 
ATOM     23  N   UNL     1       5.300   5.492  18.350  0.00  0.00    +0.000 NA
ATOM     24  C   UNL     1       4.033   5.874  18.255  0.00  0.00    +0.000 A 
BRANCH  24  25
ATOM     25  C   UNL     1       2.916   5.124  18.865  0.00  0.00    +0.000 A 
ATOM     26  C   UNL     1       2.295   4.124  18.099  0.00  0.00    +0.000 A 
ATOM     27  C   UNL     1       1.219   3.387  18.604  0.00  0.00    +0.000 A 
ATOM     28  C   UNL     1       0.749   3.631  19.891  0.00  0.00    +0.000 A 
ATOM     29  C   UNL     1       1.336   4.628  20.661  0.00  0.00    +0.000 A 
ATOM     30  C   UNL     1       2.394   5.384  20.138  0.00  0.00    +0.000 A 
ENDBRANCH  24  25
ENDBRANCH  19  20
ENDBRANCH   4  19
TORSDOF 5
ENDMDL
MODEL 3
REMARK VINA RESULT:      -8.1      3.596      6.794
REMARK  Name = 
REMARK  5 active torsions:
REMARK  status: ('A' for Active; 'I' for Inactive)
REMARK    1  A    between atoms: C_4  and  C_5
REMARK    2  A    between atoms: C_5  and  N_6
REMARK    3  A    between atoms: C_10  and  C_11
REMARK    4  A    between atoms: C_18  and  C_19
REMARK    5  A    between atoms: C_18  and  C_25
REMARK                            x       y       z     vdW  Elec       q    Type
REMARK                         _______ _______ _______ _____ _____    ______ ____
ROOT
ATOM      1  O   UNL     1       0.780   3.784  17.465  0.00  0.00    +0.000 OA
ATOM      2  C   UNL     1       1.976   4.038  17.511  0.00  0.00    +0.000 C 
ATOM      3  O   UNL     1       2.764   3.893  16.410  0.00  0.00    +0.000 OA
ATOM      4  C   UNL     1       4.072   4.406  16.658  0.00  0.00    +0.000 C 
ATOM      5  C   UNL     1       4.201   4.341  18.160  0.00  0.00    +0.000 C 
ATOM      6  C   UNL     1       2.776   4.618  18.700  0.00  0.00    +0.000 C 
ENDROOT
BRANCH   6   7
ATOM      7  C   UNL     1       2.564   6.140  18.842  0.00  0.00    +0.000 A 
ATOM      8  C   UNL     1       2.120   6.725  20.044  0.00  0.00    +0.000 A 
ATOM      9  C   UNL     1       1.760   8.074  20.107  0.00  0.00    +0.000 A 
ATOM     10  C   UNL     1       1.857   8.877  18.977  0.00  0.00    +0.000 A 
ATOM     11  C   UNL     1       2.350   8.340  17.793  0.00  0.00    +0.000 A 
ATOM     12  C   UNL     1       2.713   6.991  17.729  0.00  0.00    +0.000 A 
ENDBRANCH   6   7
BRANCH   6  13
ATOM     13  C   UNL     1       2.560   3.813  20.003  0.00  0.00    +0.000 A 
ATOM     14  C   UNL     1       3.561   2.953  20.503  0.00  0.00    +0.000 A 
ATOM     15  C   UNL     1       3.302   2.060  21.546  0.00  0.00    +0.000 A 
ATOM     16  C   UNL     1       2.047   2.029  22.140  0.00  0.00    +0.000 A 
ATOM     17  C   UNL     1       1.067   2.922  21.721  0.00  0.00    +0.000 A 
ATOM     18  C   UNL     1       1.329   3.820  20.680  0.00  0.00    +0.000 A 
ENDBRANCH   6  13
BRANCH   4  19
ATOM     19  C   UNL     1       5.105   3.496  15.994  0.00  0.00    +0.000 C 
BRANCH  19  20
ATOM     20  N   UNL     1       6.016   4.104  15.045  0.00  0.00    +0.000 N 
ATOM     21  C   UNL     1       6.032   3.881  13.693  0.00  0.00    +0.000 A 
ATOM     22  C   UNL     1       7.076   4.627  13.213  0.00  0.00    +0.000 A 
ATOM     23  N   UNL     1       7.664   5.329  14.225  0.00  0.00    +0.000 NA
ATOM     24  C   UNL     1       7.037   4.995  15.346  0.00  0.00    +0.000 A 
BRANCH  24  25
ATOM     25  C   UNL     1       7.383   5.566  16.664  0.00  0.00    +0.000 A 
ATOM     26  C   UNL     1       7.442   6.964  16.785  0.00  0.00    +0.000 A 
ATOM     27  C   UNL     1       7.781   7.573  17.997  0.00  0.00    +0.000 A 
ATOM     28  C   UNL     1       8.062   6.793  19.115  0.00  0.00    +0.000 A 
ATOM     29  C   UNL     1       8.027   5.408  19.015  0.00  0.00    +0.000 A 
ATOM     30  C   UNL     1       7.716   4.803  17.790  0.00  0.00    +0.000 A 
ENDBRANCH  24  25
ENDBRANCH  19  20
ENDBRANCH   4  19
TORSDOF 5
ENDMDL
MODEL 4
REMARK VINA RESULT:      -8.0      1.871      4.514
REMARK  Name = 
REMARK  5 active torsions:
REMARK  status: ('A' for Active; 'I' for Inactive)
REMARK    1  A    between atoms: C_4  and  C_5
REMARK    2  A    between atoms: C_5  and  N_6
REMARK    3  A    between atoms: C_10  and  C_11
REMARK    4  A    between atoms: C_18  and  C_19
REMARK    5  A    between atoms: C_18  and  C_25
REMARK                            x       y       z     vdW  Elec       q    Type
REMARK                         _______ _______ _______ _____ _____    ______ ____
ROOT
ATOM      1  O   UNL     1       0.724   9.904  21.430  0.00  0.00    +0.000 OA
ATOM      2  C   UNL     1       1.017   9.687  20.262  0.00  0.00    +0.000 C 
ATOM      3  O   UNL     1       1.534   8.485  19.882  0.00  0.00    +0.000 OA
ATOM      4  C   UNL     1       1.634   8.408  18.461  0.00  0.00    +0.000 C 
ATOM      5  C   UNL     1       1.690   9.853  18.029  0.00  0.00    +0.000 C 
ATOM      6  C   UNL     1       0.799  10.612  19.043  0.00  0.00    +0.000 C 
ENDROOT
BRANCH   6   7
ATOM      7  C   UNL     1      -0.668  10.586  18.561  0.00  0.00    +0.000 A 
ATOM      8  C   UNL     1      -1.079   9.812  17.458  0.00  0.00    +0.000 A 
ATOM      9  C   UNL     1      -2.364   9.937  16.922  0.00  0.00    +0.000 A 
ATOM     10  C   UNL     1      -3.276  10.819  17.488  0.00  0.00    +0.000 A 
ATOM     11  C   UNL     1      -2.915  11.551  18.615  0.00  0.00    +0.000 A 
ATOM     12  C   UNL     1      -1.631  11.426  19.154  0.00  0.00    +0.000 A 
ENDBRANCH   6   7
BRANCH   6  13
ATOM     13  C   UNL     1       1.378  12.029  19.268  0.00  0.00    +0.000 A 
ATOM     14  C   UNL     1       2.006  12.735  18.221  0.00  0.00    +0.000 A 
ATOM     15  C   UNL     1       2.723  13.910  18.460  0.00  0.00    +0.000 A 
ATOM     16  C   UNL     1       2.801  14.428  19.746  0.00  0.00    +0.000 A 
ATOM     17  C   UNL     1       2.122  13.796  20.782  0.00  0.00    +0.000 A 
ATOM     18  C   UNL     1       1.401  12.622  20.542  0.00  0.00    +0.000 A 
ENDBRANCH   6  13
BRANCH   4  19
ATOM     19  C   UNL     1       2.929   7.687  18.086  0.00  0.00    +0.000 C 
BRANCH  19  20
ATOM     20  N   UNL     1       2.890   6.240  18.020  0.00  0.00    +0.000 N 
ATOM     21  C   UNL     1       1.762   5.473  17.888  0.00  0.00    +0.000 A 
ATOM     22  C   UNL     1       2.198   4.175  17.914  0.00  0.00    +0.000 A 
ATOM     23  N   UNL     1       3.559   4.132  18.013  0.00  0.00    +0.000 NA
ATOM     24  C   UNL     1       3.983   5.387  18.101  0.00  0.00    +0.000 A 
BRANCH  24  25
ATOM     25  C   UNL     1       5.410   5.751  18.207  0.00  0.00    +0.000 A 
ATOM     26  C   UNL     1       6.133   5.283  19.317  0.00  0.00    +0.000 A 
ATOM     27  C   UNL     1       7.482   5.604  19.492  0.00  0.00    +0.000 A 
ATOM     28  C   UNL     1       8.139   6.394  18.553  0.00  0.00    +0.000 A 
ATOM     29  C   UNL     1       7.440   6.883  17.455  0.00  0.00    +0.000 A 
ATOM     30  C   UNL     1       6.080   6.583  17.302  0.00  0.00    +0.000 A 
ENDBRANCH  24  25
ENDBRANCH  19  20
ENDBRANCH   4  19
TORSDOF 5
ENDMDL
MODEL 5
REMARK VINA RESULT:      -8.0      1.945      4.422
REMARK  Name = 
REMARK  5 active torsions:
REMARK  status: ('A' for Active; 'I' for Inactive)
REMARK    1  A    between atoms: C_4  and  C_5
REMARK    2  A    between atoms: C_5  and  N_6
REMARK    3  A    between atoms: C_10  and  C_11
REMARK    4  A    between atoms: C_18  and  C_19
REMARK    5  A    between atoms: C_18  and  C_25
REMARK                            x       y       z     vdW  Elec       q    Type
REMARK                         _______ _______ _______ _____ _____    ______ ____
ROOT
ATOM      1  O   UNL     1       0.591  11.100  21.452  0.00  0.00    +0.000 OA
ATOM      2  C   UNL     1       0.820  10.492  20.416  0.00  0.00    +0.000 C 
ATOM      3  O   UNL     1       1.298   9.216  20.444  0.00  0.00    +0.000 OA
ATOM      4  C   UNL     1       1.326   8.662  19.131  0.00  0.00    +0.000 C 
ATOM      5  C   UNL     1       1.385   9.873  18.233  0.00  0.00    +0.000 C 
ATOM      6  C   UNL     1       0.557  10.959  18.966  0.00  0.00    +0.000 C 
ENDROOT
BRANCH   6   7
ATOM      7  C   UNL     1      -0.932  10.819  18.582  0.00  0.00    +0.000 A 
ATOM      8  C   UNL     1      -1.356  10.000  17.518  0.00  0.00    +0.000 A 
ATOM      9  C   UNL     1      -2.679  10.023  17.067  0.00  0.00    +0.000 A 
ATOM     10  C   UNL     1      -3.614  10.847  17.682  0.00  0.00    +0.000 A 
ATOM     11  C   UNL     1      -3.235  11.620  18.773  0.00  0.00    +0.000 A 
ATOM     12  C   UNL     1      -1.913  11.597  19.228  0.00  0.00    +0.000 A 
ENDBRANCH   6   7
BRANCH   6  13
ATOM     13  C   UNL     1       1.171  12.348  18.675  0.00  0.00    +0.000 A 
ATOM     14  C   UNL     1       2.509  12.480  18.247  0.00  0.00    +0.000 A 
ATOM     15  C   UNL     1       3.139  13.726  18.193  0.00  0.00    +0.000 A 
ATOM     16  C   UNL     1       2.437  14.876  18.531  0.00  0.00    +0.000 A 
ATOM     17  C   UNL     1       1.093  14.782  18.877  0.00  0.00    +0.000 A 
ATOM     18  C   UNL     1       0.462  13.535  18.926  0.00  0.00    +0.000 A 
ENDBRANCH   6  13
BRANCH   4  19
ATOM     19  C   UNL     1       2.588   7.815  18.968  0.00  0.00    +0.000 C 
BRANCH  19  20
ATOM     20  N   UNL     1       2.588   6.497  19.570  0.00  0.00    +0.000 N 
ATOM     21  C   UNL     1       1.669   6.028  20.473  0.00  0.00    +0.000 A 
ATOM     22  C   UNL     1       2.087   4.764  20.795  0.00  0.00    +0.000 A 
ATOM     23  N   UNL     1       3.204   4.436  20.083  0.00  0.00    +0.000 NA
ATOM     24  C   UNL     1       3.526   5.497  19.354  0.00  0.00    +0.000 A 
BRANCH  24  25
ATOM     25  C   UNL     1       4.680   5.521  18.432  0.00  0.00    +0.000 A 
ATOM     26  C   UNL     1       4.425   5.497  17.051  0.00  0.00    +0.000 A 
ATOM     27  C   UNL     1       5.468   5.499  16.120  0.00  0.00    +0.000 A 
ATOM     28  C   UNL     1       6.790   5.533  16.554  0.00  0.00    +0.000 A 
ATOM     29  C   UNL     1       7.068   5.538  17.916  0.00  0.00    +0.000 A 
ATOM     30  C   UNL     1       6.018   5.506  18.843  0.00  0.00    +0.000 A 
ENDBRANCH  24  25
ENDBRANCH  19  20
ENDBRANCH   4  19
TORSDOF 5
ENDMDL
MODEL 6
REMARK VINA RESULT:      -8.0      1.987      3.572
REMARK  Name = 
REMARK  5 active torsions:
REMARK  status: ('A' for Active; 'I' for Inactive)
REMARK    1  A    between atoms: C_4  and  C_5
REMARK    2  A    between atoms: C_5  and  N_6
REMARK    3  A    between atoms: C_10  and  C_11
REMARK    4  A    between atoms: C_18  and  C_19
REMARK    5  A    between atoms: C_18  and  C_25
REMARK                            x       y       z     vdW  Elec       q    Type
REMARK                         _______ _______ _______ _____ _____    ______ ____
ROOT
ATOM      1  O   UNL     1      -1.161  11.044  17.919  0.00  0.00    +0.000 OA
ATOM      2  C   UNL     1      -0.252  10.617  18.617  0.00  0.00    +0.000 C 
ATOM      3  O   UNL     1       0.475   9.532  18.231  0.00  0.00    +0.000 OA
ATOM      4  C   UNL     1       1.578   9.327  19.113  0.00  0.00    +0.000 C 
ATOM      5  C   UNL     1       1.144  10.003  20.390  0.00  0.00    +0.000 C 
ATOM      6  C   UNL     1       0.292  11.214  19.935  0.00  0.00    +0.000 C 
ENDROOT
BRANCH   6   7
ATOM      7  C   UNL     1       1.214  12.425  19.676  0.00  0.00    +0.000 A 
ATOM      8  C   UNL     1       1.605  12.803  18.377  0.00  0.00    +0.000 A 
ATOM      9  C   UNL     1       2.579  13.783  18.167  0.00  0.00    +0.000 A 
ATOM     10  C   UNL     1       3.169  14.426  19.250  0.00  0.00    +0.000 A 
ATOM     11  C   UNL     1       2.758  14.114  20.541  0.00  0.00    +0.000 A 
ATOM     12  C   UNL     1       1.781  13.136  20.752  0.00  0.00    +0.000 A 
ENDBRANCH   6   7
BRANCH   6  13
ATOM     13  C   UNL     1      -0.828  11.467  20.972  0.00  0.00    +0.000 A 
ATOM     14  C   UNL     1      -1.872  12.379  20.712  0.00  0.00    +0.000 A 
ATOM     15  C   UNL     1      -2.758  12.780  21.715  0.00  0.00    +0.000 A 
ATOM     16  C   UNL     1      -2.647  12.252  22.994  0.00  0.00    +0.000 A 
ATOM     17  C   UNL     1      -1.678  11.289  23.256  0.00  0.00    +0.000 A 
ATOM     18  C   UNL     1      -0.793  10.885  22.251  0.00  0.00    +0.000 A 
ENDBRANCH   6  13
BRANCH   4  19
ATOM     19  C   UNL     1       1.769   7.827  19.341  0.00  0.00    +0.000 C 
BRANCH  19  20
ATOM     20  N   UNL     1       2.752   7.149  18.520  0.00  0.00    +0.000 N 
ATOM     21  C   UNL     1       3.573   7.743  17.597  0.00  0.00    +0.000 A 
ATOM     22  C   UNL     1       4.295   6.720  17.041  0.00  0.00    +0.000 A 
ATOM     23  N   UNL     1       3.968   5.532  17.628  0.00  0.00    +0.000 NA
ATOM     24  C   UNL     1       3.012   5.785  18.512  0.00  0.00    +0.000 A 
BRANCH  24  25
ATOM     25  C   UNL     1       2.407   4.742  19.365  0.00  0.00    +0.000 A 
ATOM     26  C   UNL     1       1.452   3.888  18.790  0.00  0.00    +0.000 A 
ATOM     27  C   UNL     1       0.823   2.891  19.542  0.00  0.00    +0.000 A 
ATOM     28  C   UNL     1       1.145   2.724  20.886  0.00  0.00    +0.000 A 
ATOM     29  C   UNL     1       2.074   3.569  21.482  0.00  0.00    +0.000 A 
ATOM     30  C   UNL     1       2.677   4.585  20.730  0.00  0.00    +0.000 A 
ENDBRANCH  24  25
ENDBRANCH  19  20
ENDBRANCH   4  19
TORSDOF 5
ENDMDL
MODEL 7
REMARK VINA RESULT:      -7.9      2.227      7.387
REMARK  Name = 
REMARK  5 active torsions:
REMARK  status: ('A' for Active; 'I' for Inactive)
REMARK    1  A    between atoms: C_4  and  C_5
REMARK    2  A    between atoms: C_5  and  N_6
REMARK    3  A    between atoms: C_10  and  C_11
REMARK    4  A    between atoms: C_18  and  C_19
REMARK    5  A    between atoms: C_18  and  C_25
REMARK                            x       y       z     vdW  Elec       q    Type
REMARK                         _______ _______ _______ _____ _____    ______ ____
ROOT
ATOM      1  O   UNL     1       2.441   6.308  21.126  0.00  0.00    +0.000 OA
ATOM      2  C   UNL     1       2.354   6.768  19.996  0.00  0.00    +0.000 C 
ATOM      3  O   UNL     1       1.905   8.038  19.791  0.00  0.00    +0.000 OA
ATOM      4  C   UNL     1       2.051   8.406  18.420  0.00  0.00    +0.000 C 
ATOM      5  C   UNL     1       2.075   7.083  17.696  0.00  0.00    +0.000 C 
ATOM      6  C   UNL     1       2.782   6.104  18.667  0.00  0.00    +0.000 C 
ENDROOT
BRANCH   6   7
ATOM      7  C   UNL     1       4.310   6.182  18.457  0.00  0.00    +0.000 A 
ATOM      8  C   UNL     1       4.879   6.838  17.348  0.00  0.00    +0.000 A 
ATOM      9  C   UNL     1       6.247   6.746  17.073  0.00  0.00    +0.000 A 
ATOM     10  C   UNL     1       7.082   6.016  17.912  0.00  0.00    +0.000 A 
ATOM     11  C   UNL     1       6.554   5.408  19.046  0.00  0.00    +0.000 A 
ATOM     12  C   UNL     1       5.187   5.501  19.324  0.00  0.00    +0.000 A 
ENDBRANCH   6   7
BRANCH   6  13
ATOM     13  C   UNL     1       2.178   4.691  18.494  0.00  0.00    +0.000 A 
ATOM     14  C   UNL     1       1.199   4.202  19.384  0.00  0.00    +0.000 A 
ATOM     15  C   UNL     1       0.808   2.860  19.374  0.00  0.00    +0.000 A 
ATOM     16  C   UNL     1       1.360   1.982  18.451  0.00  0.00    +0.000 A 
ATOM     17  C   UNL     1       2.267   2.456  17.509  0.00  0.00    +0.000 A 
ATOM     18  C   UNL     1       2.654   3.800  17.517  0.00  0.00    +0.000 A 
ENDBRANCH   6  13
BRANCH   4  19
ATOM     19  C   UNL     1       0.837   9.229  17.988  0.00  0.00    +0.000 C 
BRANCH  19  20
ATOM     20  N   UNL     1       0.318  10.197  18.933  0.00  0.00    +0.000 N 
ATOM     21  C   UNL     1       0.952  10.628  20.069  0.00  0.00    +0.000 A 
ATOM     22  C   UNL     1       0.078  11.499  20.665  0.00  0.00    +0.000 A 
ATOM     23  N   UNL     1      -1.046  11.642  19.904  0.00  0.00    +0.000 NA
ATOM     24  C   UNL     1      -0.914  10.833  18.860  0.00  0.00    +0.000 A 
BRANCH  24  25
ATOM     25  C   UNL     1      -1.931  10.721  17.794  0.00  0.00    +0.000 A 
ATOM     26  C   UNL     1      -3.080  11.523  17.887  0.00  0.00    +0.000 A 
ATOM     27  C   UNL     1      -4.091  11.456  16.925  0.00  0.00    +0.000 A 
ATOM     28  C   UNL     1      -3.969  10.588  15.843  0.00  0.00    +0.000 A 
ATOM     29  C   UNL     1      -2.849   9.772  15.739  0.00  0.00    +0.000 A 
ATOM     30  C   UNL     1      -1.853   9.822  16.723  0.00  0.00    +0.000 A 
ENDBRANCH  24  25
ENDBRANCH  19  20
ENDBRANCH   4  19
TORSDOF 5
ENDMDL
MODEL 8
REMARK VINA RESULT:      -7.8      2.553      7.265
REMARK  Name = 
REMARK  5 active torsions:
REMARK  status: ('A' for Active; 'I' for Inactive)
REMARK    1  A    between atoms: C_4  and  C_5
REMARK    2  A    between atoms: C_5  and  N_6
REMARK    3  A    between atoms: C_10  and  C_11
REMARK    4  A    between atoms: C_18  and  C_19
REMARK    5  A    between atoms: C_18  and  C_25
REMARK                            x       y       z     vdW  Elec       q    Type
REMARK                         _______ _______ _______ _____ _____    ______ ____
ROOT
ATOM      1  O   UNL     1       2.614   6.085  21.042  0.00  0.00    +0.000 OA
ATOM      2  C   UNL     1       2.526   6.563  19.920  0.00  0.00    +0.000 C 
ATOM      3  O   UNL     1       2.097   7.843  19.737  0.00  0.00    +0.000 OA
ATOM      4  C   UNL     1       2.239   8.228  18.371  0.00  0.00    +0.000 C 
ATOM      5  C   UNL     1       2.236   6.916  17.627  0.00  0.00    +0.000 C 
ATOM      6  C   UNL     1       2.933   5.911  18.579  0.00  0.00    +0.000 C 
ENDROOT
BRANCH   6   7
ATOM      7  C   UNL     1       4.460   5.966  18.357  0.00  0.00    +0.000 A 
ATOM      8  C   UNL     1       5.368   5.383  19.263  0.00  0.00    +0.000 A 
ATOM      9  C   UNL     1       6.745   5.595  19.148  0.00  0.00    +0.000 A 
ATOM     10  C   UNL     1       7.250   6.373  18.113  0.00  0.00    +0.000 A 
ATOM     11  C   UNL     1       6.380   6.910  17.171  0.00  0.00    +0.000 A 
ATOM     12  C   UNL     1       5.002   6.698  17.283  0.00  0.00    +0.000 A 
ENDBRANCH   6   7
BRANCH   6  13
ATOM     13  C   UNL     1       2.304   4.511  18.389  0.00  0.00    +0.000 A 
ATOM     14  C   UNL     1       1.205   4.094  19.170  0.00  0.00    +0.000 A 
ATOM     15  C   UNL     1       0.770   2.765  19.166  0.00  0.00    +0.000 A 
ATOM     16  C   UNL     1       1.398   1.830  18.356  0.00  0.00    +0.000 A 
ATOM     17  C   UNL     1       2.431   2.233  17.516  0.00  0.00    +0.000 A 
ATOM     18  C   UNL     1       2.863   3.563  17.516  0.00  0.00    +0.000 A 
ENDBRANCH   6  13
BRANCH   4  19
ATOM     19  C   UNL     1       1.037   9.078  17.959  0.00  0.00    +0.000 C 
BRANCH  19  20
ATOM     20  N   UNL     1       1.099  10.499  18.238  0.00  0.00    +0.000 N 
ATOM     21  C   UNL     1       2.239  11.218  18.486  0.00  0.00    +0.000 A 
ATOM     22  C   UNL     1       1.816  12.497  18.735  0.00  0.00    +0.000 A 
ATOM     23  N   UNL     1       0.460  12.585  18.602  0.00  0.00    +0.000 NA
ATOM     24  C   UNL     1       0.017  11.366  18.323  0.00  0.00    +0.000 A 
BRANCH  24  25
ATOM     25  C   UNL     1      -1.409  11.060  18.090  0.00  0.00    +0.000 A 
ATOM     26  C   UNL     1      -2.370  11.842  18.750  0.00  0.00    +0.000 A 
ATOM     27  C   UNL     1      -3.738  11.597  18.592  0.00  0.00    +0.000 A 
ATOM     28  C   UNL     1      -4.171  10.567  17.763  0.00  0.00    +0.000 A 
ATOM     29  C   UNL     1      -3.238   9.768  17.113  0.00  0.00    +0.000 A 
ATOM     30  C   UNL     1      -1.869   9.999  17.299  0.00  0.00    +0.000 A 
ENDBRANCH  24  25
ENDBRANCH  19  20
ENDBRANCH   4  19
TORSDOF 5
ENDMDL
MODEL 9
REMARK VINA RESULT:      -7.8      2.044      4.340
REMARK  Name = 
REMARK  5 active torsions:
REMARK  status: ('A' for Active; 'I' for Inactive)
REMARK    1  A    between atoms: C_4  and  C_5
REMARK    2  A    between atoms: C_5  and  N_6
REMARK    3  A    between atoms: C_10  and  C_11
REMARK    4  A    between atoms: C_18  and  C_19
REMARK    5  A    between atoms: C_18  and  C_25
REMARK                            x       y       z     vdW  Elec       q    Type
REMARK                         _______ _______ _______ _____ _____    ______ ____
ROOT
ATOM      1  O   UNL     1       0.725  10.450  21.822  0.00  0.00    +0.000 OA
ATOM      2  C   UNL     1       1.001   9.970  20.731  0.00  0.00    +0.000 C 
ATOM      3  O   UNL     1       1.384   8.668  20.616  0.00  0.00    +0.000 OA
ATOM      4  C   UNL     1       1.487   8.294  19.243  0.00  0.00    +0.000 C 
ATOM      5  C   UNL     1       1.708   9.606  18.532  0.00  0.00    +0.000 C 
ATOM      6  C   UNL     1       0.898  10.647  19.345  0.00  0.00    +0.000 C 
ENDROOT
BRANCH   6   7
ATOM      7  C   UNL     1      -0.558  10.682  18.833  0.00  0.00    +0.000 A 
ATOM      8  C   UNL     1      -0.970   9.950  17.702  0.00  0.00    +0.000 A 
ATOM      9  C   UNL     1      -2.239  10.131  17.143  0.00  0.00    +0.000 A 
ATOM     10  C   UNL     1      -3.134  11.028  17.713  0.00  0.00    +0.000 A 
ATOM     11  C   UNL     1      -2.773  11.719  18.866  0.00  0.00    +0.000 A 
ATOM     12  C   UNL     1      -1.506  11.538  19.428  0.00  0.00    +0.000 A 
ENDBRANCH   6   7
BRANCH   6  13
ATOM     13  C   UNL     1       1.630  12.009  19.300  0.00  0.00    +0.000 A 
ATOM     14  C   UNL     1       1.574  12.904  20.389  0.00  0.00    +0.000 A 
ATOM     15  C   UNL     1       2.040  14.217  20.280  0.00  0.00    +0.000 A 
ATOM     16  C   UNL     1       2.606  14.657  19.091  0.00  0.00    +0.000 A 
ATOM     17  C   UNL     1       2.748  13.771  18.029  0.00  0.00    +0.000 A 
ATOM     18  C   UNL     1       2.286  12.456  18.140  0.00  0.00    +0.000 A 
ENDBRANCH   6  13
BRANCH   4  19
ATOM     19  C   UNL     1       2.696   7.377  19.060  0.00  0.00    +0.000 C 
BRANCH  19  20
ATOM     20  N   UNL     1       2.629   6.059  19.659  0.00  0.00    +0.000 N 
ATOM     21  C   UNL     1       1.675   5.628  20.544  0.00  0.00    +0.000 A 
ATOM     22  C   UNL     1       2.033   4.346  20.869  0.00  0.00    +0.000 A 
ATOM     23  N   UNL     1       3.147   3.972  20.176  0.00  0.00    +0.000 NA
ATOM     24  C   UNL     1       3.527   5.020  19.456  0.00  0.00    +0.000 A 
BRANCH  24  25
ATOM     25  C   UNL     1       4.697   4.997  18.554  0.00  0.00    +0.000 A 
ATOM     26  C   UNL     1       5.961   5.269  19.101  0.00  0.00    +0.000 A 
ATOM     27  C   UNL     1       7.109   5.284  18.304  0.00  0.00    +0.000 A 
ATOM     28  C   UNL     1       7.016   5.017  16.941  0.00  0.00    +0.000 A 
ATOM     29  C   UNL     1       5.773   4.762  16.373  0.00  0.00    +0.000 A 
ATOM     30  C   UNL     1       4.623   4.779  17.172  0.00  0.00    +0.000 A 
ENDBRANCH  24  25
ENDBRANCH  19  20
ENDBRANCH   4  19
TORSDOF 5
ENDMDL
