MODEL 1
REMARK VINA RESULT:      -7.1      0.000      0.000
REMARK  Name = 
REMARK  8 active torsions:
REMARK  status: ('A' for Active; 'I' for Inactive)
REMARK    1  A    between atoms: C_1  and  C_2
REMARK    2  A    between atoms: C_2  and  C_3
REMARK    3  A    between atoms: C_2  and  N_4
REMARK    4  A    between atoms: N_4  and  C_5
REMARK    5  A    between atoms: C_5  and  C_6
REMARK    6  A    between atoms: C_6  and  O_7
REMARK    7  A    between atoms: C_6  and  C_8
REMARK    8  A    between atoms: C_11  and  O_12
REMARK                            x       y       z     vdW  Elec       q    Type
REMARK                         _______ _______ _______ _____ _____    ______ ____
ROOT
ATOM      1  C   UNL     1       4.520   3.993  17.764  0.00  0.00    +0.000 A 
ATOM      2  C   UNL     1       4.820   4.482  19.051  0.00  0.00    +0.000 A 
ATOM      3  C   UNL     1       5.939   5.269  19.270  0.00  0.00    +0.000 A 
ATOM      4  C   UNL     1       6.767   5.585  18.197  0.00  0.00    +0.000 A 
ATOM      5  C   UNL     1       6.522   5.134  16.894  0.00  0.00    +0.000 A 
ATOM      6  N   UNL     1       7.370   5.478  15.898  0.00  0.00    +0.000 NA
ATOM      7  C   UNL     1       7.137   5.036  14.649  0.00  0.00    +0.000 A 
ATOM      8  C   UNL     1       6.075   4.230  14.321  0.00  0.00    +0.000 A 
ATOM      9  C   UNL     1       5.197   3.874  15.339  0.00  0.00    +0.000 A 
ATOM     10  C   UNL     1       5.385   4.317  16.670  0.00  0.00    +0.000 A 
ENDROOT
BRANCH   4  11
ATOM     11  O   UNL     1       7.879   6.363  18.438  0.00  0.00    +0.000 OA
ATOM     12  H   UNL     1       7.624   7.298  18.444  0.00  0.00    +0.000 HD
ENDBRANCH   4  11
BRANCH   1  13
ATOM     13  C   UNL     1       3.290   3.104  17.653  0.00  0.00    +0.000 C 
BRANCH  13  14
ATOM     14  O   UNL     1       3.576   1.823  18.209  0.00  0.00    +0.000 OA
ATOM     15  H   UNL     1       4.511   1.618  18.065  0.00  0.00    +0.000 HD
ENDBRANCH  13  14
BRANCH  13  16
ATOM     16  C   UNL     1       1.982   3.740  18.213  0.00  0.00    +0.000 C 
BRANCH  16  17
ATOM     17  N   UNL     1       1.323   2.877  19.203  0.00  0.00    +0.000 NA
ATOM     18  H   UNL     1       0.394   2.629  18.855  0.00  0.00    +0.000 HD
BRANCH  17  20
ATOM     19  C   UNL     1       2.132   2.757  21.479  0.00  0.00    +0.000 C 
ATOM     20  C   UNL     1       1.176   3.486  20.530  0.00  0.00    +0.000 C 
ATOM     21  C   UNL     1       1.493   4.982  20.531  0.00  0.00    +0.000 C 
ENDBRANCH  17  20
ENDBRANCH  16  17
ENDBRANCH  13  16
ENDBRANCH   1  13
TORSDOF 6
ENDMDL
MODEL 2
REMARK VINA RESULT:      -6.8      0.914      1.002
REMARK  Name = 
REMARK  8 active torsions:
REMARK  status: ('A' for Active; 'I' for Inactive)
REMARK    1  A    between atoms: C_1  and  C_2
REMARK    2  A    between atoms: C_2  and  C_3
REMARK    3  A    between atoms: C_2  and  N_4
REMARK    4  A    between atoms: N_4  and  C_5
REMARK    5  A    between atoms: C_5  and  C_6
REMARK    6  A    between atoms: C_6  and  O_7
REMARK    7  A    between atoms: C_6  and  C_8
REMARK    8  A    between atoms: C_11  and  O_12
REMARK                            x       y       z     vdW  Elec       q    Type
REMARK                         _______ _______ _______ _____ _____    ______ ____
ROOT
ATOM      1  C   UNL     1       5.331   4.291  17.836  0.00  0.00    +0.000 A 
ATOM      2  C   UNL     1       5.717   5.201  18.840  0.00  0.00    +0.000 A 
ATOM      3  C   UNL     1       6.627   6.211  18.574  0.00  0.00    +0.000 A 
ATOM      4  C   UNL     1       7.154   6.329  17.291  0.00  0.00    +0.000 A 
ATOM      5  C   UNL     1       6.808   5.459  16.249  0.00  0.00    +0.000 A 
ATOM      6  N   UNL     1       7.361   5.631  15.026  0.00  0.00    +0.000 NA
ATOM      7  C   UNL     1       7.033   4.789  14.029  0.00  0.00    +0.000 A 
ATOM      8  C   UNL     1       6.164   3.738  14.186  0.00  0.00    +0.000 A 
ATOM      9  C   UNL     1       5.590   3.556  15.438  0.00  0.00    +0.000 A 
ATOM     10  C   UNL     1       5.888   4.416  16.523  0.00  0.00    +0.000 A 
ENDROOT
BRANCH   4  11
ATOM     11  O   UNL     1       8.062   7.336  17.049  0.00  0.00    +0.000 OA
ATOM     12  H   UNL     1       7.746   7.887  16.318  0.00  0.00    +0.000 HD
ENDBRANCH   4  11
BRANCH   1  13
ATOM     13  C   UNL     1       4.359   3.198  18.256  0.00  0.00    +0.000 C 
BRANCH  13  14
ATOM     14  O   UNL     1       4.841   2.560  19.437  0.00  0.00    +0.000 OA
ATOM     15  H   UNL     1       5.009   1.627  19.246  0.00  0.00    +0.000 HD
ENDBRANCH  13  14
BRANCH  13  16
ATOM     16  C   UNL     1       2.875   3.663  18.370  0.00  0.00    +0.000 C 
BRANCH  16  17
ATOM     17  N   UNL     1       2.097   2.822  19.288  0.00  0.00    +0.000 NA
ATOM     18  H   UNL     1       1.352   2.362  18.760  0.00  0.00    +0.000 HD
BRANCH  17  20
ATOM     19  C   UNL     1       1.922   2.854  21.701  0.00  0.00    +0.000 C 
ATOM     20  C   UNL     1       1.492   3.553  20.408  0.00  0.00    +0.000 C 
ATOM     21  C   UNL     1       1.919   5.021  20.452  0.00  0.00    +0.000 C 
ENDBRANCH  17  20
ENDBRANCH  16  17
ENDBRANCH  13  16
ENDBRANCH   1  13
TORSDOF 6
ENDMDL
MODEL 3
REMARK VINA RESULT:      -6.8      2.283      5.462
REMARK  Name = 
REMARK  8 active torsions:
REMARK  status: ('A' for Active; 'I' for Inactive)
REMARK    1  A    between atoms: C_1  and  C_2
REMARK    2  A    between atoms: C_2  and  C_3
REMARK    3  A    between atoms: C_2  and  N_4
REMARK    4  A    between atoms: N_4  and  C_5
REMARK    5  A    between atoms: C_5  and  C_6
REMARK    6  A    between atoms: C_6  and  O_7
REMARK    7  A    between atoms: C_6  and  C_8
REMARK    8  A    between atoms: C_11  and  O_12
REMARK                            x       y       z     vdW  Elec       q    Type
REMARK                         _______ _______ _______ _____ _____    ______ ____
ROOT
ATOM      1  C   UNL     1       4.270   5.531  17.172  0.00  0.00    +0.000 A 
ATOM      2  C   UNL     1       3.880   6.789  17.673  0.00  0.00    +0.000 A 
ATOM      3  C   UNL     1       2.993   6.890  18.732  0.00  0.00    +0.000 A 
ATOM      4  C   UNL     1       2.493   5.728  19.311  0.00  0.00    +0.000 A 
ATOM      5  C   UNL     1       2.844   4.448  18.863  0.00  0.00    +0.000 A 
ATOM      6  N   UNL     1       2.318   3.360  19.471  0.00  0.00    +0.000 NA
ATOM      7  C   UNL     1       2.650   2.132  19.033  0.00  0.00    +0.000 A 
ATOM      8  C   UNL     1       3.498   1.914  17.976  0.00  0.00    +0.000 A 
ATOM      9  C   UNL     1       4.044   3.026  17.346  0.00  0.00    +0.000 A 
ATOM     10  C   UNL     1       3.740   4.342  17.769  0.00  0.00    +0.000 A 
ENDROOT
BRANCH   4  11
ATOM     11  O   UNL     1       1.607   5.850  20.359  0.00  0.00    +0.000 OA
ATOM     12  H   UNL     1       2.053   5.621  21.188  0.00  0.00    +0.000 HD
ENDBRANCH   4  11
BRANCH   1  13
ATOM     13  C   UNL     1       5.215   5.545  15.979  0.00  0.00    +0.000 C 
BRANCH  13  14
ATOM     14  O   UNL     1       5.054   6.765  15.258  0.00  0.00    +0.000 OA
ATOM     15  H   UNL     1       4.996   6.568  14.313  0.00  0.00    +0.000 HD
ENDBRANCH  13  14
BRANCH  13  16
ATOM     16  C   UNL     1       6.700   5.228  16.329  0.00  0.00    +0.000 C 
BRANCH  16  17
ATOM     17  N   UNL     1       7.509   6.445  16.478  0.00  0.00    +0.000 NA
ATOM     18  H   UNL     1       8.494   6.203  16.348  0.00  0.00    +0.000 HD
BRANCH  17  20
ATOM     19  C   UNL     1       7.880   6.152  18.850  0.00  0.00    +0.000 C 
ATOM     20  C   UNL     1       7.360   7.113  17.776  0.00  0.00    +0.000 C 
ATOM     21  C   UNL     1       8.130   8.432  17.852  0.00  0.00    +0.000 C 
ENDBRANCH  17  20
ENDBRANCH  16  17
ENDBRANCH  13  16
ENDBRANCH   1  13
TORSDOF 6
ENDMDL
MODEL 4
REMARK VINA RESULT:      -6.7      2.495      5.647
REMARK  Name = 
REMARK  8 active torsions:
REMARK  status: ('A' for Active; 'I' for Inactive)
REMARK    1  A    between atoms: C_1  and  C_2
REMARK    2  A    between atoms: C_2  and  C_3
REMARK    3  A    between atoms: C_2  and  N_4
REMARK    4  A    between atoms: N_4  and  C_5
REMARK    5  A    between atoms: C_5  and  C_6
REMARK    6  A    between atoms: C_6  and  O_7
REMARK    7  A    between atoms: C_6  and  C_8
REMARK    8  A    between atoms: C_11  and  O_12
REMARK                            x       y       z     vdW  Elec       q    Type
REMARK                         _______ _______ _______ _____ _____    ______ ____
ROOT
ATOM      1  C   UNL     1       6.054   5.222  16.395  0.00  0.00    +0.000 A 
ATOM      2  C   UNL     1       7.126   6.057  16.766  0.00  0.00    +0.000 A 
ATOM      3  C   UNL     1       7.570   6.105  18.078  0.00  0.00    +0.000 A 
ATOM      4  C   UNL     1       6.949   5.308  19.034  0.00  0.00    +0.000 A 
ATOM      5  C   UNL     1       5.880   4.455  18.729  0.00  0.00    +0.000 A 
ATOM      6  N   UNL     1       5.321   3.708  19.709  0.00  0.00    +0.000 NA
ATOM      7  C   UNL     1       4.289   2.897  19.415  0.00  0.00    +0.000 A 
ATOM      8  C   UNL     1       3.752   2.788  18.156  0.00  0.00    +0.000 A 
ATOM      9  C   UNL     1       4.322   3.550  17.143  0.00  0.00    +0.000 A 
ATOM     10  C   UNL     1       5.416   4.415  17.390  0.00  0.00    +0.000 A 
ENDROOT
BRANCH   4  11
ATOM     11  O   UNL     1       7.400   5.376  20.334  0.00  0.00    +0.000 OA
ATOM     12  H   UNL     1       7.515   4.480  20.684  0.00  0.00    +0.000 HD
ENDBRANCH   4  11
BRANCH   1  13
ATOM     13  C   UNL     1       5.627   5.285  14.936  0.00  0.00    +0.000 C 
BRANCH  13  14
ATOM     14  O   UNL     1       5.260   6.622  14.603  0.00  0.00    +0.000 OA
ATOM     15  H   UNL     1       5.143   6.689  13.645  0.00  0.00    +0.000 HD
ENDBRANCH  13  14
BRANCH  13  16
ATOM     16  C   UNL     1       6.649   4.661  13.938  0.00  0.00    +0.000 C 
BRANCH  16  17
ATOM     17  N   UNL     1       6.235   3.329  13.477  0.00  0.00    +0.000 NA
ATOM     18  H   UNL     1       6.975   2.660  13.700  0.00  0.00    +0.000 HD
BRANCH  17  20
ATOM     19  C   UNL     1       6.447   1.886  11.546  0.00  0.00    +0.000 C 
ATOM     20  C   UNL     1       5.954   3.250  12.039  0.00  0.00    +0.000 C 
ATOM     21  C   UNL     1       4.466   3.402  11.720  0.00  0.00    +0.000 C 
ENDBRANCH  17  20
ENDBRANCH  16  17
ENDBRANCH  13  16
ENDBRANCH   1  13
TORSDOF 6
ENDMDL
MODEL 5
REMARK VINA RESULT:      -6.5      1.225      1.544
REMARK  Name = 
REMARK  8 active torsions:
REMARK  status: ('A' for Active; 'I' for Inactive)
REMARK    1  A    between atoms: C_1  and  C_2
REMARK    2  A    between atoms: C_2  and  C_3
REMARK    3  A    between atoms: C_2  and  N_4
REMARK    4  A    between atoms: N_4  and  C_5
REMARK    5  A    between atoms: C_5  and  C_6
REMARK    6  A    between atoms: C_6  and  O_7
REMARK    7  A    between atoms: C_6  and  C_8
REMARK    8  A    between atoms: C_11  and  O_12
REMARK                            x       y       z     vdW  Elec       q    Type
REMARK                         _______ _______ _______ _____ _____    ______ ____
ROOT
ATOM      1  C   UNL     1       5.067   3.971  18.067  0.00  0.00    +0.000 A 
ATOM      2  C   UNL     1       5.453   4.605  19.265  0.00  0.00    +0.000 A 
ATOM      3  C   UNL     1       6.462   5.554  19.275  0.00  0.00    +0.000 A 
ATOM      4  C   UNL     1       7.091   5.889  18.079  0.00  0.00    +0.000 A 
ATOM      5  C   UNL     1       6.751   5.298  16.855  0.00  0.00    +0.000 A 
ATOM      6  N   UNL     1       7.405   5.669  15.730  0.00  0.00    +0.000 NA
ATOM      7  C   UNL     1       7.083   5.094  14.558  0.00  0.00    +0.000 A 
ATOM      8  C   UNL     1       6.118   4.124  14.435  0.00  0.00    +0.000 A 
ATOM      9  C   UNL     1       5.440   3.739  15.585  0.00  0.00    +0.000 A 
ATOM     10  C   UNL     1       5.729   4.316  16.845  0.00  0.00    +0.000 A 
ENDROOT
BRANCH   4  11
ATOM     11  O   UNL     1       8.096   6.830  18.111  0.00  0.00    +0.000 OA
ATOM     12  H   UNL     1       8.343   7.070  17.206  0.00  0.00    +0.000 HD
ENDBRANCH   4  11
BRANCH   1  13
ATOM     13  C   UNL     1       3.978   2.915  18.186  0.00  0.00    +0.000 C 
BRANCH  13  14
ATOM     14  O   UNL     1       4.425   1.863  19.040  0.00  0.00    +0.000 OA
ATOM     15  H   UNL     1       5.336   2.043  19.312  0.00  0.00    +0.000 HD
ENDBRANCH  13  14
BRANCH  13  16
ATOM     16  C   UNL     1       2.577   3.474  18.581  0.00  0.00    +0.000 C 
BRANCH  16  17
ATOM     17  N   UNL     1       2.181   4.620  17.751  0.00  0.00    +0.000 NA
ATOM     18  H   UNL     1       2.912   4.792  17.058  0.00  0.00    +0.000 HD
BRANCH  17  20
ATOM     19  C   UNL     1       2.094   5.525  19.993  0.00  0.00    +0.000 C 
ATOM     20  C   UNL     1       1.951   5.858  18.505  0.00  0.00    +0.000 C 
ATOM     21  C   UNL     1       2.935   6.967  18.130  0.00  0.00    +0.000 C 
ENDBRANCH  17  20
ENDBRANCH  16  17
ENDBRANCH  13  16
ENDBRANCH   1  13
TORSDOF 6
ENDMDL
MODEL 6
REMARK VINA RESULT:      -6.5      2.674      5.728
REMARK  Name = 
REMARK  8 active torsions:
REMARK  status: ('A' for Active; 'I' for Inactive)
REMARK    1  A    between atoms: C_1  and  C_2
REMARK    2  A    between atoms: C_2  and  C_3
REMARK    3  A    between atoms: C_2  and  N_4
REMARK    4  A    between atoms: N_4  and  C_5
REMARK    5  A    between atoms: C_5  and  C_6
REMARK    6  A    between atoms: C_6  and  O_7
REMARK    7  A    between atoms: C_6  and  C_8
REMARK    8  A    between atoms: C_11  and  O_12
REMARK                            x       y       z     vdW  Elec       q    Type
REMARK                         _______ _______ _______ _____ _____    ______ ____
ROOT
ATOM      1  C   UNL     1       5.255   4.750  16.374  0.00  0.00    +0.000 A 
ATOM      2  C   UNL     1       4.254   3.784  16.598  0.00  0.00    +0.000 A 
ATOM      3  C   UNL     1       4.076   3.220  17.851  0.00  0.00    +0.000 A 
ATOM      4  C   UNL     1       4.895   3.626  18.900  0.00  0.00    +0.000 A 
ATOM      5  C   UNL     1       5.906   4.584  18.743  0.00  0.00    +0.000 A 
ATOM      6  N   UNL     1       6.667   4.931  19.807  0.00  0.00    +0.000 NA
ATOM      7  C   UNL     1       7.642   5.845  19.651  0.00  0.00    +0.000 A 
ATOM      8  C   UNL     1       7.923   6.449  18.451  0.00  0.00    +0.000 A 
ATOM      9  C   UNL     1       7.145   6.100  17.354  0.00  0.00    +0.000 A 
ATOM     10  C   UNL     1       6.098   5.152  17.458  0.00  0.00    +0.000 A 
ENDROOT
BRANCH   4  11
ATOM     11  O   UNL     1       4.708   3.048  20.136  0.00  0.00    +0.000 OA
ATOM     12  H   UNL     1       5.553   3.009  20.606  0.00  0.00    +0.000 HD
ENDBRANCH   4  11
BRANCH   1  13
ATOM     13  C   UNL     1       5.384   5.267  14.948  0.00  0.00    +0.000 C 
BRANCH  13  14
ATOM     14  O   UNL     1       5.337   6.693  14.951  0.00  0.00    +0.000 OA
ATOM     15  H   UNL     1       4.566   6.984  14.444  0.00  0.00    +0.000 HD
ENDBRANCH  13  14
BRANCH  13  16
ATOM     16  C   UNL     1       6.602   4.693  14.162  0.00  0.00    +0.000 C 
BRANCH  16  17
ATOM     17  N   UNL     1       6.320   3.373  13.584  0.00  0.00    +0.000 NA
ATOM     18  H   UNL     1       7.112   2.755  13.775  0.00  0.00    +0.000 HD
BRANCH  17  20
ATOM     19  C   UNL     1       6.774   2.160  11.540  0.00  0.00    +0.000 C 
ATOM     20  C   UNL     1       6.078   3.388  12.137  0.00  0.00    +0.000 C 
ATOM     21  C   UNL     1       4.590   3.353  11.787  0.00  0.00    +0.000 C 
ENDBRANCH  17  20
ENDBRANCH  16  17
ENDBRANCH  13  16
ENDBRANCH   1  13
TORSDOF 6
ENDMDL
MODEL 7
REMARK VINA RESULT:      -6.5      1.214      2.662
REMARK  Name = 
REMARK  8 active torsions:
REMARK  status: ('A' for Active; 'I' for Inactive)
REMARK    1  A    between atoms: C_1  and  C_2
REMARK    2  A    between atoms: C_2  and  C_3
REMARK    3  A    between atoms: C_2  and  N_4
REMARK    4  A    between atoms: N_4  and  C_5
REMARK    5  A    between atoms: C_5  and  C_6
REMARK    6  A    between atoms: C_6  and  O_7
REMARK    7  A    between atoms: C_6  and  C_8
REMARK    8  A    between atoms: C_11  and  O_12
REMARK                            x       y       z     vdW  Elec       q    Type
REMARK                         _______ _______ _______ _____ _____    ______ ____
ROOT
ATOM      1  C   UNL     1       4.744   3.833  16.831  0.00  0.00    +0.000 A 
ATOM      2  C   UNL     1       4.814   3.679  15.432  0.00  0.00    +0.000 A 
ATOM      3  C   UNL     1       5.836   4.264  14.701  0.00  0.00    +0.000 A 
ATOM      4  C   UNL     1       6.809   5.002  15.367  0.00  0.00    +0.000 A 
ATOM      5  C   UNL     1       6.798   5.190  16.755  0.00  0.00    +0.000 A 
ATOM      6  N   UNL     1       7.776   5.922  17.338  0.00  0.00    +0.000 NA
ATOM      7  C   UNL     1       7.758   6.107  18.670  0.00  0.00    +0.000 A 
ATOM      8  C   UNL     1       6.781   5.597  19.488  0.00  0.00    +0.000 A 
ATOM      9  C   UNL     1       5.774   4.842  18.898  0.00  0.00    +0.000 A 
ATOM     10  C   UNL     1       5.745   4.604  17.503  0.00  0.00    +0.000 A 
ENDROOT
BRANCH   4  11
ATOM     11  O   UNL     1       7.813   5.581  14.622  0.00  0.00    +0.000 OA
ATOM     12  H   UNL     1       8.080   4.975  13.915  0.00  0.00    +0.000 HD
ENDBRANCH   4  11
BRANCH   1  13
ATOM     13  C   UNL     1       3.554   3.182  17.520  0.00  0.00    +0.000 C 
BRANCH  13  14
ATOM     14  O   UNL     1       4.018   2.267  18.511  0.00  0.00    +0.000 OA
ATOM     15  H   UNL     1       3.682   1.383  18.306  0.00  0.00    +0.000 HD
ENDBRANCH  13  14
BRANCH  13  16
ATOM     16  C   UNL     1       2.493   4.188  18.062  0.00  0.00    +0.000 C 
BRANCH  16  17
ATOM     17  N   UNL     1       1.385   3.513  18.750  0.00  0.00    +0.000 NA
ATOM     18  H   UNL     1       0.532   3.640  18.201  0.00  0.00    +0.000 HD
BRANCH  17  20
ATOM     19  C   UNL     1       1.324   2.809  21.064  0.00  0.00    +0.000 C 
ATOM     20  C   UNL     1       1.139   3.996  20.113  0.00  0.00    +0.000 C 
ATOM     21  C   UNL     1       2.085   5.128  20.517  0.00  0.00    +0.000 C 
ENDBRANCH  17  20
ENDBRANCH  16  17
ENDBRANCH  13  16
ENDBRANCH   1  13
TORSDOF 6
ENDMDL
MODEL 8
REMARK VINA RESULT:      -6.4      1.465      2.812
REMARK  Name = 
REMARK  8 active torsions:
REMARK  status: ('A' for Active; 'I' for Inactive)
REMARK    1  A    between atoms: C_1  and  C_2
REMARK    2  A    between atoms: C_2  and  C_3
REMARK    3  A    between atoms: C_2  and  N_4
REMARK    4  A    between atoms: N_4  and  C_5
REMARK    5  A    between atoms: C_5  and  C_6
REMARK    6  A    between atoms: C_6  and  O_7
REMARK    7  A    between atoms: C_6  and  C_8
REMARK    8  A    between atoms: C_11  and  O_12
REMARK                            x       y       z     vdW  Elec       q    Type
REMARK                         _______ _______ _______ _____ _____    ______ ____
ROOT
ATOM      1  C   UNL     1       4.500   4.051  16.898  0.00  0.00    +0.000 A 
ATOM      2  C   UNL     1       4.551   3.876  15.501  0.00  0.00    +0.000 A 
ATOM      3  C   UNL     1       5.642   4.315  14.768  0.00  0.00    +0.000 A 
ATOM      4  C   UNL     1       6.702   4.926  15.429  0.00  0.00    +0.000 A 
ATOM      5  C   UNL     1       6.714   5.126  16.816  0.00  0.00    +0.000 A 
ATOM      6  N   UNL     1       7.778   5.730  17.394  0.00  0.00    +0.000 NA
ATOM      7  C   UNL     1       7.783   5.929  18.724  0.00  0.00    +0.000 A 
ATOM      8  C   UNL     1       6.746   5.559  19.545  0.00  0.00    +0.000 A 
ATOM      9  C   UNL     1       5.650   4.936  18.959  0.00  0.00    +0.000 A 
ATOM     10  C   UNL     1       5.592   4.691  17.566  0.00  0.00    +0.000 A 
ENDROOT
BRANCH   4  11
ATOM     11  O   UNL     1       7.774   5.362  14.681  0.00  0.00    +0.000 OA
ATOM     12  H   UNL     1       7.576   6.233  14.309  0.00  0.00    +0.000 HD
ENDBRANCH   4  11
BRANCH   1  13
ATOM     13  C   UNL     1       3.234   3.568  17.591  0.00  0.00    +0.000 C 
BRANCH  13  14
ATOM     14  O   UNL     1       2.186   3.437  16.631  0.00  0.00    +0.000 OA
ATOM     15  H   UNL     1       1.392   3.873  16.969  0.00  0.00    +0.000 HD
ENDBRANCH  13  14
BRANCH  13  16
ATOM     16  C   UNL     1       3.425   2.296  18.471  0.00  0.00    +0.000 C 
BRANCH  16  17
ATOM     17  N   UNL     1       2.149   1.764  18.966  0.00  0.00    +0.000 NA
ATOM     18  H   UNL     1       1.422   1.957  18.273  0.00  0.00    +0.000 HD
BRANCH  17  20
ATOM     19  C   UNL     1       2.989   2.676  21.043  0.00  0.00    +0.000 C 
ATOM     20  C   UNL     1       1.724   2.319  20.256  0.00  0.00    +0.000 C 
ATOM     21  C   UNL     1       0.848   3.563  20.102  0.00  0.00    +0.000 C 
ENDBRANCH  17  20
ENDBRANCH  16  17
ENDBRANCH  13  16
ENDBRANCH   1  13
TORSDOF 6
ENDMDL
MODEL 9
REMARK VINA RESULT:      -6.2      1.644      2.890
REMARK  Name = 
REMARK  8 active torsions:
REMARK  status: ('A' for Active; 'I' for Inactive)
REMARK    1  A    between atoms: C_1  and  C_2
REMARK    2  A    between atoms: C_2  and  C_3
REMARK    3  A    between atoms: C_2  and  N_4
REMARK    4  A    between atoms: N_4  and  C_5
REMARK    5  A    between atoms: C_5  and  C_6
REMARK    6  A    between atoms: C_6  and  O_7
REMARK    7  A    between atoms: C_6  and  C_8
REMARK    8  A    between atoms: C_11  and  O_12
REMARK                            x       y       z     vdW  Elec       q    Type
REMARK                         _______ _______ _______ _____ _____    ______ ____
ROOT
ATOM      1  C   UNL     1       4.897   3.952  17.888  0.00  0.00    +0.000 A 
ATOM      2  C   UNL     1       4.406   3.654  16.602  0.00  0.00    +0.000 A 
ATOM      3  C   UNL     1       4.932   4.272  15.478  0.00  0.00    +0.000 A 
ATOM      4  C   UNL     1       5.967   5.190  15.631  0.00  0.00    +0.000 A 
ATOM      5  C   UNL     1       6.501   5.526  16.881  0.00  0.00    +0.000 A 
ATOM      6  N   UNL     1       7.506   6.429  16.956  0.00  0.00    +0.000 NA
ATOM      7  C   UNL     1       8.012   6.756  18.159  0.00  0.00    +0.000 A 
ATOM      8  C   UNL     1       7.551   6.227  19.339  0.00  0.00    +0.000 A 
ATOM      9  C   UNL     1       6.520   5.298  19.271  0.00  0.00    +0.000 A 
ATOM     10  C   UNL     1       5.955   4.906  18.033  0.00  0.00    +0.000 A 
ENDROOT
BRANCH   4  11
ATOM     11  O   UNL     1       6.471   5.798  14.502  0.00  0.00    +0.000 OA
ATOM     12  H   UNL     1       7.369   6.115  14.680  0.00  0.00    +0.000 HD
ENDBRANCH   4  11
BRANCH   1  13
ATOM     13  C   UNL     1       4.213   3.244  19.049  0.00  0.00    +0.000 C 
BRANCH  13  14
ATOM     14  O   UNL     1       5.178   2.496  19.786  0.00  0.00    +0.000 OA
ATOM     15  H   UNL     1       4.817   2.289  20.660  0.00  0.00    +0.000 HD
ENDBRANCH  13  14
BRANCH  13  16
ATOM     16  C   UNL     1       3.340   4.173  19.946  0.00  0.00    +0.000 C 
BRANCH  16  17
ATOM     17  N   UNL     1       2.007   4.407  19.374  0.00  0.00    +0.000 NA
ATOM     18  H   UNL     1       1.737   5.376  19.556  0.00  0.00    +0.000 HD
BRANCH  17  20
ATOM     19  C   UNL     1       0.725   2.418  18.869  0.00  0.00    +0.000 C 
ATOM     20  C   UNL     1       0.961   3.524  19.903  0.00  0.00    +0.000 C 
ATOM     21  C   UNL     1       1.342   2.898  21.245  0.00  0.00    +0.000 C 
ENDBRANCH  17  20
ENDBRANCH  16  17
ENDBRANCH  13  16
ENDBRANCH   1  13
TORSDOF 6
ENDMDL
