MODEL 1
REMARK VINA RESULT:      -8.3      0.000      0.000
REMARK  Name = 
REMARK  11 active torsions:
REMARK  status: ('A' for Active; 'I' for Inactive)
REMARK    1  A    between atoms: C_1  and  O_2
REMARK    2  A    between atoms: O_2  and  C_3
REMARK    3  A    between atoms: C_6  and  O_7
REMARK    4  A    between atoms: O_7  and  C_8
REMARK    5  A    between atoms: C_9  and  C_10
REMARK    6  A    between atoms: C_10  and  C_11
REMARK    7  A    between atoms: C_11  and  N_12
REMARK    8  A    between atoms: C_13  and  C_15
REMARK    9  A    between atoms: C_15  and  C_16
REMARK   10  A    between atoms: C_16  and  C_17
REMARK   11  A    between atoms: C_26  and  C_27
REMARK                            x       y       z     vdW  Elec       q    Type
REMARK                         _______ _______ _______ _____ _____    ______ ____
ROOT
ATOM      1  N   UNL     1       8.290   8.132  18.502  0.00  0.00    +0.000 N 
ATOM      2  C   UNL     1       7.614   7.241  17.785  0.00  0.00    +0.000 C 
ATOM      3  O   UNL     1       7.002   7.461  16.756  0.00  0.00    +0.000 OA
ATOM      4  H   UNL     1       8.690   7.895  19.400  0.00  0.00    +0.000 HD
ENDROOT
BRANCH   1   5
ATOM      5  C   UNL     1       8.474   9.508  18.064  0.00  0.00    +0.000 C 
BRANCH   5   6
ATOM      6  C   UNL     1       9.658  10.244  18.723  0.00  0.00    +0.000 C 
BRANCH   6  11
ATOM      7  C   UNL     1       8.738  11.973  22.012  0.00  0.00    +0.000 A 
ATOM      8  C   UNL     1       8.709  13.318  21.664  0.00  0.00    +0.000 A 
ATOM      9  C   UNL     1       9.060  13.692  20.385  0.00  0.00    +0.000 A 
ATOM     10  C   UNL     1       9.330  12.689  19.439  0.00  0.00    +0.000 A 
ATOM     11  C   UNL     1       9.443  11.343  19.753  0.00  0.00    +0.000 A 
ATOM     12  C   UNL     1       9.143  11.003  21.079  0.00  0.00    +0.000 A 
BRANCH   7  14
ATOM     13  C   UNL     1       6.893  11.824  23.467  0.00  0.00    +0.000 C 
ATOM     14  O   UNL     1       8.293  11.725  23.277  0.00  0.00    +0.000 OA
ENDBRANCH   7  14
BRANCH  10  15
ATOM     15  O   UNL     1       9.252  13.005  18.116  0.00  0.00    +0.000 OA
ATOM     16  C   UNL     1      10.394  13.807  17.843  0.00  0.00    +0.000 C 
ENDBRANCH  10  15
ENDBRANCH   6  11
ENDBRANCH   5   6
ENDBRANCH   1   5
BRANCH   2  17
ATOM     17  C   UNL     1       7.722   5.850  18.357  0.00  0.00    +0.000 C 
BRANCH  17  18
ATOM     18  C   UNL     1       7.385   4.823  17.267  0.00  0.00    +0.000 C 
BRANCH  18  19
ATOM     19  C   UNL     1       5.889   4.589  16.906  0.00  0.00    +0.000 C 
ATOM     20  O   UNL     1       5.803   3.627  16.096  0.00  0.00    +0.000 OA
ATOM     21  N   UNL     1       4.652   5.002  17.498  0.00  0.00    +0.000 N 
ATOM     22  C   UNL     1       3.845   3.763  17.623  0.00  0.00    +0.000 C 
ATOM     23  C   UNL     1       2.622   3.868  18.490  0.00  0.00    +0.000 C 
ATOM     24  O   UNL     1       3.077   4.438  19.723  0.00  0.00    +0.000 OA
ATOM     25  C   UNL     1       3.243   5.781  19.404  0.00  0.00    +0.000 A 
ATOM     26  C   UNL     1       2.286   6.557  20.096  0.00  0.00    +0.000 A 
ATOM     27  C   UNL     1       1.841   7.739  19.574  0.00  0.00    +0.000 A 
ATOM     28  C   UNL     1       2.331   8.134  18.328  0.00  0.00    +0.000 A 
ATOM     29  C   UNL     1       1.615   9.418  17.872  0.00  0.00    +0.000 C 
ATOM     30  C   UNL     1       3.415   7.336  17.667  0.00  0.00    +0.000 A 
ATOM     31  C   UNL     1       3.986   6.143  18.237  0.00  0.00    +0.000 A 
ENDBRANCH  18  19
ENDBRANCH  17  18
ENDBRANCH   2  17
TORSDOF 8
ENDMDL
MODEL 2
REMARK VINA RESULT:      -8.2      5.528      9.414
REMARK  Name = 
REMARK  11 active torsions:
REMARK  status: ('A' for Active; 'I' for Inactive)
REMARK    1  A    between atoms: C_1  and  O_2
REMARK    2  A    between atoms: O_2  and  C_3
REMARK    3  A    between atoms: C_6  and  O_7
REMARK    4  A    between atoms: O_7  and  C_8
REMARK    5  A    between atoms: C_9  and  C_10
REMARK    6  A    between atoms: C_10  and  C_11
REMARK    7  A    between atoms: C_11  and  N_12
REMARK    8  A    between atoms: C_13  and  C_15
REMARK    9  A    between atoms: C_15  and  C_16
REMARK   10  A    between atoms: C_16  and  C_17
REMARK   11  A    between atoms: C_26  and  C_27
REMARK                            x       y       z     vdW  Elec       q    Type
REMARK                         _______ _______ _______ _____ _____    ______ ____
ROOT
ATOM      1  N   UNL     1       1.331   8.668  21.482  0.00  0.00    +0.000 N 
ATOM      2  C   UNL     1       0.102   8.692  21.988  0.00  0.00    +0.000 C 
ATOM      3  O   UNL     1      -0.873   8.118  21.537  0.00  0.00    +0.000 OA
ATOM      4  H   UNL     1       2.068   9.251  21.856  0.00  0.00    +0.000 HD
ENDROOT
BRANCH   1   5
ATOM      5  C   UNL     1       1.691   7.833  20.346  0.00  0.00    +0.000 C 
BRANCH   5   6
ATOM      6  C   UNL     1       2.047   6.375  20.700  0.00  0.00    +0.000 C 
BRANCH   6  11
ATOM      7  C   UNL     1       3.796   4.979  17.594  0.00  0.00    +0.000 A 
ATOM      8  C   UNL     1       3.214   3.726  17.441  0.00  0.00    +0.000 A 
ATOM      9  C   UNL     1       2.307   3.284  18.380  0.00  0.00    +0.000 A 
ATOM     10  C   UNL     1       1.915   4.162  19.405  0.00  0.00    +0.000 A 
ATOM     11  C   UNL     1       2.517   5.388  19.642  0.00  0.00    +0.000 A 
ATOM     12  C   UNL     1       3.483   5.780  18.706  0.00  0.00    +0.000 A 
BRANCH   7  14
ATOM     13  C   UNL     1       4.875   6.719  16.432  0.00  0.00    +0.000 C 
ATOM     14  O   UNL     1       4.613   5.333  16.561  0.00  0.00    +0.000 OA
ENDBRANCH   7  14
BRANCH  10  15
ATOM     15  O   UNL     1       0.745   3.917  20.058  0.00  0.00    +0.000 OA
ATOM     16  C   UNL     1       1.045   2.918  21.026  0.00  0.00    +0.000 C 
ENDBRANCH  10  15
ENDBRANCH   6  11
ENDBRANCH   5   6
ENDBRANCH   1   5
BRANCH   2  17
ATOM     17  C   UNL     1       0.028   9.487  23.267  0.00  0.00    +0.000 C 
BRANCH  17  18
ATOM     18  C   UNL     1      -0.888  10.701  23.060  0.00  0.00    +0.000 C 
BRANCH  18  19
ATOM     19  C   UNL     1      -0.599  11.652  21.862  0.00  0.00    +0.000 C 
ATOM     20  O   UNL     1       0.191  12.560  22.233  0.00  0.00    +0.000 OA
ATOM     21  N   UNL     1      -0.780  11.541  20.445  0.00  0.00    +0.000 N 
ATOM     22  C   UNL     1       0.526  11.925  19.853  0.00  0.00    +0.000 C 
ATOM     23  C   UNL     1       0.698  11.604  18.395  0.00  0.00    +0.000 C 
ATOM     24  O   UNL     1       0.342  10.223  18.264  0.00  0.00    +0.000 OA
ATOM     25  C   UNL     1      -1.047  10.252  18.326  0.00  0.00    +0.000 A 
ATOM     26  C   UNL     1      -1.588   9.888  17.071  0.00  0.00    +0.000 A 
ATOM     27  C   UNL     1      -2.804  10.365  16.674  0.00  0.00    +0.000 A 
ATOM     28  C   UNL     1      -3.476  11.246  17.524  0.00  0.00    +0.000 A 
ATOM     29  C   UNL     1      -4.756  11.755  16.838  0.00  0.00    +0.000 C 
ATOM     30  C   UNL     1      -2.919  11.535  18.886  0.00  0.00    +0.000 A 
ATOM     31  C   UNL     1      -1.692  10.967  19.382  0.00  0.00    +0.000 A 
ENDBRANCH  18  19
ENDBRANCH  17  18
ENDBRANCH   2  17
TORSDOF 8
ENDMDL
MODEL 3
REMARK VINA RESULT:      -7.8      1.225      1.360
REMARK  Name = 
REMARK  11 active torsions:
REMARK  status: ('A' for Active; 'I' for Inactive)
REMARK    1  A    between atoms: C_1  and  O_2
REMARK    2  A    between atoms: O_2  and  C_3
REMARK    3  A    between atoms: C_6  and  O_7
REMARK    4  A    between atoms: O_7  and  C_8
REMARK    5  A    between atoms: C_9  and  C_10
REMARK    6  A    between atoms: C_10  and  C_11
REMARK    7  A    between atoms: C_11  and  N_12
REMARK    8  A    between atoms: C_13  and  C_15
REMARK    9  A    between atoms: C_15  and  C_16
REMARK   10  A    between atoms: C_16  and  C_17
REMARK   11  A    between atoms: C_26  and  C_27
REMARK                            x       y       z     vdW  Elec       q    Type
REMARK                         _______ _______ _______ _____ _____    ______ ____
ROOT
ATOM      1  N   UNL     1       8.101   7.071  18.219  0.00  0.00    +0.000 N 
ATOM      2  C   UNL     1       7.756   5.886  18.710  0.00  0.00    +0.000 C 
ATOM      3  O   UNL     1       7.517   5.633  19.877  0.00  0.00    +0.000 OA
ATOM      4  H   UNL     1       8.382   7.182  17.253  0.00  0.00    +0.000 HD
ENDROOT
BRANCH   1   5
ATOM      5  C   UNL     1       8.129   8.276  19.034  0.00  0.00    +0.000 C 
BRANCH   5   6
ATOM      6  C   UNL     1       8.880   9.467  18.406  0.00  0.00    +0.000 C 
BRANCH   6  11
ATOM      7  C   UNL     1       9.559  11.859  21.317  0.00  0.00    +0.000 A 
ATOM      8  C   UNL     1      10.547  12.697  20.814  0.00  0.00    +0.000 A 
ATOM      9  C   UNL     1      11.061  12.455  19.558  0.00  0.00    +0.000 A 
ATOM     10  C   UNL     1      10.490  11.432  18.781  0.00  0.00    +0.000 A 
ATOM     11  C   UNL     1       9.558  10.526  19.262  0.00  0.00    +0.000 A 
ATOM     12  C   UNL     1       9.103  10.761  20.567  0.00  0.00    +0.000 A 
BRANCH   7  14
ATOM     13  C   UNL     1       7.717  11.938  22.782  0.00  0.00    +0.000 C 
ATOM     14  O   UNL     1       9.077  12.249  22.532  0.00  0.00    +0.000 OA
ENDBRANCH   7  14
BRANCH  10  15
ATOM     15  O   UNL     1      10.677  11.461  17.432  0.00  0.00    +0.000 OA
ATOM     16  C   UNL     1      10.796  12.835  17.087  0.00  0.00    +0.000 C 
ENDBRANCH  10  15
ENDBRANCH   6  11
ENDBRANCH   5   6
ENDBRANCH   1   5
BRANCH   2  17
ATOM     17  C   UNL     1       7.626   4.839  17.633  0.00  0.00    +0.000 C 
BRANCH  17  18
ATOM     18  C   UNL     1       6.900   5.439  16.422  0.00  0.00    +0.000 C 
BRANCH  18  19
ATOM     19  C   UNL     1       5.371   5.192  16.277  0.00  0.00    +0.000 C 
ATOM     20  O   UNL     1       5.176   4.290  15.418  0.00  0.00    +0.000 OA
ATOM     21  N   UNL     1       4.234   5.526  17.081  0.00  0.00    +0.000 N 
ATOM     22  C   UNL     1       3.475   4.259  17.232  0.00  0.00    +0.000 C 
ATOM     23  C   UNL     1       2.400   4.267  18.282  0.00  0.00    +0.000 C 
ATOM     24  O   UNL     1       3.030   4.756  19.470  0.00  0.00    +0.000 OA
ATOM     25  C   UNL     1       3.124   6.123  19.234  0.00  0.00    +0.000 A 
ATOM     26  C   UNL     1       2.273   6.820  20.122  0.00  0.00    +0.000 A 
ATOM     27  C   UNL     1       1.733   8.024  19.767  0.00  0.00    +0.000 A 
ATOM     28  C   UNL     1       2.019   8.523  18.495  0.00  0.00    +0.000 A 
ATOM     29  C   UNL     1       1.220   9.817  18.254  0.00  0.00    +0.000 C 
ATOM     30  C   UNL     1       3.000   7.806  17.616  0.00  0.00    +0.000 A 
ATOM     31  C   UNL     1       3.671   6.590  17.999  0.00  0.00    +0.000 A 
ENDBRANCH  18  19
ENDBRANCH  17  18
ENDBRANCH   2  17
TORSDOF 8
ENDMDL
MODEL 4
REMARK VINA RESULT:      -7.8      1.420      2.962
REMARK  Name = 
REMARK  11 active torsions:
REMARK  status: ('A' for Active; 'I' for Inactive)
REMARK    1  A    between atoms: C_1  and  O_2
REMARK    2  A    between atoms: O_2  and  C_3
REMARK    3  A    between atoms: C_6  and  O_7
REMARK    4  A    between atoms: O_7  and  C_8
REMARK    5  A    between atoms: C_9  and  C_10
REMARK    6  A    between atoms: C_10  and  C_11
REMARK    7  A    between atoms: C_11  and  N_12
REMARK    8  A    between atoms: C_13  and  C_15
REMARK    9  A    between atoms: C_15  and  C_16
REMARK   10  A    between atoms: C_16  and  C_17
REMARK   11  A    between atoms: C_26  and  C_27
REMARK                            x       y       z     vdW  Elec       q    Type
REMARK                         _______ _______ _______ _____ _____    ______ ____
ROOT
ATOM      1  N   UNL     1       7.788   7.500  17.349  0.00  0.00    +0.000 N 
ATOM      2  C   UNL     1       7.680   6.444  18.148  0.00  0.00    +0.000 C 
ATOM      3  O   UNL     1       7.613   6.467  19.364  0.00  0.00    +0.000 OA
ATOM      4  H   UNL     1       7.940   7.396  16.354  0.00  0.00    +0.000 HD
ENDROOT
BRANCH   1   5
ATOM      5  C   UNL     1       7.724   8.866  17.846  0.00  0.00    +0.000 C 
BRANCH   5   6
ATOM      6  C   UNL     1       8.989   9.346  18.585  0.00  0.00    +0.000 C 
BRANCH   6  11
ATOM      7  C   UNL     1      10.310  12.878  17.926  0.00  0.00    +0.000 A 
ATOM      8  C   UNL     1      10.171  13.502  19.160  0.00  0.00    +0.000 A 
ATOM      9  C   UNL     1       9.580  12.817  20.200  0.00  0.00    +0.000 A 
ATOM     10  C   UNL     1       9.236  11.468  20.010  0.00  0.00    +0.000 A 
ATOM     11  C   UNL     1       9.287  10.825  18.782  0.00  0.00    +0.000 A 
ATOM     12  C   UNL     1       9.832  11.571  17.730  0.00  0.00    +0.000 A 
BRANCH   7  14
ATOM     13  C   UNL     1      12.304  13.212  16.718  0.00  0.00    +0.000 C 
ATOM     14  O   UNL     1      10.981  13.629  17.005  0.00  0.00    +0.000 OA
ENDBRANCH   7  14
BRANCH  10  15
ATOM     15  O   UNL     1       9.063  10.681  21.108  0.00  0.00    +0.000 OA
ATOM     16  C   UNL     1       8.609  11.549  22.138  0.00  0.00    +0.000 C 
ENDBRANCH  10  15
ENDBRANCH   6  11
ENDBRANCH   5   6
ENDBRANCH   1   5
BRANCH   2  17
ATOM     17  C   UNL     1       7.591   5.152  17.377  0.00  0.00    +0.000 C 
BRANCH  17  18
ATOM     18  C   UNL     1       6.874   5.402  16.043  0.00  0.00    +0.000 C 
BRANCH  18  19
ATOM     19  C   UNL     1       5.341   5.151  15.966  0.00  0.00    +0.000 C 
ATOM     20  O   UNL     1       5.047   4.725  14.816  0.00  0.00    +0.000 OA
ATOM     21  N   UNL     1       4.310   5.010  16.950  0.00  0.00    +0.000 N 
ATOM     22  C   UNL     1       3.586   3.768  16.585  0.00  0.00    +0.000 C 
ATOM     23  C   UNL     1       2.650   3.230  17.631  0.00  0.00    +0.000 C 
ATOM     24  O   UNL     1       3.420   3.166  18.836  0.00  0.00    +0.000 OA
ATOM     25  C   UNL     1       3.473   4.495  19.243  0.00  0.00    +0.000 A 
ATOM     26  C   UNL     1       2.734   4.657  20.437  0.00  0.00    +0.000 A 
ATOM     27  C   UNL     1       2.145   5.855  20.733  0.00  0.00    +0.000 A 
ATOM     28  C   UNL     1       2.266   6.893  19.808  0.00  0.00    +0.000 A 
ATOM     29  C   UNL     1       1.434   8.102  20.273  0.00  0.00    +0.000 C 
ATOM     30  C   UNL     1       3.136   6.717  18.599  0.00  0.00    +0.000 A 
ATOM     31  C   UNL     1       3.858   5.505  18.308  0.00  0.00    +0.000 A 
ENDBRANCH  18  19
ENDBRANCH  17  18
ENDBRANCH   2  17
TORSDOF 8
ENDMDL
MODEL 5
REMARK VINA RESULT:      -7.8      2.315      9.380
REMARK  Name = 
REMARK  11 active torsions:
REMARK  status: ('A' for Active; 'I' for Inactive)
REMARK    1  A    between atoms: C_1  and  O_2
REMARK    2  A    between atoms: O_2  and  C_3
REMARK    3  A    between atoms: C_6  and  O_7
REMARK    4  A    between atoms: O_7  and  C_8
REMARK    5  A    between atoms: C_9  and  C_10
REMARK    6  A    between atoms: C_10  and  C_11
REMARK    7  A    between atoms: C_11  and  N_12
REMARK    8  A    between atoms: C_13  and  C_15
REMARK    9  A    between atoms: C_15  and  C_16
REMARK   10  A    between atoms: C_16  and  C_17
REMARK   11  A    between atoms: C_26  and  C_27
REMARK                            x       y       z     vdW  Elec       q    Type
REMARK                         _______ _______ _______ _____ _____    ______ ____
ROOT
ATOM      1  N   UNL     1       7.198   6.412  18.434  0.00  0.00    +0.000 N 
ATOM      2  C   UNL     1       7.529   7.286  17.490  0.00  0.00    +0.000 C 
ATOM      3  O   UNL     1       7.911   7.020  16.365  0.00  0.00    +0.000 OA
ATOM      4  H   UNL     1       6.986   6.707  19.378  0.00  0.00    +0.000 HD
ENDROOT
BRANCH   1   5
ATOM      5  C   UNL     1       7.146   4.979  18.186  0.00  0.00    +0.000 C 
BRANCH   5   6
ATOM      6  C   UNL     1       6.021   4.525  17.235  0.00  0.00    +0.000 C 
BRANCH   6  11
ATOM      7  C   UNL     1       2.533   3.195  18.079  0.00  0.00    +0.000 A 
ATOM      8  C   UNL     1       1.768   4.352  18.175  0.00  0.00    +0.000 A 
ATOM      9  C   UNL     1       2.382   5.579  18.044  0.00  0.00    +0.000 A 
ATOM     10  C   UNL     1       3.746   5.618  17.707  0.00  0.00    +0.000 A 
ATOM     11  C   UNL     1       4.565   4.500  17.673  0.00  0.00    +0.000 A 
ATOM     12  C   UNL     1       3.921   3.272  17.875  0.00  0.00    +0.000 A 
BRANCH   7  14
ATOM     13  C   UNL     1       0.629   2.111  18.944  0.00  0.00    +0.000 C 
ATOM     14  O   UNL     1       1.799   2.047  18.146  0.00  0.00    +0.000 OA
ENDBRANCH   7  14
BRANCH  10  15
ATOM     15  O   UNL     1       4.249   6.762  17.164  0.00  0.00    +0.000 OA
ATOM     16  C   UNL     1       3.396   7.808  17.610  0.00  0.00    +0.000 C 
ENDBRANCH  10  15
ENDBRANCH   6  11
ENDBRANCH   5   6
ENDBRANCH   1   5
BRANCH   2  17
ATOM     17  C   UNL     1       7.330   8.712  17.939  0.00  0.00    +0.000 C 
BRANCH  17  18
ATOM     18  C   UNL     1       8.578   9.535  17.590  0.00  0.00    +0.000 C 
BRANCH  18  19
ATOM     19  C   UNL     1       9.179  10.469  18.680  0.00  0.00    +0.000 C 
ATOM     20  O   UNL     1       9.408   9.797  19.722  0.00  0.00    +0.000 OA
ATOM     21  N   UNL     1       9.777  11.770  18.649  0.00  0.00    +0.000 N 
ATOM     22  C   UNL     1      11.052  11.633  19.395  0.00  0.00    +0.000 C 
ATOM     23  C   UNL     1      12.016  12.777  19.251  0.00  0.00    +0.000 C 
ATOM     24  O   UNL     1      12.143  12.994  17.842  0.00  0.00    +0.000 OA
ATOM     25  C   UNL     1      10.961  13.652  17.519  0.00  0.00    +0.000 A 
ATOM     26  C   UNL     1      11.246  14.984  17.140  0.00  0.00    +0.000 A 
ATOM     27  C   UNL     1      10.323  15.974  17.332  0.00  0.00    +0.000 A 
ATOM     28  C   UNL     1       9.114  15.637  17.942  0.00  0.00    +0.000 A 
ATOM     29  C   UNL     1       8.277  16.907  18.174  0.00  0.00    +0.000 C 
ATOM     30  C   UNL     1       8.808  14.200  18.245  0.00  0.00    +0.000 A 
ATOM     31  C   UNL     1       9.712  13.116  17.958  0.00  0.00    +0.000 A 
ENDBRANCH  18  19
ENDBRANCH  17  18
ENDBRANCH   2  17
TORSDOF 8
ENDMDL
MODEL 6
REMARK VINA RESULT:      -7.8      4.915      8.016
REMARK  Name = 
REMARK  11 active torsions:
REMARK  status: ('A' for Active; 'I' for Inactive)
REMARK    1  A    between atoms: C_1  and  O_2
REMARK    2  A    between atoms: O_2  and  C_3
REMARK    3  A    between atoms: C_6  and  O_7
REMARK    4  A    between atoms: O_7  and  C_8
REMARK    5  A    between atoms: C_9  and  C_10
REMARK    6  A    between atoms: C_10  and  C_11
REMARK    7  A    between atoms: C_11  and  N_12
REMARK    8  A    between atoms: C_13  and  C_15
REMARK    9  A    between atoms: C_15  and  C_16
REMARK   10  A    between atoms: C_16  and  C_17
REMARK   11  A    between atoms: C_26  and  C_27
REMARK                            x       y       z     vdW  Elec       q    Type
REMARK                         _______ _______ _______ _____ _____    ______ ____
ROOT
ATOM      1  N   UNL     1       0.297   9.893  22.453  0.00  0.00    +0.000 N 
ATOM      2  C   UNL     1       0.170   8.773  21.749  0.00  0.00    +0.000 C 
ATOM      3  O   UNL     1      -0.843   8.108  21.633  0.00  0.00    +0.000 OA
ATOM      4  H   UNL     1       1.197  10.336  22.585  0.00  0.00    +0.000 HD
ENDROOT
BRANCH   1   5
ATOM      5  C   UNL     1      -0.833  10.539  23.104  0.00  0.00    +0.000 C 
BRANCH   5   6
ATOM      6  C   UNL     1      -1.166  11.948  22.576  0.00  0.00    +0.000 C 
BRANCH   6  11
ATOM      7  C   UNL     1      -1.951  12.149  18.835  0.00  0.00    +0.000 A 
ATOM      8  C   UNL     1      -0.765  12.626  18.288  0.00  0.00    +0.000 A 
ATOM      9  C   UNL     1       0.276  12.961  19.126  0.00  0.00    +0.000 A 
ATOM     10  C   UNL     1       0.145  12.705  20.502  0.00  0.00    +0.000 A 
ATOM     11  C   UNL     1      -1.038  12.301  21.102  0.00  0.00    +0.000 A 
ATOM     12  C   UNL     1      -2.099  12.031  20.227  0.00  0.00    +0.000 A 
BRANCH   7  14
ATOM     13  C   UNL     1      -2.398  10.929  16.870  0.00  0.00    +0.000 C 
ATOM     14  O   UNL     1      -2.873  11.778  17.901  0.00  0.00    +0.000 OA
ENDBRANCH   7  14
BRANCH  10  15
ATOM     15  O   UNL     1       1.275  12.623  21.258  0.00  0.00    +0.000 OA
ATOM     16  C   UNL     1       2.018  13.801  20.972  0.00  0.00    +0.000 C 
ENDBRANCH  10  15
ENDBRANCH   6  11
ENDBRANCH   5   6
ENDBRANCH   1   5
BRANCH   2  17
ATOM     17  C   UNL     1       1.441   8.408  21.026  0.00  0.00    +0.000 C 
BRANCH  17  18
ATOM     18  C   UNL     1       1.449   9.070  19.641  0.00  0.00    +0.000 C 
BRANCH  18  19
ATOM     19  C   UNL     1       1.991   8.254  18.432  0.00  0.00    +0.000 C 
ATOM     20  O   UNL     1       2.072   9.009  17.425  0.00  0.00    +0.000 OA
ATOM     21  N   UNL     1       2.665   6.997  18.309  0.00  0.00    +0.000 N 
ATOM     22  C   UNL     1       3.848   7.269  17.455  0.00  0.00    +0.000 C 
ATOM     23  C   UNL     1       4.888   6.184  17.420  0.00  0.00    +0.000 C 
ATOM     24  O   UNL     1       5.170   5.881  18.790  0.00  0.00    +0.000 OA
ATOM     25  C   UNL     1       4.069   5.126  19.177  0.00  0.00    +0.000 A 
ATOM     26  C   UNL     1       4.469   3.793  19.428  0.00  0.00    +0.000 A 
ATOM     27  C   UNL     1       3.592   2.760  19.254  0.00  0.00    +0.000 A 
ATOM     28  C   UNL     1       2.309   3.056  18.790  0.00  0.00    +0.000 A 
ATOM     29  C   UNL     1       1.531   1.751  18.548  0.00  0.00    +0.000 C 
ATOM     30  C   UNL     1       1.889   4.486  18.626  0.00  0.00    +0.000 A 
ATOM     31  C   UNL     1       2.751   5.606  18.902  0.00  0.00    +0.000 A 
ENDBRANCH  18  19
ENDBRANCH  17  18
ENDBRANCH   2  17
TORSDOF 8
ENDMDL
MODEL 7
REMARK VINA RESULT:      -7.6      1.948      2.337
REMARK  Name = 
REMARK  11 active torsions:
REMARK  status: ('A' for Active; 'I' for Inactive)
REMARK    1  A    between atoms: C_1  and  O_2
REMARK    2  A    between atoms: O_2  and  C_3
REMARK    3  A    between atoms: C_6  and  O_7
REMARK    4  A    between atoms: O_7  and  C_8
REMARK    5  A    between atoms: C_9  and  C_10
REMARK    6  A    between atoms: C_10  and  C_11
REMARK    7  A    between atoms: C_11  and  N_12
REMARK    8  A    between atoms: C_13  and  C_15
REMARK    9  A    between atoms: C_15  and  C_16
REMARK   10  A    between atoms: C_16  and  C_17
REMARK   11  A    between atoms: C_26  and  C_27
REMARK                            x       y       z     vdW  Elec       q    Type
REMARK                         _______ _______ _______ _____ _____    ______ ____
ROOT
ATOM      1  N   UNL     1       7.538   8.041  18.038  0.00  0.00    +0.000 N 
ATOM      2  C   UNL     1       7.460   6.901  17.361  0.00  0.00    +0.000 C 
ATOM      3  O   UNL     1       7.726   6.745  16.182  0.00  0.00    +0.000 OA
ATOM      4  H   UNL     1       7.204   8.114  18.991  0.00  0.00    +0.000 HD
ENDROOT
BRANCH   1   5
ATOM      5  C   UNL     1       8.074   9.261  17.454  0.00  0.00    +0.000 C 
BRANCH   5   6
ATOM      6  C   UNL     1       9.188   9.939  18.277  0.00  0.00    +0.000 C 
BRANCH   6  11
ATOM      7  C   UNL     1       8.274  13.644  17.975  0.00  0.00    +0.000 A 
ATOM      8  C   UNL     1       9.368  14.286  18.542  0.00  0.00    +0.000 A 
ATOM      9  C   UNL     1      10.380  13.533  19.096  0.00  0.00    +0.000 A 
ATOM     10  C   UNL     1      10.325  12.134  18.973  0.00  0.00    +0.000 A 
ATOM     11  C   UNL     1       9.225  11.445  18.485  0.00  0.00    +0.000 A 
ATOM     12  C   UNL     1       8.184  12.241  17.988  0.00  0.00    +0.000 A 
BRANCH   7  14
ATOM     13  C   UNL     1       6.389  15.029  18.248  0.00  0.00    +0.000 C 
ATOM     14  O   UNL     1       7.382  14.494  17.390  0.00  0.00    +0.000 OA
ENDBRANCH   7  14
BRANCH  10  15
ATOM     15  O   UNL     1      11.477  11.423  19.119  0.00  0.00    +0.000 OA
ATOM     16  C   UNL     1      12.324  12.223  19.933  0.00  0.00    +0.000 C 
ENDBRANCH  10  15
ENDBRANCH   6  11
ENDBRANCH   5   6
ENDBRANCH   1   5
BRANCH   2  17
ATOM     17  C   UNL     1       7.046   5.745  18.236  0.00  0.00    +0.000 C 
BRANCH  17  18
ATOM     18  C   UNL     1       6.484   4.617  17.359  0.00  0.00    +0.000 C 
BRANCH  18  19
ATOM     19  C   UNL     1       4.946   4.552  17.129  0.00  0.00    +0.000 C 
ATOM     20  O   UNL     1       4.677   3.558  16.403  0.00  0.00    +0.000 OA
ATOM     21  N   UNL     1       3.823   5.156  17.780  0.00  0.00    +0.000 N 
ATOM     22  C   UNL     1       2.885   4.040  18.057  0.00  0.00    +0.000 C 
ATOM     23  C   UNL     1       1.761   4.355  19.004  0.00  0.00    +0.000 C 
ATOM     24  O   UNL     1       2.382   4.941  20.153  0.00  0.00    +0.000 OA
ATOM     25  C   UNL     1       2.683   6.229  19.723  0.00  0.00    +0.000 A 
ATOM     26  C   UNL     1       1.888   7.164  20.425  0.00  0.00    +0.000 A 
ATOM     27  C   UNL     1       1.546   8.355  19.850  0.00  0.00    +0.000 A 
ATOM     28  C   UNL     1       1.975   8.604  18.545  0.00  0.00    +0.000 A 
ATOM     29  C   UNL     1       1.383   9.935  18.049  0.00  0.00    +0.000 C 
ATOM     30  C   UNL     1       2.895   7.634  17.866  0.00  0.00    +0.000 A 
ATOM     31  C   UNL     1       3.363   6.417  18.480  0.00  0.00    +0.000 A 
ENDBRANCH  18  19
ENDBRANCH  17  18
ENDBRANCH   2  17
TORSDOF 8
ENDMDL
MODEL 8
REMARK VINA RESULT:      -7.6      2.891      9.272
REMARK  Name = 
REMARK  11 active torsions:
REMARK  status: ('A' for Active; 'I' for Inactive)
REMARK    1  A    between atoms: C_1  and  O_2
REMARK    2  A    between atoms: O_2  and  C_3
REMARK    3  A    between atoms: C_6  and  O_7
REMARK    4  A    between atoms: O_7  and  C_8
REMARK    5  A    between atoms: C_9  and  C_10
REMARK    6  A    between atoms: C_10  and  C_11
REMARK    7  A    between atoms: C_11  and  N_12
REMARK    8  A    between atoms: C_13  and  C_15
REMARK    9  A    between atoms: C_15  and  C_16
REMARK   10  A    between atoms: C_16  and  C_17
REMARK   11  A    between atoms: C_26  and  C_27
REMARK                            x       y       z     vdW  Elec       q    Type
REMARK                         _______ _______ _______ _____ _____    ______ ____
ROOT
ATOM      1  N   UNL     1       6.656   6.584  16.073  0.00  0.00    +0.000 N 
ATOM      2  C   UNL     1       6.514   7.377  17.130  0.00  0.00    +0.000 C 
ATOM      3  O   UNL     1       5.462   7.694  17.655  0.00  0.00    +0.000 OA
ATOM      4  H   UNL     1       7.556   6.447  15.632  0.00  0.00    +0.000 HD
ENDROOT
BRANCH   1   5
ATOM      5  C   UNL     1       5.534   5.886  15.464  0.00  0.00    +0.000 C 
BRANCH   5   6
ATOM      6  C   UNL     1       5.411   4.398  15.846  0.00  0.00    +0.000 C 
BRANCH   6  11
ATOM      7  C   UNL     1       2.558   3.596  18.268  0.00  0.00    +0.000 A 
ATOM      8  C   UNL     1       3.211   3.441  19.485  0.00  0.00    +0.000 A 
ATOM      9  C   UNL     1       4.586   3.518  19.527  0.00  0.00    +0.000 A 
ATOM     10  C   UNL     1       5.279   3.861  18.354  0.00  0.00    +0.000 A 
ATOM     11  C   UNL     1       4.683   3.953  17.105  0.00  0.00    +0.000 A 
ATOM     12  C   UNL     1       3.290   3.805  17.087  0.00  0.00    +0.000 A 
BRANCH   7  14
ATOM     13  C   UNL     1       0.628   2.355  18.799  0.00  0.00    +0.000 C 
ATOM     14  O   UNL     1       1.198   3.580  18.371  0.00  0.00    +0.000 OA
ENDBRANCH   7  14
BRANCH  10  15
ATOM     15  O   UNL     1       6.545   4.351  18.466  0.00  0.00    +0.000 OA
ATOM     16  C   UNL     1       6.549   5.140  19.649  0.00  0.00    +0.000 C 
ENDBRANCH  10  15
ENDBRANCH   6  11
ENDBRANCH   5   6
ENDBRANCH   1   5
BRANCH   2  17
ATOM     17  C   UNL     1       7.841   7.832  17.683  0.00  0.00    +0.000 C 
BRANCH  17  18
ATOM     18  C   UNL     1       7.985   9.347  17.484  0.00  0.00    +0.000 C 
BRANCH  18  19
ATOM     19  C   UNL     1       8.797  10.160  18.533  0.00  0.00    +0.000 C 
ATOM     20  O   UNL     1       9.082   9.412  19.508  0.00  0.00    +0.000 OA
ATOM     21  N   UNL     1       9.510  11.401  18.488  0.00  0.00    +0.000 N 
ATOM     22  C   UNL     1      10.845  11.108  19.065  0.00  0.00    +0.000 C 
ATOM     23  C   UNL     1      11.890  12.168  18.856  0.00  0.00    +0.000 C 
ATOM     24  O   UNL     1      11.871  12.451  17.453  0.00  0.00    +0.000 OA
ATOM     25  C   UNL     1      10.728  13.231  17.307  0.00  0.00    +0.000 A 
ATOM     26  C   UNL     1      11.093  14.550  16.957  0.00  0.00    +0.000 A 
ATOM     27  C   UNL     1      10.299  15.607  17.305  0.00  0.00    +0.000 A 
ATOM     28  C   UNL     1       9.143  15.346  18.043  0.00  0.00    +0.000 A 
ATOM     29  C   UNL     1       8.465  16.672  18.433  0.00  0.00    +0.000 C 
ATOM     30  C   UNL     1       8.738  13.928  18.315  0.00  0.00    +0.000 A 
ATOM     31  C   UNL     1       9.493  12.784  17.872  0.00  0.00    +0.000 A 
ENDBRANCH  18  19
ENDBRANCH  17  18
ENDBRANCH   2  17
TORSDOF 8
ENDMDL
MODEL 9
REMARK VINA RESULT:      -7.6      2.377      9.196
REMARK  Name = 
REMARK  11 active torsions:
REMARK  status: ('A' for Active; 'I' for Inactive)
REMARK    1  A    between atoms: C_1  and  O_2
REMARK    2  A    between atoms: O_2  and  C_3
REMARK    3  A    between atoms: C_6  and  O_7
REMARK    4  A    between atoms: O_7  and  C_8
REMARK    5  A    between atoms: C_9  and  C_10
REMARK    6  A    between atoms: C_10  and  C_11
REMARK    7  A    between atoms: C_11  and  N_12
REMARK    8  A    between atoms: C_13  and  C_15
REMARK    9  A    between atoms: C_15  and  C_16
REMARK   10  A    between atoms: C_16  and  C_17
REMARK   11  A    between atoms: C_26  and  C_27
REMARK                            x       y       z     vdW  Elec       q    Type
REMARK                         _______ _______ _______ _____ _____    ______ ____
ROOT
ATOM      1  N   UNL     1       6.127   7.547  16.839  0.00  0.00    +0.000 N 
ATOM      2  C   UNL     1       6.996   7.074  17.726  0.00  0.00    +0.000 C 
ATOM      3  O   UNL     1       6.823   6.122  18.466  0.00  0.00    +0.000 OA
ATOM      4  H   UNL     1       6.304   8.403  16.331  0.00  0.00    +0.000 HD
ENDROOT
BRANCH   1   5
ATOM      5  C   UNL     1       4.860   6.889  16.561  0.00  0.00    +0.000 C 
BRANCH   5   6
ATOM      6  C   UNL     1       3.702   7.289  17.498  0.00  0.00    +0.000 C 
BRANCH   6  11
ATOM      7  C   UNL     1       2.220   4.019  18.825  0.00  0.00    +0.000 A 
ATOM      8  C   UNL     1       1.589   4.412  20.000  0.00  0.00    +0.000 A 
ATOM      9  C   UNL     1       1.698   5.721  20.418  0.00  0.00    +0.000 A 
ATOM     10  C   UNL     1       2.352   6.644  19.584  0.00  0.00    +0.000 A 
ATOM     11  C   UNL     1       3.058   6.289  18.445  0.00  0.00    +0.000 A 
ATOM     12  C   UNL     1       2.982   4.938  18.082  0.00  0.00    +0.000 A 
BRANCH   7  14
ATOM     13  C   UNL     1       0.740   2.191  18.931  0.00  0.00    +0.000 C 
ATOM     14  O   UNL     1       1.972   2.724  18.478  0.00  0.00    +0.000 OA
ENDBRANCH   7  14
BRANCH  10  15
ATOM     15  O   UNL     1       2.100   7.971  19.761  0.00  0.00    +0.000 OA
ATOM     16  C   UNL     1       1.316   8.061  20.943  0.00  0.00    +0.000 C 
ENDBRANCH  10  15
ENDBRANCH   6  11
ENDBRANCH   5   6
ENDBRANCH   1   5
BRANCH   2  17
ATOM     17  C   UNL     1       8.305   7.823  17.698  0.00  0.00    +0.000 C 
BRANCH  17  18
ATOM     18  C   UNL     1       8.029   9.333  17.737  0.00  0.00    +0.000 C 
BRANCH  18  19
ATOM     19  C   UNL     1       8.841  10.209  18.734  0.00  0.00    +0.000 C 
ATOM     20  O   UNL     1       9.161   9.512  19.734  0.00  0.00    +0.000 OA
ATOM     21  N   UNL     1       9.522  11.464  18.620  0.00  0.00    +0.000 N 
ATOM     22  C   UNL     1      10.875  11.227  19.183  0.00  0.00    +0.000 C 
ATOM     23  C   UNL     1      11.890  12.300  18.908  0.00  0.00    +0.000 C 
ATOM     24  O   UNL     1      11.838  12.521  17.494  0.00  0.00    +0.000 OA
ATOM     25  C   UNL     1      10.675  13.267  17.337  0.00  0.00    +0.000 A 
ATOM     26  C   UNL     1      11.001  14.578  16.922  0.00  0.00    +0.000 A 
ATOM     27  C   UNL     1      10.189  15.630  17.239  0.00  0.00    +0.000 A 
ATOM     28  C   UNL     1       9.053  15.375  18.010  0.00  0.00    +0.000 A 
ATOM     29  C   UNL     1       8.352  16.701  18.355  0.00  0.00    +0.000 C 
ATOM     30  C   UNL     1       8.687  13.962  18.352  0.00  0.00    +0.000 A 
ATOM     31  C   UNL     1       9.462  12.817  17.945  0.00  0.00    +0.000 A 
ENDBRANCH  18  19
ENDBRANCH  17  18
ENDBRANCH   2  17
TORSDOF 8
ENDMDL
