MODEL 1
REMARK VINA RESULT:      -8.4      0.000      0.000
REMARK  Name = 
REMARK  11 active torsions:
REMARK  status: ('A' for Active; 'I' for Inactive)
REMARK    1  A    between atoms: C_1  and  N_2
REMARK    2  A    between atoms: C_4  and  C_5
REMARK    3  A    between atoms: C_8  and  C_9
REMARK    4  A    between atoms: C_8  and  C_11
REMARK    5  A    between atoms: C_9  and  O_10
REMARK    6  A    between atoms: C_11  and  O_12
REMARK    7  A    between atoms: O_12  and  C_13
REMARK    8  A    between atoms: C_13  and  C_15
REMARK    9  A    between atoms: C_15  and  C_16
REMARK   10  A    between atoms: C_15  and  C_17
REMARK   11  A    between atoms: C_15  and  C_18
REMARK                            x       y       z     vdW  Elec       q    Type
REMARK                         _______ _______ _______ _____ _____    ______ ____
ROOT
ATOM      1  C   UNL     1       1.657   6.067  21.066  0.00  0.00    +0.000 C 
ATOM      2  C   UNL     1       2.222   5.021  20.444  0.00  0.00    +0.000 C 
ATOM      3  C   UNL     1       2.820   4.948  19.089  0.00  0.00    +0.000 C 
ATOM      4  C   UNL     1       2.904   3.446  18.838  0.00  0.00    +0.000 C 
ATOM      5  O   UNL     1       2.847   2.832  20.147  0.00  0.00    +0.000 OA
ATOM      6  C   UNL     1       2.361   3.701  21.079  0.00  0.00    +0.000 C 
ATOM      7  O   UNL     1       2.105   3.423  22.234  0.00  0.00    +0.000 OA
ENDROOT
BRANCH   1  11
ATOM      8  C   UNL     1       2.011   9.660  17.904  0.00  0.00    +0.000 C 
ATOM      9  N   UNL     1       1.642   8.982  19.124  0.00  0.00    +0.000 N 
ATOM     10  N   UNL     1       2.000   7.703  19.293  0.00  0.00    +0.000 NA
ATOM     11  C   UNL     1       1.490   7.364  20.483  0.00  0.00    +0.000 A 
ATOM     12  C   UNL     1       0.802   8.460  21.082  0.00  0.00    +0.000 A 
ATOM     13  C   UNL     1       0.105   8.690  22.286  0.00  0.00    +0.000 A 
ATOM     14  C   UNL     1      -0.407   9.967  22.541  0.00  0.00    +0.000 A 
ATOM     15  C   UNL     1      -0.235  11.003  21.625  0.00  0.00    +0.000 A 
ATOM     16  C   UNL     1       0.444  10.796  20.420  0.00  0.00    +0.000 A 
ATOM     17  C   UNL     1       0.947   9.511  20.177  0.00  0.00    +0.000 A 
ENDBRANCH   1  11
BRANCH   4  18
ATOM     18  C   UNL     1       1.725   2.929  17.991  0.00  0.00    +0.000 C 
BRANCH  18  19
ATOM     19  O   UNL     1       1.063   3.980  17.289  0.00  0.00    +0.000 OA
ATOM     20  H   UNL     1       1.681   4.733  17.251  0.00  0.00    +0.000 HD
ENDBRANCH  18  19
ENDBRANCH   4  18
BRANCH   4  21
ATOM     21  C   UNL     1       4.250   3.106  18.177  0.00  0.00    +0.000 C 
BRANCH  21  22
ATOM     22  O   UNL     1       4.705   4.190  17.341  0.00  0.00    +0.000 OA
BRANCH  22  23
ATOM     23  C   UNL     1       5.948   4.684  17.603  0.00  0.00    +0.000 C 
ATOM     24  O   UNL     1       6.630   4.351  18.562  0.00  0.00    +0.000 OA
BRANCH  23  25
ATOM     25  C   UNL     1       6.360   5.729  16.564  0.00  0.00    +0.000 C 
ATOM     26  C   UNL     1       5.122   6.498  16.088  0.00  0.00    +0.000 C 
ATOM     27  C   UNL     1       7.347   6.715  17.210  0.00  0.00    +0.000 C 
ATOM     28  C   UNL     1       7.046   5.043  15.376  0.00  0.00    +0.000 C 
ENDBRANCH  23  25
ENDBRANCH  22  23
ENDBRANCH  21  22
ENDBRANCH   4  21
TORSDOF 7
ENDMDL
MODEL 2
REMARK VINA RESULT:      -8.2      0.836      1.190
REMARK  Name = 
REMARK  11 active torsions:
REMARK  status: ('A' for Active; 'I' for Inactive)
REMARK    1  A    between atoms: C_1  and  N_2
REMARK    2  A    between atoms: C_4  and  C_5
REMARK    3  A    between atoms: C_8  and  C_9
REMARK    4  A    between atoms: C_8  and  C_11
REMARK    5  A    between atoms: C_9  and  O_10
REMARK    6  A    between atoms: C_11  and  O_12
REMARK    7  A    between atoms: O_12  and  C_13
REMARK    8  A    between atoms: C_13  and  C_15
REMARK    9  A    between atoms: C_15  and  C_16
REMARK   10  A    between atoms: C_15  and  C_17
REMARK   11  A    between atoms: C_15  and  C_18
REMARK                            x       y       z     vdW  Elec       q    Type
REMARK                         _______ _______ _______ _____ _____    ______ ____
ROOT
ATOM      1  C   UNL     1       1.461   6.070  21.053  0.00  0.00    +0.000 C 
ATOM      2  C   UNL     1       2.282   5.139  20.541  0.00  0.00    +0.000 C 
ATOM      3  C   UNL     1       3.235   5.251  19.411  0.00  0.00    +0.000 C 
ATOM      4  C   UNL     1       3.542   3.793  19.084  0.00  0.00    +0.000 C 
ATOM      5  O   UNL     1       3.190   3.048  20.274  0.00  0.00    +0.000 OA
ATOM      6  C   UNL     1       2.377   3.777  21.090  0.00  0.00    +0.000 C 
ATOM      7  O   UNL     1       1.843   3.366  22.100  0.00  0.00    +0.000 OA
ENDROOT
BRANCH   1  11
ATOM      8  C   UNL     1       1.891   9.820  18.090  0.00  0.00    +0.000 C 
ATOM      9  N   UNL     1       1.514   9.087  19.275  0.00  0.00    +0.000 N 
ATOM     10  N   UNL     1       1.836   7.791  19.370  0.00  0.00    +0.000 NA
ATOM     11  C   UNL     1       1.327   7.401  20.545  0.00  0.00    +0.000 A 
ATOM     12  C   UNL     1       0.676   8.481  21.210  0.00  0.00    +0.000 A 
ATOM     13  C   UNL     1      -0.002   8.664  22.432  0.00  0.00    +0.000 A 
ATOM     14  C   UNL     1      -0.475   9.940  22.763  0.00  0.00    +0.000 A 
ATOM     15  C   UNL     1      -0.280  11.019  21.903  0.00  0.00    +0.000 A 
ATOM     16  C   UNL     1       0.381  10.860  20.682  0.00  0.00    +0.000 A 
ATOM     17  C   UNL     1       0.844   9.577  20.363  0.00  0.00    +0.000 A 
ENDBRANCH   1  11
BRANCH   4  18
ATOM     18  C   UNL     1       2.703   3.272  17.901  0.00  0.00    +0.000 C 
BRANCH  18  19
ATOM     19  O   UNL     1       2.470   1.866  17.982  0.00  0.00    +0.000 OA
ATOM     20  H   UNL     1       2.957   1.452  17.247  0.00  0.00    +0.000 HD
ENDBRANCH  18  19
ENDBRANCH   4  18
BRANCH   4  21
ATOM     21  C   UNL     1       5.046   3.630  18.809  0.00  0.00    +0.000 C 
BRANCH  21  22
ATOM     22  O   UNL     1       5.714   4.908  18.807  0.00  0.00    +0.000 OA
BRANCH  22  23
ATOM     23  C   UNL     1       6.837   5.010  18.043  0.00  0.00    +0.000 C 
ATOM     24  O   UNL     1       7.846   4.340  18.215  0.00  0.00    +0.000 OA
BRANCH  23  25
ATOM     25  C   UNL     1       6.683   6.089  16.969  0.00  0.00    +0.000 C 
ATOM     26  C   UNL     1       7.610   7.269  17.289  0.00  0.00    +0.000 C 
ATOM     27  C   UNL     1       7.073   5.498  15.605  0.00  0.00    +0.000 C 
ATOM     28  C   UNL     1       5.225   6.563  16.910  0.00  0.00    +0.000 C 
ENDBRANCH  23  25
ENDBRANCH  22  23
ENDBRANCH  21  22
ENDBRANCH   4  21
TORSDOF 7
ENDMDL
MODEL 3
REMARK VINA RESULT:      -8.0      0.940      1.231
REMARK  Name = 
REMARK  11 active torsions:
REMARK  status: ('A' for Active; 'I' for Inactive)
REMARK    1  A    between atoms: C_1  and  N_2
REMARK    2  A    between atoms: C_4  and  C_5
REMARK    3  A    between atoms: C_8  and  C_9
REMARK    4  A    between atoms: C_8  and  C_11
REMARK    5  A    between atoms: C_9  and  O_10
REMARK    6  A    between atoms: C_11  and  O_12
REMARK    7  A    between atoms: O_12  and  C_13
REMARK    8  A    between atoms: C_13  and  C_15
REMARK    9  A    between atoms: C_15  and  C_16
REMARK   10  A    between atoms: C_15  and  C_17
REMARK   11  A    between atoms: C_15  and  C_18
REMARK                            x       y       z     vdW  Elec       q    Type
REMARK                         _______ _______ _______ _____ _____    ______ ____
ROOT
ATOM      1  C   UNL     1       1.674   6.235  21.089  0.00  0.00    +0.000 C 
ATOM      2  C   UNL     1       2.085   5.175  20.376  0.00  0.00    +0.000 C 
ATOM      3  C   UNL     1       2.428   5.091  18.936  0.00  0.00    +0.000 C 
ATOM      4  C   UNL     1       2.420   3.588  18.675  0.00  0.00    +0.000 C 
ATOM      5  O   UNL     1       2.580   2.970  19.974  0.00  0.00    +0.000 OA
ATOM      6  C   UNL     1       2.295   3.848  20.977  0.00  0.00    +0.000 C 
ATOM      7  O   UNL     1       2.242   3.573  22.159  0.00  0.00    +0.000 OA
ENDROOT
BRANCH   1  11
ATOM      8  C   UNL     1       1.830   9.923  18.023  0.00  0.00    +0.000 C 
ATOM      9  N   UNL     1       1.509   9.198  19.229  0.00  0.00    +0.000 N 
ATOM     10  N   UNL     1       1.921   7.931  19.358  0.00  0.00    +0.000 NA
ATOM     11  C   UNL     1       1.445   7.539  20.545  0.00  0.00    +0.000 A 
ATOM     12  C   UNL     1       0.721   8.588  21.183  0.00  0.00    +0.000 A 
ATOM     13  C   UNL     1       0.034   8.757  22.403  0.00  0.00    +0.000 A 
ATOM     14  C   UNL     1      -0.527  10.004  22.701  0.00  0.00    +0.000 A 
ATOM     15  C   UNL     1      -0.411  11.070  21.811  0.00  0.00    +0.000 A 
ATOM     16  C   UNL     1       0.256  10.925  20.592  0.00  0.00    +0.000 A 
ATOM     17  C   UNL     1       0.809   9.669  20.306  0.00  0.00    +0.000 A 
ENDBRANCH   1  11
BRANCH   4  18
ATOM     18  C   UNL     1       1.093   3.111  18.054  0.00  0.00    +0.000 C 
BRANCH  18  19
ATOM     19  O   UNL     1       0.793   1.759  18.395  0.00  0.00    +0.000 OA
ATOM     20  H   UNL     1      -0.177   1.686  18.450  0.00  0.00    +0.000 HD
ENDBRANCH  18  19
ENDBRANCH   4  18
BRANCH   4  21
ATOM     21  C   UNL     1       3.615   3.211  17.783  0.00  0.00    +0.000 C 
BRANCH  21  22
ATOM     22  O   UNL     1       4.001   4.316  16.941  0.00  0.00    +0.000 OA
BRANCH  22  23
ATOM     23  C   UNL     1       5.336   4.484  16.726  0.00  0.00    +0.000 C 
ATOM     24  O   UNL     1       6.023   3.724  16.057  0.00  0.00    +0.000 OA
BRANCH  23  25
ATOM     25  C   UNL     1       5.866   5.721  17.454  0.00  0.00    +0.000 C 
ATOM     26  C   UNL     1       6.045   5.403  18.944  0.00  0.00    +0.000 C 
ATOM     27  C   UNL     1       7.228   6.110  16.856  0.00  0.00    +0.000 C 
ATOM     28  C   UNL     1       4.890   6.890  17.276  0.00  0.00    +0.000 C 
ENDBRANCH  23  25
ENDBRANCH  22  23
ENDBRANCH  21  22
ENDBRANCH   4  21
TORSDOF 7
ENDMDL
MODEL 4
REMARK VINA RESULT:      -7.9      1.150      1.551
REMARK  Name = 
REMARK  11 active torsions:
REMARK  status: ('A' for Active; 'I' for Inactive)
REMARK    1  A    between atoms: C_1  and  N_2
REMARK    2  A    between atoms: C_4  and  C_5
REMARK    3  A    between atoms: C_8  and  C_9
REMARK    4  A    between atoms: C_8  and  C_11
REMARK    5  A    between atoms: C_9  and  O_10
REMARK    6  A    between atoms: C_11  and  O_12
REMARK    7  A    between atoms: O_12  and  C_13
REMARK    8  A    between atoms: C_13  and  C_15
REMARK    9  A    between atoms: C_15  and  C_16
REMARK   10  A    between atoms: C_15  and  C_17
REMARK   11  A    between atoms: C_15  and  C_18
REMARK                            x       y       z     vdW  Elec       q    Type
REMARK                         _______ _______ _______ _____ _____    ______ ____
ROOT
ATOM      1  C   UNL     1       1.522   6.483  20.872  0.00  0.00    +0.000 C 
ATOM      2  C   UNL     1       2.422   5.668  20.298  0.00  0.00    +0.000 C 
ATOM      3  C   UNL     1       3.389   5.957  19.213  0.00  0.00    +0.000 C 
ATOM      4  C   UNL     1       3.812   4.564  18.758  0.00  0.00    +0.000 C 
ATOM      5  O   UNL     1       3.490   3.684  19.861  0.00  0.00    +0.000 OA
ATOM      6  C   UNL     1       2.607   4.270  20.719  0.00  0.00    +0.000 C 
ATOM      7  O   UNL     1       2.082   3.725  21.669  0.00  0.00    +0.000 OA
ENDROOT
BRANCH   1  11
ATOM      8  C   UNL     1       1.656  10.497  18.246  0.00  0.00    +0.000 C 
ATOM      9  N   UNL     1       1.356   9.642  19.369  0.00  0.00    +0.000 N 
ATOM     10  N   UNL     1       1.751   8.364  19.340  0.00  0.00    +0.000 NA
ATOM     11  C   UNL     1       1.300   7.843  20.488  0.00  0.00    +0.000 A 
ATOM     12  C   UNL     1       0.611   8.822  21.263  0.00  0.00    +0.000 A 
ATOM     13  C   UNL     1      -0.039   8.858  22.513  0.00  0.00    +0.000 A 
ATOM     14  C   UNL     1      -0.570  10.070  22.969  0.00  0.00    +0.000 A 
ATOM     15  C   UNL     1      -0.461  11.230  22.205  0.00  0.00    +0.000 A 
ATOM     16  C   UNL     1       0.170  11.217  20.958  0.00  0.00    +0.000 A 
ATOM     17  C   UNL     1       0.694   9.996  20.513  0.00  0.00    +0.000 A 
ENDBRANCH   1  11
BRANCH   4  18
ATOM     18  C   UNL     1       3.041   4.100  17.507  0.00  0.00    +0.000 C 
BRANCH  18  19
ATOM     19  O   UNL     1       2.880   2.683  17.467  0.00  0.00    +0.000 OA
ATOM     20  H   UNL     1       2.074   2.500  16.951  0.00  0.00    +0.000 HD
ENDBRANCH  18  19
ENDBRANCH   4  18
BRANCH   4  21
ATOM     21  C   UNL     1       5.330   4.537  18.514  0.00  0.00    +0.000 C 
BRANCH  21  22
ATOM     22  O   UNL     1       5.642   3.888  17.265  0.00  0.00    +0.000 OA
BRANCH  22  23
ATOM     23  C   UNL     1       6.673   4.412  16.544  0.00  0.00    +0.000 C 
ATOM     24  O   UNL     1       7.829   4.464  16.939  0.00  0.00    +0.000 OA
BRANCH  23  25
ATOM     25  C   UNL     1       6.190   4.955  15.197  0.00  0.00    +0.000 C 
ATOM     26  C   UNL     1       7.397   5.245  14.297  0.00  0.00    +0.000 C 
ATOM     27  C   UNL     1       5.300   3.900  14.521  0.00  0.00    +0.000 C 
ATOM     28  C   UNL     1       5.371   6.234  15.412  0.00  0.00    +0.000 C 
ENDBRANCH  23  25
ENDBRANCH  22  23
ENDBRANCH  21  22
ENDBRANCH   4  21
TORSDOF 7
ENDMDL
MODEL 5
REMARK VINA RESULT:      -7.7      0.790      1.079
REMARK  Name = 
REMARK  11 active torsions:
REMARK  status: ('A' for Active; 'I' for Inactive)
REMARK    1  A    between atoms: C_1  and  N_2
REMARK    2  A    between atoms: C_4  and  C_5
REMARK    3  A    between atoms: C_8  and  C_9
REMARK    4  A    between atoms: C_8  and  C_11
REMARK    5  A    between atoms: C_9  and  O_10
REMARK    6  A    between atoms: C_11  and  O_12
REMARK    7  A    between atoms: O_12  and  C_13
REMARK    8  A    between atoms: C_13  and  C_15
REMARK    9  A    between atoms: C_15  and  C_16
REMARK   10  A    between atoms: C_15  and  C_17
REMARK   11  A    between atoms: C_15  and  C_18
REMARK                            x       y       z     vdW  Elec       q    Type
REMARK                         _______ _______ _______ _____ _____    ______ ____
ROOT
ATOM      1  C   UNL     1       1.668   6.294  21.187  0.00  0.00    +0.000 C 
ATOM      2  C   UNL     1       2.012   5.209  20.476  0.00  0.00    +0.000 C 
ATOM      3  C   UNL     1       2.264   5.085  19.020  0.00  0.00    +0.000 C 
ATOM      4  C   UNL     1       2.208   3.577  18.796  0.00  0.00    +0.000 C 
ATOM      5  O   UNL     1       2.433   2.985  20.097  0.00  0.00    +0.000 OA
ATOM      6  C   UNL     1       2.230   3.892  21.094  0.00  0.00    +0.000 C 
ATOM      7  O   UNL     1       2.243   3.645  22.284  0.00  0.00    +0.000 OA
ENDROOT
BRANCH   1  11
ATOM      8  C   UNL     1       1.744   9.919  18.043  0.00  0.00    +0.000 C 
ATOM      9  N   UNL     1       1.465   9.222  19.275  0.00  0.00    +0.000 N 
ATOM     10  N   UNL     1       1.865   7.952  19.412  0.00  0.00    +0.000 NA
ATOM     11  C   UNL     1       1.434   7.590  20.627  0.00  0.00    +0.000 A 
ATOM     12  C   UNL     1       0.753   8.663  21.274  0.00  0.00    +0.000 A 
ATOM     13  C   UNL     1       0.122   8.866  22.518  0.00  0.00    +0.000 A 
ATOM     14  C   UNL     1      -0.408  10.127  22.814  0.00  0.00    +0.000 A 
ATOM     15  C   UNL     1      -0.315  11.174  21.899  0.00  0.00    +0.000 A 
ATOM     16  C   UNL     1       0.297  10.994  20.655  0.00  0.00    +0.000 A 
ATOM     17  C   UNL     1       0.819   9.725  20.372  0.00  0.00    +0.000 A 
ENDBRANCH   1  11
BRANCH   4  18
ATOM     18  C   UNL     1       0.835   3.117  18.268  0.00  0.00    +0.000 C 
BRANCH  18  19
ATOM     19  O   UNL     1       0.217   2.164  19.131  0.00  0.00    +0.000 OA
ATOM     20  H   UNL     1       0.751   1.350  19.090  0.00  0.00    +0.000 HD
ENDBRANCH  18  19
ENDBRANCH   4  18
BRANCH   4  21
ATOM     21  C   UNL     1       3.337   3.153  17.843  0.00  0.00    +0.000 C 
BRANCH  21  22
ATOM     22  O   UNL     1       3.988   4.303  17.266  0.00  0.00    +0.000 OA
BRANCH  22  23
ATOM     23  C   UNL     1       5.333   4.406  17.457  0.00  0.00    +0.000 C 
ATOM     24  O   UNL     1       5.914   4.012  18.458  0.00  0.00    +0.000 OA
BRANCH  23  25
ATOM     25  C   UNL     1       6.011   5.105  16.277  0.00  0.00    +0.000 C 
ATOM     26  C   UNL     1       6.233   4.098  15.142  0.00  0.00    +0.000 C 
ATOM     27  C   UNL     1       5.100   6.237  15.774  0.00  0.00    +0.000 C 
ATOM     28  C   UNL     1       7.351   5.704  16.723  0.00  0.00    +0.000 C 
ENDBRANCH  23  25
ENDBRANCH  22  23
ENDBRANCH  21  22
ENDBRANCH   4  21
TORSDOF 7
ENDMDL
MODEL 6
REMARK VINA RESULT:      -7.7      4.239      7.799
REMARK  Name = 
REMARK  11 active torsions:
REMARK  status: ('A' for Active; 'I' for Inactive)
REMARK    1  A    between atoms: C_1  and  N_2
REMARK    2  A    between atoms: C_4  and  C_5
REMARK    3  A    between atoms: C_8  and  C_9
REMARK    4  A    between atoms: C_8  and  C_11
REMARK    5  A    between atoms: C_9  and  O_10
REMARK    6  A    between atoms: C_11  and  O_12
REMARK    7  A    between atoms: O_12  and  C_13
REMARK    8  A    between atoms: C_13  and  C_15
REMARK    9  A    between atoms: C_15  and  C_16
REMARK   10  A    between atoms: C_15  and  C_17
REMARK   11  A    between atoms: C_15  and  C_18
REMARK                            x       y       z     vdW  Elec       q    Type
REMARK                         _______ _______ _______ _____ _____    ______ ____
ROOT
ATOM      1  C   UNL     1       1.541   7.934  21.333  0.00  0.00    +0.000 C 
ATOM      2  C   UNL     1       0.830   9.071  21.258  0.00  0.00    +0.000 C 
ATOM      3  C   UNL     1       0.341   9.791  20.058  0.00  0.00    +0.000 C 
ATOM      4  C   UNL     1      -0.021  11.164  20.614  0.00  0.00    +0.000 C 
ATOM      5  O   UNL     1      -0.194  10.971  22.037  0.00  0.00    +0.000 OA
ATOM      6  C   UNL     1       0.379   9.805  22.450  0.00  0.00    +0.000 C 
ATOM      7  O   UNL     1       0.481   9.440  23.605  0.00  0.00    +0.000 OA
ENDROOT
BRANCH   1  11
ATOM      8  C   UNL     1       3.729   6.987  17.169  0.00  0.00    +0.000 C 
ATOM      9  N   UNL     1       2.945   6.740  18.355  0.00  0.00    +0.000 N 
ATOM     10  N   UNL     1       2.725   7.744  19.212  0.00  0.00    +0.000 NA
ATOM     11  C   UNL     1       2.010   7.194  20.201  0.00  0.00    +0.000 A 
ATOM     12  C   UNL     1       1.768   5.811  19.956  0.00  0.00    +0.000 A 
ATOM     13  C   UNL     1       1.090   4.764  20.613  0.00  0.00    +0.000 A 
ATOM     14  C   UNL     1       1.030   3.505  20.003  0.00  0.00    +0.000 A 
ATOM     15  C   UNL     1       1.628   3.282  18.765  0.00  0.00    +0.000 A 
ATOM     16  C   UNL     1       2.314   4.302  18.099  0.00  0.00    +0.000 A 
ATOM     17  C   UNL     1       2.368   5.555  18.723  0.00  0.00    +0.000 A 
ENDBRANCH   1  11
BRANCH   4  18
ATOM     18  C   UNL     1       1.096  12.201  20.382  0.00  0.00    +0.000 C 
BRANCH  18  19
ATOM     19  O   UNL     1       1.243  13.092  21.486  0.00  0.00    +0.000 OA
ATOM     20  H   UNL     1       0.420  13.043  22.006  0.00  0.00    +0.000 HD
ENDBRANCH  18  19
ENDBRANCH   4  18
BRANCH   4  21
ATOM     21  C   UNL     1      -1.350  11.637  20.001  0.00  0.00    +0.000 C 
BRANCH  21  22
ATOM     22  O   UNL     1      -1.742  10.791  18.900  0.00  0.00    +0.000 OA
BRANCH  22  23
ATOM     23  C   UNL     1      -2.020  11.413  17.720  0.00  0.00    +0.000 C 
ATOM     24  O   UNL     1      -1.442  12.414  17.320  0.00  0.00    +0.000 OA
BRANCH  23  25
ATOM     25  C   UNL     1      -3.166  10.718  16.982  0.00  0.00    +0.000 C 
ATOM     26  C   UNL     1      -4.381  11.652  16.923  0.00  0.00    +0.000 C 
ATOM     27  C   UNL     1      -2.714  10.389  15.550  0.00  0.00    +0.000 C 
ATOM     28  C   UNL     1      -3.536   9.414  17.700  0.00  0.00    +0.000 C 
ENDBRANCH  23  25
ENDBRANCH  22  23
ENDBRANCH  21  22
ENDBRANCH   4  21
TORSDOF 7
ENDMDL
MODEL 7
REMARK VINA RESULT:      -7.6      1.061      1.394
REMARK  Name = 
REMARK  11 active torsions:
REMARK  status: ('A' for Active; 'I' for Inactive)
REMARK    1  A    between atoms: C_1  and  N_2
REMARK    2  A    between atoms: C_4  and  C_5
REMARK    3  A    between atoms: C_8  and  C_9
REMARK    4  A    between atoms: C_8  and  C_11
REMARK    5  A    between atoms: C_9  and  O_10
REMARK    6  A    between atoms: C_11  and  O_12
REMARK    7  A    between atoms: O_12  and  C_13
REMARK    8  A    between atoms: C_13  and  C_15
REMARK    9  A    between atoms: C_15  and  C_16
REMARK   10  A    between atoms: C_15  and  C_17
REMARK   11  A    between atoms: C_15  and  C_18
REMARK                            x       y       z     vdW  Elec       q    Type
REMARK                         _______ _______ _______ _____ _____    ______ ____
ROOT
ATOM      1  C   UNL     1       1.577   6.779  21.020  0.00  0.00    +0.000 C 
ATOM      2  C   UNL     1       2.097   5.868  20.183  0.00  0.00    +0.000 C 
ATOM      3  C   UNL     1       2.464   6.011  18.753  0.00  0.00    +0.000 C 
ATOM      4  C   UNL     1       2.603   4.563  18.295  0.00  0.00    +0.000 C 
ATOM      5  O   UNL     1       2.806   3.793  19.504  0.00  0.00    +0.000 OA
ATOM      6  C   UNL     1       2.425   4.498  20.607  0.00  0.00    +0.000 C 
ATOM      7  O   UNL     1       2.384   4.062  21.740  0.00  0.00    +0.000 OA
ENDROOT
BRANCH   1  11
ATOM      8  C   UNL     1       1.321  10.805  18.420  0.00  0.00    +0.000 C 
ATOM      9  N   UNL     1       1.112   9.920  19.541  0.00  0.00    +0.000 N 
ATOM     10  N   UNL     1       1.618   8.682  19.498  0.00  0.00    +0.000 NA
ATOM     11  C   UNL     1       1.230   8.117  20.648  0.00  0.00    +0.000 A 
ATOM     12  C   UNL     1       0.469   9.027  21.439  0.00  0.00    +0.000 A 
ATOM     13  C   UNL     1      -0.164   8.999  22.698  0.00  0.00    +0.000 A 
ATOM     14  C   UNL     1      -0.793  10.157  23.169  0.00  0.00    +0.000 A 
ATOM     15  C   UNL     1      -0.797  11.327  22.412  0.00  0.00    +0.000 A 
ATOM     16  C   UNL     1      -0.185  11.376  21.156  0.00  0.00    +0.000 A 
ATOM     17  C   UNL     1       0.438  10.208  20.697  0.00  0.00    +0.000 A 
ENDBRANCH   1  11
BRANCH   4  18
ATOM     18  C   UNL     1       1.336   4.052  17.583  0.00  0.00    +0.000 C 
BRANCH  18  19
ATOM     19  O   UNL     1       0.864   2.824  18.135  0.00  0.00    +0.000 OA
ATOM     20  H   UNL     1      -0.091   2.929  18.292  0.00  0.00    +0.000 HD
ENDBRANCH  18  19
ENDBRANCH   4  18
BRANCH   4  21
ATOM     21  C   UNL     1       3.840   4.423  17.392  0.00  0.00    +0.000 C 
BRANCH  21  22
ATOM     22  O   UNL     1       5.005   4.061  18.160  0.00  0.00    +0.000 OA
BRANCH  22  23
ATOM     23  C   UNL     1       5.755   5.086  18.654  0.00  0.00    +0.000 C 
ATOM     24  O   UNL     1       5.704   5.476  19.812  0.00  0.00    +0.000 OA
BRANCH  23  25
ATOM     25  C   UNL     1       6.637   5.704  17.567  0.00  0.00    +0.000 C 
ATOM     26  C   UNL     1       7.257   4.590  16.714  0.00  0.00    +0.000 C 
ATOM     27  C   UNL     1       5.772   6.603  16.669  0.00  0.00    +0.000 C 
ATOM     28  C   UNL     1       7.741   6.554  18.210  0.00  0.00    +0.000 C 
ENDBRANCH  23  25
ENDBRANCH  22  23
ENDBRANCH  21  22
ENDBRANCH   4  21
TORSDOF 7
ENDMDL
MODEL 8
REMARK VINA RESULT:      -7.6      3.990      7.557
REMARK  Name = 
REMARK  11 active torsions:
REMARK  status: ('A' for Active; 'I' for Inactive)
REMARK    1  A    between atoms: C_1  and  N_2
REMARK    2  A    between atoms: C_4  and  C_5
REMARK    3  A    between atoms: C_8  and  C_9
REMARK    4  A    between atoms: C_8  and  C_11
REMARK    5  A    between atoms: C_9  and  O_10
REMARK    6  A    between atoms: C_11  and  O_12
REMARK    7  A    between atoms: O_12  and  C_13
REMARK    8  A    between atoms: C_13  and  C_15
REMARK    9  A    between atoms: C_15  and  C_16
REMARK   10  A    between atoms: C_15  and  C_17
REMARK   11  A    between atoms: C_15  and  C_18
REMARK                            x       y       z     vdW  Elec       q    Type
REMARK                         _______ _______ _______ _____ _____    ______ ____
ROOT
ATOM      1  C   UNL     1       2.229   7.271  20.886  0.00  0.00    +0.000 C 
ATOM      2  C   UNL     1       1.450   8.356  20.752  0.00  0.00    +0.000 C 
ATOM      3  C   UNL     1       0.693   8.824  19.566  0.00  0.00    +0.000 C 
ATOM      4  C   UNL     1       0.364  10.270  19.927  0.00  0.00    +0.000 C 
ATOM      5  O   UNL     1       0.485  10.345  21.367  0.00  0.00    +0.000 OA
ATOM      6  C   UNL     1       1.197   9.292  21.858  0.00  0.00    +0.000 C 
ATOM      7  O   UNL     1       1.544   9.156  23.015  0.00  0.00    +0.000 OA
ENDROOT
BRANCH   1  11
ATOM      8  C   UNL     1       4.175   5.439  16.900  0.00  0.00    +0.000 C 
ATOM      9  N   UNL     1       3.331   5.505  18.069  0.00  0.00    +0.000 N 
ATOM     10  N   UNL     1       3.363   6.601  18.836  0.00  0.00    +0.000 NA
ATOM     11  C   UNL     1       2.512   6.341  19.835  0.00  0.00    +0.000 A 
ATOM     12  C   UNL     1       1.923   5.051  19.689  0.00  0.00    +0.000 A 
ATOM     13  C   UNL     1       0.983   4.274  20.397  0.00  0.00    +0.000 A 
ATOM     14  C   UNL     1       0.610   3.025  19.885  0.00  0.00    +0.000 A 
ATOM     15  C   UNL     1       1.153   2.550  18.693  0.00  0.00    +0.000 A 
ATOM     16  C   UNL     1       2.093   3.299  17.979  0.00  0.00    +0.000 A 
ATOM     17  C   UNL     1       2.459   4.544  18.505  0.00  0.00    +0.000 A 
ENDBRANCH   1  11
BRANCH   4  18
ATOM     18  C   UNL     1       1.348  11.268  19.288  0.00  0.00    +0.000 C 
BRANCH  18  19
ATOM     19  O   UNL     1       1.697  10.904  17.954  0.00  0.00    +0.000 OA
ATOM     20  H   UNL     1       2.233  10.092  18.009  0.00  0.00    +0.000 HD
ENDBRANCH  18  19
ENDBRANCH   4  18
BRANCH   4  21
ATOM     21  C   UNL     1      -1.085  10.587  19.522  0.00  0.00    +0.000 C 
BRANCH  21  22
ATOM     22  O   UNL     1      -1.331  10.225  18.148  0.00  0.00    +0.000 OA
BRANCH  22  23
ATOM     23  C   UNL     1      -1.985  11.141  17.381  0.00  0.00    +0.000 C 
ATOM     24  O   UNL     1      -1.630  12.305  17.251  0.00  0.00    +0.000 OA
BRANCH  23  25
ATOM     25  C   UNL     1      -3.233  10.536  16.734  0.00  0.00    +0.000 C 
ATOM     26  C   UNL     1      -4.347  11.589  16.681  0.00  0.00    +0.000 C 
ATOM     27  C   UNL     1      -2.891  10.093  15.302  0.00  0.00    +0.000 C 
ATOM     28  C   UNL     1      -3.697   9.314  17.537  0.00  0.00    +0.000 C 
ENDBRANCH  23  25
ENDBRANCH  22  23
ENDBRANCH  21  22
ENDBRANCH   4  21
TORSDOF 7
ENDMDL
MODEL 9
REMARK VINA RESULT:      -7.5      1.682      4.559
REMARK  Name = 
REMARK  11 active torsions:
REMARK  status: ('A' for Active; 'I' for Inactive)
REMARK    1  A    between atoms: C_1  and  N_2
REMARK    2  A    between atoms: C_4  and  C_5
REMARK    3  A    between atoms: C_8  and  C_9
REMARK    4  A    between atoms: C_8  and  C_11
REMARK    5  A    between atoms: C_9  and  O_10
REMARK    6  A    between atoms: C_11  and  O_12
REMARK    7  A    between atoms: O_12  and  C_13
REMARK    8  A    between atoms: C_13  and  C_15
REMARK    9  A    between atoms: C_15  and  C_16
REMARK   10  A    between atoms: C_15  and  C_17
REMARK   11  A    between atoms: C_15  and  C_18
REMARK                            x       y       z     vdW  Elec       q    Type
REMARK                         _______ _______ _______ _____ _____    ______ ____
ROOT
ATOM      1  C   UNL     1       3.306   7.948  17.523  0.00  0.00    +0.000 C 
ATOM      2  C   UNL     1       4.031   6.826  17.663  0.00  0.00    +0.000 C 
ATOM      3  C   UNL     1       4.097   5.891  18.812  0.00  0.00    +0.000 C 
ATOM      4  C   UNL     1       5.358   5.086  18.519  0.00  0.00    +0.000 C 
ATOM      5  O   UNL     1       5.597   5.246  17.100  0.00  0.00    +0.000 OA
ATOM      6  C   UNL     1       4.911   6.313  16.602  0.00  0.00    +0.000 C 
ATOM      7  O   UNL     1       5.007   6.745  15.470  0.00  0.00    +0.000 OA
ENDROOT
BRANCH   1  11
ATOM      8  C   UNL     1       0.487   8.150  21.401  0.00  0.00    +0.000 C 
ATOM      9  N   UNL     1       1.180   8.617  20.225  0.00  0.00    +0.000 N 
ATOM     10  N   UNL     1       1.923   7.755  19.520  0.00  0.00    +0.000 NA
ATOM     11  C   UNL     1       2.449   8.490  18.533  0.00  0.00    +0.000 A 
ATOM     12  C   UNL     1       2.018   9.847  18.614  0.00  0.00    +0.000 A 
ATOM     13  C   UNL     1       2.226  11.028  17.871  0.00  0.00    +0.000 A 
ATOM     14  C   UNL     1       1.561  12.198  18.255  0.00  0.00    +0.000 A 
ATOM     15  C   UNL     1       0.703  12.205  19.353  0.00  0.00    +0.000 A 
ATOM     16  C   UNL     1       0.489  11.050  20.110  0.00  0.00    +0.000 A 
ATOM     17  C   UNL     1       1.165   9.887  19.716  0.00  0.00    +0.000 A 
ENDBRANCH   1  11
BRANCH   4  18
ATOM     18  C   UNL     1       6.581   5.613  19.295  0.00  0.00    +0.000 C 
BRANCH  18  19
ATOM     19  O   UNL     1       7.809   5.107  18.775  0.00  0.00    +0.000 OA
ATOM     20  H   UNL     1       8.516   5.389  19.384  0.00  0.00    +0.000 HD
ENDBRANCH  18  19
ENDBRANCH   4  18
BRANCH   4  21
ATOM     21  C   UNL     1       5.107   3.601  18.826  0.00  0.00    +0.000 C 
BRANCH  21  22
ATOM     22  O   UNL     1       3.866   3.422  19.539  0.00  0.00    +0.000 OA
BRANCH  22  23
ATOM     23  C   UNL     1       2.961   2.566  18.987  0.00  0.00    +0.000 C 
ATOM     24  O   UNL     1       3.237   1.447  18.577  0.00  0.00    +0.000 OA
BRANCH  23  25
ATOM     25  C   UNL     1       1.569   3.199  18.916  0.00  0.00    +0.000 C 
ATOM     26  C   UNL     1       0.507   2.096  18.823  0.00  0.00    +0.000 C 
ATOM     27  C   UNL     1       1.328   4.023  20.191  0.00  0.00    +0.000 C 
ATOM     28  C   UNL     1       1.477   4.126  17.698  0.00  0.00    +0.000 C 
ENDBRANCH  23  25
ENDBRANCH  22  23
ENDBRANCH  21  22
ENDBRANCH   4  21
TORSDOF 7
ENDMDL
