MODEL 1
REMARK VINA RESULT:      -5.8      0.000      0.000
REMARK  Name = 
REMARK  7 active torsions:
REMARK  status: ('A' for Active; 'I' for Inactive)
REMARK    1  A    between atoms: C_1  and  C_2
REMARK    2  A    between atoms: C_5  and  N_6
REMARK    3  A    between atoms: C_9  and  N_10
REMARK    4  A    between atoms: N_10  and  C_11
REMARK    5  A    between atoms: C_11  and  C_12
REMARK    6  A    between atoms: C_12  and  C_13
REMARK    7  A    between atoms: C_13  and  N_14
REMARK                            x       y       z     vdW  Elec       q    Type
REMARK                         _______ _______ _______ _____ _____    ______ ____
ROOT
ATOM      1  C   UNL     1       2.046   9.037  17.650  0.00  0.00    +0.000 C 
ATOM      2  C   UNL     1       2.857   7.827  18.013  0.00  0.00    +0.000 A 
ATOM      3  C   UNL     1       3.985   7.446  17.294  0.00  0.00    +0.000 A 
ATOM      4  C   UNL     1       4.702   6.313  17.667  0.00  0.00    +0.000 A 
ATOM      5  C   UNL     1       4.319   5.506  18.771  0.00  0.00    +0.000 A 
ATOM      6  C   UNL     1       3.147   5.904  19.516  0.00  0.00    +0.000 A 
ATOM      7  C   UNL     1       2.454   7.066  19.102  0.00  0.00    +0.000 A 
ENDROOT
BRANCH   5   8
ATOM      8  N   UNL     1       5.131   4.349  19.060  0.00  0.00    +0.000 N 
ATOM      9  O   UNL     1       4.609   3.325  19.391  0.00  0.00    +0.000 OA
ATOM     10  O   UNL     1       6.440   4.370  18.993  0.00  0.00    +0.000 OA
ENDBRANCH   5   8
BRANCH   6  11
ATOM     11  N   UNL     1       2.640   5.188  20.655  0.00  0.00    +0.000 N 
ATOM     12  H   UNL     1       3.227   4.961  21.457  0.00  0.00    +0.000 HD
BRANCH  11  13
ATOM     13  C   UNL     1       1.258   4.743  20.728  0.00  0.00    +0.000 C 
BRANCH  13  14
ATOM     14  C   UNL     1       1.130   3.240  20.489  0.00  0.00    +0.000 C 
BRANCH  14  15
ATOM     15  C   UNL     1       1.553   2.466  21.740  0.00  0.00    +0.000 C 
BRANCH  15  16
ATOM     16  N   UNL     1       3.006   2.369  21.805  0.00  0.00    +0.000 NA
ATOM     17  H   UNL     1       3.264   1.579  22.441  0.00  0.00    +0.000 HD
ATOM     18  H   UNL     1       3.375   3.252  22.225  0.00  0.00    +0.000 HD
ENDBRANCH  15  16
ENDBRANCH  14  15
ENDBRANCH  13  14
ENDBRANCH  11  13
ENDBRANCH   6  11
TORSDOF 6
ENDMDL
MODEL 2
REMARK VINA RESULT:      -5.7      2.256      2.884
REMARK  Name = 
REMARK  7 active torsions:
REMARK  status: ('A' for Active; 'I' for Inactive)
REMARK    1  A    between atoms: C_1  and  C_2
REMARK    2  A    between atoms: C_5  and  N_6
REMARK    3  A    between atoms: C_9  and  N_10
REMARK    4  A    between atoms: N_10  and  C_11
REMARK    5  A    between atoms: C_11  and  C_12
REMARK    6  A    between atoms: C_12  and  C_13
REMARK    7  A    between atoms: C_13  and  N_14
REMARK                            x       y       z     vdW  Elec       q    Type
REMARK                         _______ _______ _______ _____ _____    ______ ____
ROOT
ATOM      1  C   UNL     1       2.381   7.172  18.532  0.00  0.00    +0.000 C 
ATOM      2  C   UNL     1       3.664   6.516  18.110  0.00  0.00    +0.000 A 
ATOM      3  C   UNL     1       4.511   7.082  17.162  0.00  0.00    +0.000 A 
ATOM      4  C   UNL     1       5.688   6.434  16.800  0.00  0.00    +0.000 A 
ATOM      5  C   UNL     1       6.069   5.189  17.366  0.00  0.00    +0.000 A 
ATOM      6  C   UNL     1       5.188   4.604  18.351  0.00  0.00    +0.000 A 
ATOM      7  C   UNL     1       4.006   5.303  18.689  0.00  0.00    +0.000 A 
ENDROOT
BRANCH   5   8
ATOM      8  N   UNL     1       7.306   4.604  16.910  0.00  0.00    +0.000 N 
ATOM      9  O   UNL     1       7.534   4.535  15.737  0.00  0.00    +0.000 OA
ATOM     10  O   UNL     1       8.204   4.118  17.732  0.00  0.00    +0.000 OA
ENDBRANCH   5   8
BRANCH   6  11
ATOM     11  N   UNL     1       5.442   3.351  19.009  0.00  0.00    +0.000 N 
ATOM     12  H   UNL     1       6.383   2.971  19.105  0.00  0.00    +0.000 HD
BRANCH  11  13
ATOM     13  C   UNL     1       4.368   2.550  19.575  0.00  0.00    +0.000 C 
BRANCH  13  14
ATOM     14  C   UNL     1       3.667   1.707  18.513  0.00  0.00    +0.000 C 
BRANCH  14  15
ATOM     15  C   UNL     1       2.193   2.105  18.406  0.00  0.00    +0.000 C 
BRANCH  15  16
ATOM     16  N   UNL     1       1.696   2.547  19.703  0.00  0.00    +0.000 NA
ATOM     17  H   UNL     1       2.149   1.973  20.452  0.00  0.00    +0.000 HD
ATOM     18  H   UNL     1       0.667   2.366  19.740  0.00  0.00    +0.000 HD
ENDBRANCH  15  16
ENDBRANCH  14  15
ENDBRANCH  13  14
ENDBRANCH  11  13
ENDBRANCH   6  11
TORSDOF 6
ENDMDL
MODEL 3
REMARK VINA RESULT:      -5.6      2.025      4.315
REMARK  Name = 
REMARK  7 active torsions:
REMARK  status: ('A' for Active; 'I' for Inactive)
REMARK    1  A    between atoms: C_1  and  C_2
REMARK    2  A    between atoms: C_5  and  N_6
REMARK    3  A    between atoms: C_9  and  N_10
REMARK    4  A    between atoms: N_10  and  C_11
REMARK    5  A    between atoms: C_11  and  C_12
REMARK    6  A    between atoms: C_12  and  C_13
REMARK    7  A    between atoms: C_13  and  N_14
REMARK                            x       y       z     vdW  Elec       q    Type
REMARK                         _______ _______ _______ _____ _____    ______ ____
ROOT
ATOM      1  C   UNL     1       2.496   8.021  18.061  0.00  0.00    +0.000 C 
ATOM      2  C   UNL     1       2.806   6.689  18.681  0.00  0.00    +0.000 A 
ATOM      3  C   UNL     1       2.199   6.257  19.855  0.00  0.00    +0.000 A 
ATOM      4  C   UNL     1       2.523   5.015  20.393  0.00  0.00    +0.000 A 
ATOM      5  C   UNL     1       3.473   4.152  19.784  0.00  0.00    +0.000 A 
ATOM      6  C   UNL     1       4.100   4.604  18.564  0.00  0.00    +0.000 A 
ATOM      7  C   UNL     1       3.736   5.871  18.053  0.00  0.00    +0.000 A 
ENDROOT
BRANCH   5   8
ATOM      8  N   UNL     1       3.737   2.892  20.435  0.00  0.00    +0.000 N 
ATOM      9  O   UNL     1       4.688   2.243  20.109  0.00  0.00    +0.000 OA
ATOM     10  O   UNL     1       2.962   2.405  21.373  0.00  0.00    +0.000 OA
ENDBRANCH   5   8
BRANCH   6  11
ATOM     11  N   UNL     1       5.078   3.841  17.836  0.00  0.00    +0.000 N 
ATOM     12  H   UNL     1       5.802   3.299  18.307  0.00  0.00    +0.000 HD
BRANCH  11  13
ATOM     13  C   UNL     1       5.094   3.801  16.383  0.00  0.00    +0.000 C 
BRANCH  13  14
ATOM     14  C   UNL     1       6.472   4.139  15.818  0.00  0.00    +0.000 C 
BRANCH  14  15
ATOM     15  C   UNL     1       7.262   4.987  16.817  0.00  0.00    +0.000 C 
BRANCH  15  16
ATOM     16  N   UNL     1       8.089   4.132  17.660  0.00  0.00    +0.000 NA
ATOM     17  H   UNL     1       7.522   3.816  18.480  0.00  0.00    +0.000 HD
ATOM     18  H   UNL     1       8.886   4.702  18.023  0.00  0.00    +0.000 HD
ENDBRANCH  15  16
ENDBRANCH  14  15
ENDBRANCH  13  14
ENDBRANCH  11  13
ENDBRANCH   6  11
TORSDOF 6
ENDMDL
MODEL 4
REMARK VINA RESULT:      -5.6      2.692      3.764
REMARK  Name = 
REMARK  7 active torsions:
REMARK  status: ('A' for Active; 'I' for Inactive)
REMARK    1  A    between atoms: C_1  and  C_2
REMARK    2  A    between atoms: C_5  and  N_6
REMARK    3  A    between atoms: C_9  and  N_10
REMARK    4  A    between atoms: N_10  and  C_11
REMARK    5  A    between atoms: C_11  and  C_12
REMARK    6  A    between atoms: C_12  and  C_13
REMARK    7  A    between atoms: C_13  and  N_14
REMARK                            x       y       z     vdW  Elec       q    Type
REMARK                         _______ _______ _______ _____ _____    ______ ____
ROOT
ATOM      1  C   UNL     1       6.234   3.876  13.526  0.00  0.00    +0.000 C 
ATOM      2  C   UNL     1       6.119   4.237  14.979  0.00  0.00    +0.000 A 
ATOM      3  C   UNL     1       7.183   4.771  15.698  0.00  0.00    +0.000 A 
ATOM      4  C   UNL     1       7.029   5.086  17.045  0.00  0.00    +0.000 A 
ATOM      5  C   UNL     1       5.806   4.876  17.734  0.00  0.00    +0.000 A 
ATOM      6  C   UNL     1       4.702   4.322  16.984  0.00  0.00    +0.000 A 
ATOM      7  C   UNL     1       4.906   4.022  15.617  0.00  0.00    +0.000 A 
ENDROOT
BRANCH   5   8
ATOM      8  N   UNL     1       5.763   5.231  19.132  0.00  0.00    +0.000 N 
ATOM      9  O   UNL     1       4.718   5.516  19.641  0.00  0.00    +0.000 OA
ATOM     10  O   UNL     1       6.836   5.273  19.884  0.00  0.00    +0.000 OA
ENDBRANCH   5   8
BRANCH   6  11
ATOM     11  N   UNL     1       3.406   4.054  17.546  0.00  0.00    +0.000 N 
ATOM     12  H   UNL     1       2.709   4.789  17.675  0.00  0.00    +0.000 HD
BRANCH  11  13
ATOM     13  C   UNL     1       3.012   2.720  17.968  0.00  0.00    +0.000 C 
BRANCH  13  14
ATOM     14  C   UNL     1       1.556   2.673  18.426  0.00  0.00    +0.000 C 
BRANCH  14  15
ATOM     15  C   UNL     1       1.323   3.677  19.557  0.00  0.00    +0.000 C 
BRANCH  15  16
ATOM     16  N   UNL     1       2.455   3.674  20.475  0.00  0.00    +0.000 NA
ATOM     17  H   UNL     1       2.184   3.157  21.344  0.00  0.00    +0.000 HD
ATOM     18  H   UNL     1       2.663   4.662  20.743  0.00  0.00    +0.000 HD
ENDBRANCH  15  16
ENDBRANCH  14  15
ENDBRANCH  13  14
ENDBRANCH  11  13
ENDBRANCH   6  11
TORSDOF 6
ENDMDL
MODEL 5
REMARK VINA RESULT:      -5.6      1.875      2.462
REMARK  Name = 
REMARK  7 active torsions:
REMARK  status: ('A' for Active; 'I' for Inactive)
REMARK    1  A    between atoms: C_1  and  C_2
REMARK    2  A    between atoms: C_5  and  N_6
REMARK    3  A    between atoms: C_9  and  N_10
REMARK    4  A    between atoms: N_10  and  C_11
REMARK    5  A    between atoms: C_11  and  C_12
REMARK    6  A    between atoms: C_12  and  C_13
REMARK    7  A    between atoms: C_13  and  N_14
REMARK                            x       y       z     vdW  Elec       q    Type
REMARK                         _______ _______ _______ _____ _____    ______ ____
ROOT
ATOM      1  C   UNL     1       4.095   7.321  17.314  0.00  0.00    +0.000 C 
ATOM      2  C   UNL     1       4.174   5.931  17.875  0.00  0.00    +0.000 A 
ATOM      3  C   UNL     1       5.287   5.474  18.572  0.00  0.00    +0.000 A 
ATOM      4  C   UNL     1       5.316   4.175  19.070  0.00  0.00    +0.000 A 
ATOM      5  C   UNL     1       4.235   3.272  18.888  0.00  0.00    +0.000 A 
ATOM      6  C   UNL     1       3.079   3.750  18.164  0.00  0.00    +0.000 A 
ATOM      7  C   UNL     1       3.095   5.080  17.681  0.00  0.00    +0.000 A 
ENDROOT
BRANCH   5   8
ATOM      8  N   UNL     1       4.377   1.947  19.439  0.00  0.00    +0.000 N 
ATOM      9  O   UNL     1       3.989   1.000  18.818  0.00  0.00    +0.000 OA
ATOM     10  O   UNL     1       4.906   1.725  20.618  0.00  0.00    +0.000 OA
ENDBRANCH   5   8
BRANCH   6  11
ATOM     11  N   UNL     1       1.911   2.953  17.902  0.00  0.00    +0.000 N 
ATOM     12  H   UNL     1       1.754   2.503  17.001  0.00  0.00    +0.000 HD
BRANCH  11  13
ATOM     13  C   UNL     1       0.883   2.745  18.909  0.00  0.00    +0.000 C 
BRANCH  13  14
ATOM     14  C   UNL     1       1.124   3.595  20.154  0.00  0.00    +0.000 C 
BRANCH  14  15
ATOM     15  C   UNL     1       1.286   2.700  21.385  0.00  0.00    +0.000 C 
BRANCH  15  16
ATOM     16  N   UNL     1       2.524   3.024  22.083  0.00  0.00    +0.000 NA
ATOM     17  H   UNL     1       2.382   3.903  22.633  0.00  0.00    +0.000 HD
ATOM     18  H   UNL     1       3.264   3.209  21.369  0.00  0.00    +0.000 HD
ENDBRANCH  15  16
ENDBRANCH  14  15
ENDBRANCH  13  14
ENDBRANCH  11  13
ENDBRANCH   6  11
TORSDOF 6
ENDMDL
MODEL 6
REMARK VINA RESULT:      -5.6      2.834      3.888
REMARK  Name = 
REMARK  7 active torsions:
REMARK  status: ('A' for Active; 'I' for Inactive)
REMARK    1  A    between atoms: C_1  and  C_2
REMARK    2  A    between atoms: C_5  and  N_6
REMARK    3  A    between atoms: C_9  and  N_10
REMARK    4  A    between atoms: N_10  and  C_11
REMARK    5  A    between atoms: C_11  and  C_12
REMARK    6  A    between atoms: C_12  and  C_13
REMARK    7  A    between atoms: C_13  and  N_14
REMARK                            x       y       z     vdW  Elec       q    Type
REMARK                         _______ _______ _______ _____ _____    ______ ____
ROOT
ATOM      1  C   UNL     1       6.329   3.895  13.574  0.00  0.00    +0.000 C 
ATOM      2  C   UNL     1       6.190   4.244  15.028  0.00  0.00    +0.000 A 
ATOM      3  C   UNL     1       7.104   5.061  15.686  0.00  0.00    +0.000 A 
ATOM      4  C   UNL     1       6.935   5.353  17.036  0.00  0.00    +0.000 A 
ATOM      5  C   UNL     1       5.847   4.838  17.790  0.00  0.00    +0.000 A 
ATOM      6  C   UNL     1       4.899   3.991  17.103  0.00  0.00    +0.000 A 
ATOM      7  C   UNL     1       5.111   3.726  15.730  0.00  0.00    +0.000 A 
ENDROOT
BRANCH   5   8
ATOM      8  N   UNL     1       5.777   5.200  19.184  0.00  0.00    +0.000 N 
ATOM      9  O   UNL     1       6.785   5.343  19.812  0.00  0.00    +0.000 OA
ATOM     10  O   UNL     1       4.640   5.366  19.815  0.00  0.00    +0.000 OA
ENDBRANCH   5   8
BRANCH   6  11
ATOM     11  N   UNL     1       3.751   3.399  17.734  0.00  0.00    +0.000 N 
ATOM     12  H   UNL     1       3.839   2.704  18.476  0.00  0.00    +0.000 HD
BRANCH  11  13
ATOM     13  C   UNL     1       2.395   3.752  17.347  0.00  0.00    +0.000 C 
BRANCH  13  14
ATOM     14  C   UNL     1       1.503   4.002  18.561  0.00  0.00    +0.000 C 
BRANCH  14  15
ATOM     15  C   UNL     1       1.633   2.851  19.562  0.00  0.00    +0.000 C 
BRANCH  15  16
ATOM     16  N   UNL     1       1.627   1.573  18.861  0.00  0.00    +0.000 NA
ATOM     17  H   UNL     1       1.449   0.809  19.554  0.00  0.00    +0.000 HD
ATOM     18  H   UNL     1       2.576   1.419  18.452  0.00  0.00    +0.000 HD
ENDBRANCH  15  16
ENDBRANCH  14  15
ENDBRANCH  13  14
ENDBRANCH  11  13
ENDBRANCH   6  11
TORSDOF 6
ENDMDL
MODEL 7
REMARK VINA RESULT:      -5.6      1.868      2.579
REMARK  Name = 
REMARK  7 active torsions:
REMARK  status: ('A' for Active; 'I' for Inactive)
REMARK    1  A    between atoms: C_1  and  C_2
REMARK    2  A    between atoms: C_5  and  N_6
REMARK    3  A    between atoms: C_9  and  N_10
REMARK    4  A    between atoms: N_10  and  C_11
REMARK    5  A    between atoms: C_11  and  C_12
REMARK    6  A    between atoms: C_12  and  C_13
REMARK    7  A    between atoms: C_13  and  N_14
REMARK                            x       y       z     vdW  Elec       q    Type
REMARK                         _______ _______ _______ _____ _____    ______ ____
ROOT
ATOM      1  C   UNL     1       2.341   7.240  18.127  0.00  0.00    +0.000 C 
ATOM      2  C   UNL     1       3.668   6.576  17.892  0.00  0.00    +0.000 A 
ATOM      3  C   UNL     1       4.659   7.156  17.107  0.00  0.00    +0.000 A 
ATOM      4  C   UNL     1       5.871   6.500  16.915  0.00  0.00    +0.000 A 
ATOM      5  C   UNL     1       6.144   5.233  17.495  0.00  0.00    +0.000 A 
ATOM      6  C   UNL     1       5.113   4.634  18.310  0.00  0.00    +0.000 A 
ATOM      7  C   UNL     1       3.899   5.340  18.479  0.00  0.00    +0.000 A 
ENDROOT
BRANCH   5   8
ATOM      8  N   UNL     1       7.431   4.642  17.220  0.00  0.00    +0.000 N 
ATOM      9  O   UNL     1       8.134   4.300  18.127  0.00  0.00    +0.000 OA
ATOM     10  O   UNL     1       7.886   4.472  16.003  0.00  0.00    +0.000 OA
ENDBRANCH   5   8
BRANCH   6  11
ATOM     11  N   UNL     1       5.245   3.358  18.960  0.00  0.00    +0.000 N 
ATOM     12  H   UNL     1       6.144   3.012  19.295  0.00  0.00    +0.000 HD
BRANCH  11  13
ATOM     13  C   UNL     1       4.104   2.484  19.175  0.00  0.00    +0.000 C 
BRANCH  13  14
ATOM     14  C   UNL     1       3.721   2.399  20.651  0.00  0.00    +0.000 C 
BRANCH  14  15
ATOM     15  C   UNL     1       2.212   2.592  20.820  0.00  0.00    +0.000 C 
BRANCH  15  16
ATOM     16  N   UNL     1       1.917   3.107  22.151  0.00  0.00    +0.000 NA
ATOM     17  H   UNL     1       2.293   2.440  22.863  0.00  0.00    +0.000 HD
ATOM     18  H   UNL     1       0.879   3.145  22.266  0.00  0.00    +0.000 HD
ENDBRANCH  15  16
ENDBRANCH  14  15
ENDBRANCH  13  14
ENDBRANCH  11  13
ENDBRANCH   6  11
TORSDOF 6
ENDMDL
MODEL 8
REMARK VINA RESULT:      -5.5      2.643      3.858
REMARK  Name = 
REMARK  7 active torsions:
REMARK  status: ('A' for Active; 'I' for Inactive)
REMARK    1  A    between atoms: C_1  and  C_2
REMARK    2  A    between atoms: C_5  and  N_6
REMARK    3  A    between atoms: C_9  and  N_10
REMARK    4  A    between atoms: N_10  and  C_11
REMARK    5  A    between atoms: C_11  and  C_12
REMARK    6  A    between atoms: C_12  and  C_13
REMARK    7  A    between atoms: C_13  and  N_14
REMARK                            x       y       z     vdW  Elec       q    Type
REMARK                         _______ _______ _______ _____ _____    ______ ____
ROOT
ATOM      1  C   UNL     1       6.129   3.870  13.590  0.00  0.00    +0.000 C 
ATOM      2  C   UNL     1       6.094   4.217  15.050  0.00  0.00    +0.000 A 
ATOM      3  C   UNL     1       7.119   4.925  15.669  0.00  0.00    +0.000 A 
ATOM      4  C   UNL     1       7.044   5.220  17.027  0.00  0.00    +0.000 A 
ATOM      5  C   UNL     1       5.943   4.816  17.827  0.00  0.00    +0.000 A 
ATOM      6  C   UNL     1       4.880   4.082  17.181  0.00  0.00    +0.000 A 
ATOM      7  C   UNL     1       4.999   3.810  15.798  0.00  0.00    +0.000 A 
ENDROOT
BRANCH   5   8
ATOM      8  N   UNL     1       5.975   5.169  19.226  0.00  0.00    +0.000 N 
ATOM      9  O   UNL     1       7.026   5.288  19.784  0.00  0.00    +0.000 OA
ATOM     10  O   UNL     1       4.887   5.353  19.934  0.00  0.00    +0.000 OA
ENDBRANCH   5   8
BRANCH   6  11
ATOM     11  N   UNL     1       3.704   3.609  17.861  0.00  0.00    +0.000 N 
ATOM     12  H   UNL     1       3.749   2.888  18.582  0.00  0.00    +0.000 HD
BRANCH  11  13
ATOM     13  C   UNL     1       2.381   4.128  17.558  0.00  0.00    +0.000 C 
BRANCH  13  14
ATOM     14  C   UNL     1       1.296   3.443  18.387  0.00  0.00    +0.000 C 
BRANCH  14  15
ATOM     15  C   UNL     1       1.383   3.890  19.848  0.00  0.00    +0.000 C 
BRANCH  15  16
ATOM     16  N   UNL     1       1.987   5.214  19.934  0.00  0.00    +0.000 NA
ATOM     17  H   UNL     1       2.638   5.236  20.753  0.00  0.00    +0.000 HD
ATOM     18  H   UNL     1       1.228   5.910  20.112  0.00  0.00    +0.000 HD
ENDBRANCH  15  16
ENDBRANCH  14  15
ENDBRANCH  13  14
ENDBRANCH  11  13
ENDBRANCH   6  11
TORSDOF 6
ENDMDL
MODEL 9
REMARK VINA RESULT:      -5.5      3.260      5.174
REMARK  Name = 
REMARK  7 active torsions:
REMARK  status: ('A' for Active; 'I' for Inactive)
REMARK    1  A    between atoms: C_1  and  C_2
REMARK    2  A    between atoms: C_5  and  N_6
REMARK    3  A    between atoms: C_9  and  N_10
REMARK    4  A    between atoms: N_10  and  C_11
REMARK    5  A    between atoms: C_11  and  C_12
REMARK    6  A    between atoms: C_12  and  C_13
REMARK    7  A    between atoms: C_13  and  N_14
REMARK                            x       y       z     vdW  Elec       q    Type
REMARK                         _______ _______ _______ _____ _____    ______ ____
ROOT
ATOM      1  C   UNL     1       1.397   2.662  20.497  0.00  0.00    +0.000 C 
ATOM      2  C   UNL     1       2.327   3.056  19.386  0.00  0.00    +0.000 A 
ATOM      3  C   UNL     1       1.924   3.084  18.055  0.00  0.00    +0.000 A 
ATOM      4  C   UNL     1       2.825   3.452  17.060  0.00  0.00    +0.000 A 
ATOM      5  C   UNL     1       4.170   3.802  17.350  0.00  0.00    +0.000 A 
ATOM      6  C   UNL     1       4.585   3.772  18.733  0.00  0.00    +0.000 A 
ATOM      7  C   UNL     1       3.633   3.396  19.710  0.00  0.00    +0.000 A 
ENDROOT
BRANCH   5   8
ATOM      8  N   UNL     1       5.018   4.157  16.238  0.00  0.00    +0.000 N 
ATOM      9  O   UNL     1       5.850   3.388  15.856  0.00  0.00    +0.000 OA
ATOM     10  O   UNL     1       4.930   5.312  15.624  0.00  0.00    +0.000 OA
ENDBRANCH   5   8
BRANCH   6  11
ATOM     11  N   UNL     1       5.913   4.101  19.179  0.00  0.00    +0.000 N 
ATOM     12  H   UNL     1       6.592   3.383  19.432  0.00  0.00    +0.000 HD
BRANCH  11  13
ATOM     13  C   UNL     1       6.363   5.477  19.298  0.00  0.00    +0.000 C 
BRANCH  13  14
ATOM     14  C   UNL     1       7.698   5.704  18.591  0.00  0.00    +0.000 C 
BRANCH  14  15
ATOM     15  C   UNL     1       7.709   7.070  17.902  0.00  0.00    +0.000 C 
BRANCH  15  16
ATOM     16  N   UNL     1       6.516   7.228  17.079  0.00  0.00    +0.000 NA
ATOM     17  H   UNL     1       5.689   6.867  17.609  0.00  0.00    +0.000 HD
ATOM     18  H   UNL     1       6.629   6.639  16.223  0.00  0.00    +0.000 HD
ENDBRANCH  15  16
ENDBRANCH  14  15
ENDBRANCH  13  14
ENDBRANCH  11  13
ENDBRANCH   6  11
TORSDOF 6
ENDMDL
