MODEL 1
REMARK VINA RESULT:      -7.5      0.000      0.000
REMARK  Name = 
REMARK  14 active torsions:
REMARK  status: ('A' for Active; 'I' for Inactive)
REMARK    1  A    between atoms: C_1  and  C_2
REMARK    2  A    between atoms: N_4  and  C_5
REMARK    3  A    between atoms: C_5  and  C_6
REMARK    4  A    between atoms: C_5  and  C_28
REMARK    5  A    between atoms: N_8  and  C_9
REMARK    6  A    between atoms: C_9  and  C_10
REMARK    7  A    between atoms: C_9  and  C_17
REMARK    8  A    between atoms: C_10  and  C_11
REMARK    9  A    between atoms: C_11  and  C_12
REMARK   10  A    between atoms: C_12  and  N_13
REMARK   11  A    between atoms: N_19  and  C_20
REMARK   12  A    between atoms: C_20  and  C_21
REMARK   13  A    between atoms: C_28  and  C_29
REMARK   14  A    between atoms: C_28  and  C_30
REMARK                            x       y       z     vdW  Elec       q    Type
REMARK                         _______ _______ _______ _____ _____    ______ ____
ROOT
ATOM      1  C   UNL     1       2.566   6.637  18.534  0.00  0.00    +0.000 C 
ENDROOT
BRANCH   1   4
ATOM      2  C   UNL     1       4.511   5.514  17.418  0.00  0.00    +0.000 C 
ATOM      3  O   UNL     1       3.830   4.581  16.999  0.00  0.00    +0.000 OA
ATOM      4  N   UNL     1       3.982   6.536  18.172  0.00  0.00    +0.000 N 
ATOM      5  H   UNL     1       4.604   7.286  18.456  0.00  0.00    +0.000 HD
BRANCH   2   6
ATOM      6  C   UNL     1       6.055   5.530  17.271  0.00  0.00    +0.000 C 
BRANCH   6  10
ATOM      7  C   UNL     1       6.382   3.588  14.972  0.00  0.00    +0.000 C 
ATOM      8  C   UNL     1       6.561   5.070  14.810  0.00  0.00    +0.000 C 
ATOM      9  O   UNL     1       6.793   5.581  13.716  0.00  0.00    +0.000 OA
ATOM     10  N   UNL     1       6.431   5.883  15.894  0.00  0.00    +0.000 N 
ATOM     11  H   UNL     1       6.566   6.856  15.655  0.00  0.00    +0.000 HD
ENDBRANCH   6  10
BRANCH   6  12
ATOM     12  C   UNL     1       6.757   6.481  18.277  0.00  0.00    +0.000 C 
ATOM     13  C   UNL     1       7.609   5.771  19.337  0.00  0.00    +0.000 C 
ATOM     14  C   UNL     1       7.602   7.549  17.575  0.00  0.00    +0.000 C 
ENDBRANCH   6  12
ENDBRANCH   2   6
ENDBRANCH   1   4
BRANCH   1  15
ATOM     15  C   UNL     1       2.159   8.102  18.279  0.00  0.00    +0.000 C 
ATOM     16  O   UNL     1       2.344   8.633  17.185  0.00  0.00    +0.000 OA
ATOM     17  N   UNL     1       1.520   8.735  19.320  0.00  0.00    +0.000 N 
ATOM     18  H   UNL     1       1.628   8.344  20.249  0.00  0.00    +0.000 HD
BRANCH  17  19
ATOM     19  C   UNL     1       1.060  10.141  19.269  0.00  0.00    +0.000 C 
ATOM     20  C   UNL     1       1.199  10.874  20.612  0.00  0.00    +0.000 C 
ATOM     21  C   UNL     1       1.307  12.348  20.259  0.00  0.00    +0.000 C 
ATOM     22  C   UNL     1       1.929  12.399  18.870  0.00  0.00    +0.000 C 
ATOM     23  C   UNL     1       2.009  10.956  18.372  0.00  0.00    +0.000 C 
BRANCH  19  24
ATOM     24  C   UNL     1      -0.401  10.204  18.725  0.00  0.00    +0.000 C 
ATOM     25  N   UNL     1      -0.548  10.110  17.371  0.00  0.00    +0.000 N 
ATOM     26  O   UNL     1      -1.396  10.274  19.443  0.00  0.00    +0.000 OA
ATOM     27  H   UNL     1       0.231   9.876  16.768  0.00  0.00    +0.000 HD
ATOM     28  H   UNL     1      -1.481  10.075  16.978  0.00  0.00    +0.000 HD
ENDBRANCH  19  24
ENDBRANCH  17  19
ENDBRANCH   1  15
BRANCH   1  29
ATOM     29  C   UNL     1       2.340   6.330  20.026  0.00  0.00    +0.000 C 
BRANCH  29  30
ATOM     30  C   UNL     1       1.625   4.993  20.237  0.00  0.00    +0.000 C 
BRANCH  30  31
ATOM     31  C   UNL     1       2.612   3.894  20.619  0.00  0.00    +0.000 C 
BRANCH  31  32
ATOM     32  N   UNL     1       2.896   3.053  19.474  0.00  0.00    +0.000 N 
ATOM     33  C   UNL     1       3.955   2.224  19.353  0.00  0.00    +0.000 C 
ATOM     34  N   UNL     1       4.969   2.097  20.124  0.00  0.00    +0.000 NA
ATOM     35  N   UNL     1       3.874   1.485  18.233  0.00  0.00    +0.000 N 
ATOM     36  H   UNL     1       2.064   2.688  19.022  0.00  0.00    +0.000 HD
ATOM     37  H   UNL     1       4.890   2.744  20.908  0.00  0.00    +0.000 HD
ATOM     38  H   UNL     1       3.604   2.029  17.424  0.00  0.00    +0.000 HD
ATOM     39  H   UNL     1       4.768   1.029  18.067  0.00  0.00    +0.000 HD
ENDBRANCH  31  32
ENDBRANCH  30  31
ENDBRANCH  29  30
ENDBRANCH   1  29
TORSDOF 11
ENDMDL
MODEL 2
REMARK VINA RESULT:      -7.3      1.830      7.119
REMARK  Name = 
REMARK  14 active torsions:
REMARK  status: ('A' for Active; 'I' for Inactive)
REMARK    1  A    between atoms: C_1  and  C_2
REMARK    2  A    between atoms: N_4  and  C_5
REMARK    3  A    between atoms: C_5  and  C_6
REMARK    4  A    between atoms: C_5  and  C_28
REMARK    5  A    between atoms: N_8  and  C_9
REMARK    6  A    between atoms: C_9  and  C_10
REMARK    7  A    between atoms: C_9  and  C_17
REMARK    8  A    between atoms: C_10  and  C_11
REMARK    9  A    between atoms: C_11  and  C_12
REMARK   10  A    between atoms: C_12  and  N_13
REMARK   11  A    between atoms: N_19  and  C_20
REMARK   12  A    between atoms: C_20  and  C_21
REMARK   13  A    between atoms: C_28  and  C_29
REMARK   14  A    between atoms: C_28  and  C_30
REMARK                            x       y       z     vdW  Elec       q    Type
REMARK                         _______ _______ _______ _____ _____    ______ ____
ROOT
ATOM      1  C   UNL     1       2.785   6.667  19.470  0.00  0.00    +0.000 C 
ENDROOT
BRANCH   1   4
ATOM      2  C   UNL     1       1.378   8.507  20.431  0.00  0.00    +0.000 C 
ATOM      3  O   UNL     1       1.510   8.108  21.586  0.00  0.00    +0.000 OA
ATOM      4  N   UNL     1       1.950   7.864  19.357  0.00  0.00    +0.000 N 
ATOM      5  H   UNL     1       1.821   8.273  18.437  0.00  0.00    +0.000 HD
BRANCH   2   6
ATOM      6  C   UNL     1       0.421   9.672  20.072  0.00  0.00    +0.000 C 
BRANCH   6  10
ATOM      7  C   UNL     1      -1.489  11.686  21.283  0.00  0.00    +0.000 C 
ATOM      8  C   UNL     1       0.003  11.814  21.399  0.00  0.00    +0.000 C 
ATOM      9  O   UNL     1       0.529  12.718  22.047  0.00  0.00    +0.000 OA
ATOM     10  N   UNL     1       0.804  10.889  20.802  0.00  0.00    +0.000 N 
ATOM     11  H   UNL     1       1.784  11.081  20.960  0.00  0.00    +0.000 HD
ENDBRANCH   6  10
BRANCH   6  12
ATOM     12  C   UNL     1       0.351   9.962  18.549  0.00  0.00    +0.000 C 
ATOM     13  C   UNL     1      -1.061  10.237  18.015  0.00  0.00    +0.000 C 
ATOM     14  C   UNL     1       1.284  11.103  18.132  0.00  0.00    +0.000 C 
ENDBRANCH   6  12
ENDBRANCH   2   6
ENDBRANCH   1   4
BRANCH   1  15
ATOM     15  C   UNL     1       3.790   6.729  18.302  0.00  0.00    +0.000 C 
ATOM     16  O   UNL     1       3.731   7.623  17.458  0.00  0.00    +0.000 OA
ATOM     17  N   UNL     1       4.780   5.774  18.313  0.00  0.00    +0.000 N 
ATOM     18  H   UNL     1       4.625   4.939  18.867  0.00  0.00    +0.000 HD
BRANCH  17  19
ATOM     19  C   UNL     1       5.829   5.666  17.275  0.00  0.00    +0.000 C 
ATOM     20  C   UNL     1       6.376   4.239  17.111  0.00  0.00    +0.000 C 
ATOM     21  C   UNL     1       6.907   4.171  15.689  0.00  0.00    +0.000 C 
ATOM     22  C   UNL     1       6.080   5.166  14.887  0.00  0.00    +0.000 C 
ATOM     23  C   UNL     1       5.205   5.919  15.890  0.00  0.00    +0.000 C 
BRANCH  19  24
ATOM     24  C   UNL     1       6.969   6.693  17.561  0.00  0.00    +0.000 C 
ATOM     25  N   UNL     1       7.813   6.388  18.590  0.00  0.00    +0.000 N 
ATOM     26  O   UNL     1       7.168   7.700  16.886  0.00  0.00    +0.000 OA
ATOM     27  H   UNL     1       7.785   5.487  19.051  0.00  0.00    +0.000 HD
ATOM     28  H   UNL     1       8.609   6.989  18.767  0.00  0.00    +0.000 HD
ENDBRANCH  19  24
ENDBRANCH  17  19
ENDBRANCH   1  15
BRANCH   1  29
ATOM     29  C   UNL     1       1.954   5.380  19.318  0.00  0.00    +0.000 C 
BRANCH  29  30
ATOM     30  C   UNL     1       1.632   4.739  20.671  0.00  0.00    +0.000 C 
BRANCH  30  31
ATOM     31  C   UNL     1       2.373   3.417  20.846  0.00  0.00    +0.000 C 
BRANCH  31  32
ATOM     32  N   UNL     1       2.723   2.863  19.554  0.00  0.00    +0.000 N 
ATOM     33  C   UNL     1       3.896   2.266  19.249  0.00  0.00    +0.000 C 
ATOM     34  N   UNL     1       4.960   2.176  19.954  0.00  0.00    +0.000 NA
ATOM     35  N   UNL     1       3.871   1.741  18.011  0.00  0.00    +0.000 N 
ATOM     36  H   UNL     1       1.938   2.448  19.063  0.00  0.00    +0.000 HD
ATOM     37  H   UNL     1       4.822   2.645  20.849  0.00  0.00    +0.000 HD
ATOM     38  H   UNL     1       3.468   2.370  17.328  0.00  0.00    +0.000 HD
ATOM     39  H   UNL     1       4.817   1.486  17.737  0.00  0.00    +0.000 HD
ENDBRANCH  31  32
ENDBRANCH  30  31
ENDBRANCH  29  30
ENDBRANCH   1  29
TORSDOF 11
ENDMDL
MODEL 3
REMARK VINA RESULT:      -7.3      1.539      2.647
REMARK  Name = 
REMARK  14 active torsions:
REMARK  status: ('A' for Active; 'I' for Inactive)
REMARK    1  A    between atoms: C_1  and  C_2
REMARK    2  A    between atoms: N_4  and  C_5
REMARK    3  A    between atoms: C_5  and  C_6
REMARK    4  A    between atoms: C_5  and  C_28
REMARK    5  A    between atoms: N_8  and  C_9
REMARK    6  A    between atoms: C_9  and  C_10
REMARK    7  A    between atoms: C_9  and  C_17
REMARK    8  A    between atoms: C_10  and  C_11
REMARK    9  A    between atoms: C_11  and  C_12
REMARK   10  A    between atoms: C_12  and  N_13
REMARK   11  A    between atoms: N_19  and  C_20
REMARK   12  A    between atoms: C_20  and  C_21
REMARK   13  A    between atoms: C_28  and  C_29
REMARK   14  A    between atoms: C_28  and  C_30
REMARK                            x       y       z     vdW  Elec       q    Type
REMARK                         _______ _______ _______ _____ _____    ______ ____
ROOT
ATOM      1  C   UNL     1       2.291   6.696  18.621  0.00  0.00    +0.000 C 
ENDROOT
BRANCH   1   4
ATOM      2  C   UNL     1       4.133   5.438  17.474  0.00  0.00    +0.000 C 
ATOM      3  O   UNL     1       3.434   4.449  17.267  0.00  0.00    +0.000 OA
ATOM      4  N   UNL     1       3.663   6.554  18.127  0.00  0.00    +0.000 N 
ATOM      5  H   UNL     1       4.294   7.342  18.233  0.00  0.00    +0.000 HD
BRANCH   2   6
ATOM      6  C   UNL     1       5.652   5.445  17.161  0.00  0.00    +0.000 C 
BRANCH   6  10
ATOM      7  C   UNL     1       7.893   7.058  18.405  0.00  0.00    +0.000 C 
ATOM      8  C   UNL     1       7.410   5.761  18.987  0.00  0.00    +0.000 C 
ATOM      9  O   UNL     1       7.862   5.312  20.040  0.00  0.00    +0.000 OA
ATOM     10  N   UNL     1       6.419   5.071  18.358  0.00  0.00    +0.000 N 
ATOM     11  H   UNL     1       6.179   4.222  18.851  0.00  0.00    +0.000 HD
ENDBRANCH   6  10
BRANCH   6  12
ATOM     12  C   UNL     1       6.038   4.528  15.970  0.00  0.00    +0.000 C 
ATOM     13  C   UNL     1       5.117   4.648  14.748  0.00  0.00    +0.000 C 
ATOM     14  C   UNL     1       7.493   4.726  15.533  0.00  0.00    +0.000 C 
ENDBRANCH   6  12
ENDBRANCH   2   6
ENDBRANCH   1   4
BRANCH   1  15
ATOM     15  C   UNL     1       1.939   8.191  18.494  0.00  0.00    +0.000 C 
ATOM     16  O   UNL     1       2.225   8.829  17.481  0.00  0.00    +0.000 OA
ATOM     17  N   UNL     1       1.231   8.730  19.543  0.00  0.00    +0.000 N 
ATOM     18  H   UNL     1       1.254   8.240  20.430  0.00  0.00    +0.000 HD
BRANCH  17  19
ATOM     19  C   UNL     1       0.809  10.147  19.608  0.00  0.00    +0.000 C 
ATOM     20  C   UNL     1       1.660  11.073  18.725  0.00  0.00    +0.000 C 
ATOM     21  C   UNL     1       0.768  12.263  18.410  0.00  0.00    +0.000 C 
ATOM     22  C   UNL     1      -0.660  11.735  18.452  0.00  0.00    +0.000 C 
ATOM     23  C   UNL     1      -0.581  10.296  18.962  0.00  0.00    +0.000 C 
BRANCH  19  24
ATOM     24  C   UNL     1       0.781  10.628  21.092  0.00  0.00    +0.000 C 
ATOM     25  N   UNL     1       0.052   9.868  21.961  0.00  0.00    +0.000 N 
ATOM     26  O   UNL     1       1.413  11.595  21.509  0.00  0.00    +0.000 OA
ATOM     27  H   UNL     1      -0.335   8.973  21.688  0.00  0.00    +0.000 HD
ATOM     28  H   UNL     1       0.062  10.101  22.947  0.00  0.00    +0.000 HD
ENDBRANCH  19  24
ENDBRANCH  17  19
ENDBRANCH   1  15
BRANCH   1  29
ATOM     29  C   UNL     1       2.180   6.302  20.105  0.00  0.00    +0.000 C 
BRANCH  29  30
ATOM     30  C   UNL     1       1.518   4.934  20.290  0.00  0.00    +0.000 C 
BRANCH  30  31
ATOM     31  C   UNL     1       2.532   3.885  20.735  0.00  0.00    +0.000 C 
BRANCH  31  32
ATOM     32  N   UNL     1       2.676   2.863  19.719  0.00  0.00    +0.000 N 
ATOM     33  C   UNL     1       3.844   2.314  19.320  0.00  0.00    +0.000 C 
ATOM     34  N   UNL     1       5.039   2.648  19.635  0.00  0.00    +0.000 NA
ATOM     35  N   UNL     1       3.641   1.305  18.455  0.00  0.00    +0.000 N 
ATOM     36  H   UNL     1       1.909   2.200  19.698  0.00  0.00    +0.000 HD
ATOM     37  H   UNL     1       5.019   3.442  20.274  0.00  0.00    +0.000 HD
ATOM     38  H   UNL     1       2.956   1.530  17.745  0.00  0.00    +0.000 HD
ATOM     39  H   UNL     1       4.526   1.052  18.022  0.00  0.00    +0.000 HD
ENDBRANCH  31  32
ENDBRANCH  30  31
ENDBRANCH  29  30
ENDBRANCH   1  29
TORSDOF 11
ENDMDL
MODEL 4
REMARK VINA RESULT:      -7.2      1.919      7.232
REMARK  Name = 
REMARK  14 active torsions:
REMARK  status: ('A' for Active; 'I' for Inactive)
REMARK    1  A    between atoms: C_1  and  C_2
REMARK    2  A    between atoms: N_4  and  C_5
REMARK    3  A    between atoms: C_5  and  C_6
REMARK    4  A    between atoms: C_5  and  C_28
REMARK    5  A    between atoms: N_8  and  C_9
REMARK    6  A    between atoms: C_9  and  C_10
REMARK    7  A    between atoms: C_9  and  C_17
REMARK    8  A    between atoms: C_10  and  C_11
REMARK    9  A    between atoms: C_11  and  C_12
REMARK   10  A    between atoms: C_12  and  N_13
REMARK   11  A    between atoms: N_19  and  C_20
REMARK   12  A    between atoms: C_20  and  C_21
REMARK   13  A    between atoms: C_28  and  C_29
REMARK   14  A    between atoms: C_28  and  C_30
REMARK                            x       y       z     vdW  Elec       q    Type
REMARK                         _______ _______ _______ _____ _____    ______ ____
ROOT
ATOM      1  C   UNL     1       3.358   6.908  17.666  0.00  0.00    +0.000 C 
ENDROOT
BRANCH   1   4
ATOM      2  C   UNL     1       1.887   8.885  18.135  0.00  0.00    +0.000 C 
ATOM      3  O   UNL     1       2.290   9.513  17.160  0.00  0.00    +0.000 OA
ATOM      4  N   UNL     1       2.357   7.631  18.454  0.00  0.00    +0.000 N 
ATOM      5  H   UNL     1       1.952   7.164  19.259  0.00  0.00    +0.000 HD
BRANCH   2   6
ATOM      6  C   UNL     1       0.935   9.520  19.182  0.00  0.00    +0.000 C 
BRANCH   6  10
ATOM      7  C   UNL     1      -0.328   8.764  21.828  0.00  0.00    +0.000 C 
ATOM      8  C   UNL     1       1.096   9.225  21.714  0.00  0.00    +0.000 C 
ATOM      9  O   UNL     1       1.847   9.264  22.687  0.00  0.00    +0.000 OA
ATOM     10  N   UNL     1       1.591   9.581  20.495  0.00  0.00    +0.000 N 
ATOM     11  H   UNL     1       2.559   9.864  20.550  0.00  0.00    +0.000 HD
ENDBRANCH   6  10
BRANCH   6  12
ATOM     12  C   UNL     1       0.424  10.927  18.772  0.00  0.00    +0.000 C 
ATOM     13  C   UNL     1      -1.061  11.177  19.063  0.00  0.00    +0.000 C 
ATOM     14  C   UNL     1       1.261  12.051  19.392  0.00  0.00    +0.000 C 
ENDBRANCH   6  12
ENDBRANCH   2   6
ENDBRANCH   1   4
BRANCH   1  15
ATOM     15  C   UNL     1       3.174   5.414  18.000  0.00  0.00    +0.000 C 
ATOM     16  O   UNL     1       3.256   4.551  17.126  0.00  0.00    +0.000 OA
ATOM     17  N   UNL     1       2.987   5.117  19.330  0.00  0.00    +0.000 N 
ATOM     18  H   UNL     1       2.678   5.864  19.942  0.00  0.00    +0.000 HD
BRANCH  17  19
ATOM     19  C   UNL     1       2.785   3.744  19.845  0.00  0.00    +0.000 C 
ATOM     20  C   UNL     1       2.487   3.700  21.352  0.00  0.00    +0.000 C 
ATOM     21  C   UNL     1       1.716   2.409  21.573  0.00  0.00    +0.000 C 
ATOM     22  C   UNL     1       0.988   2.129  20.265  0.00  0.00    +0.000 C 
ATOM     23  C   UNL     1       1.487   3.163  19.255  0.00  0.00    +0.000 C 
BRANCH  19  24
ATOM     24  C   UNL     1       4.008   2.850  19.471  0.00  0.00    +0.000 C 
ATOM     25  N   UNL     1       3.826   1.975  18.440  0.00  0.00    +0.000 N 
ATOM     26  O   UNL     1       5.110   2.938  20.009  0.00  0.00    +0.000 OA
ATOM     27  H   UNL     1       2.993   1.999  17.864  0.00  0.00    +0.000 HD
ATOM     28  H   UNL     1       4.612   1.424  18.117  0.00  0.00    +0.000 HD
ENDBRANCH  19  24
ENDBRANCH  17  19
ENDBRANCH   1  15
BRANCH   1  29
ATOM     29  C   UNL     1       4.790   7.314  18.059  0.00  0.00    +0.000 C 
BRANCH  29  30
ATOM     30  C   UNL     1       5.754   7.246  16.872  0.00  0.00    +0.000 C 
BRANCH  30  31
ATOM     31  C   UNL     1       6.819   6.176  17.086  0.00  0.00    +0.000 C 
BRANCH  31  32
ATOM     32  N   UNL     1       7.035   5.430  15.863  0.00  0.00    +0.000 N 
ATOM     33  C   UNL     1       6.466   4.245  15.557  0.00  0.00    +0.000 C 
ATOM     34  N   UNL     1       5.748   3.482  16.293  0.00  0.00    +0.000 NA
ATOM     35  N   UNL     1       6.762   3.869  14.300  0.00  0.00    +0.000 N 
ATOM     36  H   UNL     1       7.168   6.018  15.047  0.00  0.00    +0.000 HD
ATOM     37  H   UNL     1       5.641   3.898  17.218  0.00  0.00    +0.000 HD
ATOM     38  H   UNL     1       7.740   3.997  14.073  0.00  0.00    +0.000 HD
ATOM     39  H   UNL     1       6.497   2.895  14.171  0.00  0.00    +0.000 HD
ENDBRANCH  31  32
ENDBRANCH  30  31
ENDBRANCH  29  30
ENDBRANCH   1  29
TORSDOF 11
ENDMDL
MODEL 5
REMARK VINA RESULT:      -7.2      1.979      7.159
REMARK  Name = 
REMARK  14 active torsions:
REMARK  status: ('A' for Active; 'I' for Inactive)
REMARK    1  A    between atoms: C_1  and  C_2
REMARK    2  A    between atoms: N_4  and  C_5
REMARK    3  A    between atoms: C_5  and  C_6
REMARK    4  A    between atoms: C_5  and  C_28
REMARK    5  A    between atoms: N_8  and  C_9
REMARK    6  A    between atoms: C_9  and  C_10
REMARK    7  A    between atoms: C_9  and  C_17
REMARK    8  A    between atoms: C_10  and  C_11
REMARK    9  A    between atoms: C_11  and  C_12
REMARK   10  A    between atoms: C_12  and  N_13
REMARK   11  A    between atoms: N_19  and  C_20
REMARK   12  A    between atoms: C_20  and  C_21
REMARK   13  A    between atoms: C_28  and  C_29
REMARK   14  A    between atoms: C_28  and  C_30
REMARK                            x       y       z     vdW  Elec       q    Type
REMARK                         _______ _______ _______ _____ _____    ______ ____
ROOT
ATOM      1  C   UNL     1       2.474   6.670  20.079  0.00  0.00    +0.000 C 
ENDROOT
BRANCH   1   4
ATOM      2  C   UNL     1       1.232   8.723  20.810  0.00  0.00    +0.000 C 
ATOM      3  O   UNL     1       1.450   8.523  22.003  0.00  0.00    +0.000 OA
ATOM      4  N   UNL     1       1.681   7.875  19.824  0.00  0.00    +0.000 N 
ATOM      5  H   UNL     1       1.486   8.125  18.859  0.00  0.00    +0.000 HD
BRANCH   2   6
ATOM      6  C   UNL     1       0.294   9.860  20.329  0.00  0.00    +0.000 C 
BRANCH   6  10
ATOM      7  C   UNL     1      -1.628  11.883  21.503  0.00  0.00    +0.000 C 
ATOM      8  C   UNL     1      -0.138  12.066  21.543  0.00  0.00    +0.000 C 
ATOM      9  O   UNL     1       0.385  13.024  22.110  0.00  0.00    +0.000 OA
ATOM     10  N   UNL     1       0.667  11.131  20.966  0.00  0.00    +0.000 N 
ATOM     11  H   UNL     1       1.646  11.363  21.067  0.00  0.00    +0.000 HD
ENDBRANCH   6  10
BRANCH   6  12
ATOM     12  C   UNL     1       0.269  10.023  18.786  0.00  0.00    +0.000 C 
ATOM     13  C   UNL     1      -1.118  10.319  18.198  0.00  0.00    +0.000 C 
ATOM     14  C   UNL     1       1.265  11.078  18.296  0.00  0.00    +0.000 C 
ENDBRANCH   6  12
ENDBRANCH   2   6
ENDBRANCH   1   4
BRANCH   1  15
ATOM     15  C   UNL     1       3.134   6.296  18.737  0.00  0.00    +0.000 C 
ATOM     16  O   UNL     1       2.501   6.338  17.682  0.00  0.00    +0.000 OA
ATOM     17  N   UNL     1       4.474   5.988  18.795  0.00  0.00    +0.000 N 
ATOM     18  H   UNL     1       4.860   5.726  19.694  0.00  0.00    +0.000 HD
BRANCH  17  19
ATOM     19  C   UNL     1       5.278   5.598  17.616  0.00  0.00    +0.000 C 
ATOM     20  C   UNL     1       4.745   4.342  16.907  0.00  0.00    +0.000 C 
ATOM     21  C   UNL     1       5.232   4.452  15.472  0.00  0.00    +0.000 C 
ATOM     22  C   UNL     1       5.365   5.942  15.189  0.00  0.00    +0.000 C 
ATOM     23  C   UNL     1       5.124   6.663  16.515  0.00  0.00    +0.000 C 
BRANCH  19  24
ATOM     24  C   UNL     1       6.777   5.439  18.022  0.00  0.00    +0.000 C 
ATOM     25  N   UNL     1       7.182   4.180  18.360  0.00  0.00    +0.000 N 
ATOM     26  O   UNL     1       7.594   6.356  17.995  0.00  0.00    +0.000 OA
ATOM     27  H   UNL     1       6.583   3.375  18.225  0.00  0.00    +0.000 HD
ATOM     28  H   UNL     1       8.161   4.016  18.563  0.00  0.00    +0.000 HD
ENDBRANCH  19  24
ENDBRANCH  17  19
ENDBRANCH   1  15
BRANCH   1  29
ATOM     29  C   UNL     1       1.587   5.491  20.521  0.00  0.00    +0.000 C 
BRANCH  29  30
ATOM     30  C   UNL     1       1.631   4.331  19.524  0.00  0.00    +0.000 C 
BRANCH  30  31
ATOM     31  C   UNL     1       1.924   3.010  20.226  0.00  0.00    +0.000 C 
BRANCH  31  32
ATOM     32  N   UNL     1       2.523   2.070  19.300  0.00  0.00    +0.000 N 
ATOM     33  C   UNL     1       3.842   1.795  19.206  0.00  0.00    +0.000 C 
ATOM     34  N   UNL     1       4.827   2.368  19.789  0.00  0.00    +0.000 NA
ATOM     35  N   UNL     1       4.072   0.790  18.344  0.00  0.00    +0.000 N 
ATOM     36  H   UNL     1       1.943   1.258  19.113  0.00  0.00    +0.000 HD
ATOM     37  H   UNL     1       4.484   3.122  20.384  0.00  0.00    +0.000 HD
ATOM     38  H   UNL     1       3.545   0.882  17.485  0.00  0.00    +0.000 HD
ATOM     39  H   UNL     1       5.068   0.744  18.141  0.00  0.00    +0.000 HD
ENDBRANCH  31  32
ENDBRANCH  30  31
ENDBRANCH  29  30
ENDBRANCH   1  29
TORSDOF 11
ENDMDL
MODEL 6
REMARK VINA RESULT:      -7.1      1.852      6.850
REMARK  Name = 
REMARK  14 active torsions:
REMARK  status: ('A' for Active; 'I' for Inactive)
REMARK    1  A    between atoms: C_1  and  C_2
REMARK    2  A    between atoms: N_4  and  C_5
REMARK    3  A    between atoms: C_5  and  C_6
REMARK    4  A    between atoms: C_5  and  C_28
REMARK    5  A    between atoms: N_8  and  C_9
REMARK    6  A    between atoms: C_9  and  C_10
REMARK    7  A    between atoms: C_9  and  C_17
REMARK    8  A    between atoms: C_10  and  C_11
REMARK    9  A    between atoms: C_11  and  C_12
REMARK   10  A    between atoms: C_12  and  N_13
REMARK   11  A    between atoms: N_19  and  C_20
REMARK   12  A    between atoms: C_20  and  C_21
REMARK   13  A    between atoms: C_28  and  C_29
REMARK   14  A    between atoms: C_28  and  C_30
REMARK                            x       y       z     vdW  Elec       q    Type
REMARK                         _______ _______ _______ _____ _____    ______ ____
ROOT
ATOM      1  C   UNL     1       2.812   5.830  18.747  0.00  0.00    +0.000 C 
ENDROOT
BRANCH   1   4
ATOM      2  C   UNL     1       1.691   7.424  20.326  0.00  0.00    +0.000 C 
ATOM      3  O   UNL     1       1.381   6.539  21.120  0.00  0.00    +0.000 OA
ATOM      4  N   UNL     1       2.370   7.165  19.157  0.00  0.00    +0.000 N 
ATOM      5  H   UNL     1       2.616   7.953  18.568  0.00  0.00    +0.000 HD
BRANCH   2   6
ATOM      6  C   UNL     1       1.198   8.884  20.496  0.00  0.00    +0.000 C 
BRANCH   6  10
ATOM      7  C   UNL     1       1.488  11.143  18.501  0.00  0.00    +0.000 C 
ATOM      8  C   UNL     1       0.321  10.198  18.489  0.00  0.00    +0.000 C 
ATOM      9  O   UNL     1      -0.554  10.255  17.626  0.00  0.00    +0.000 OA
ATOM     10  N   UNL     1       0.238   9.223  19.436  0.00  0.00    +0.000 N 
ATOM     11  H   UNL     1      -0.585   8.649  19.316  0.00  0.00    +0.000 HD
ENDBRANCH   6  10
BRANCH   6  12
ATOM     12  C   UNL     1       0.578   9.165  21.891  0.00  0.00    +0.000 C 
ATOM     13  C   UNL     1       1.600   9.333  23.022  0.00  0.00    +0.000 C 
ATOM     14  C   UNL     1      -0.367  10.371  21.874  0.00  0.00    +0.000 C 
ENDBRANCH   6  12
ENDBRANCH   2   6
ENDBRANCH   1   4
BRANCH   1  15
ATOM     15  C   UNL     1       3.966   6.046  17.748  0.00  0.00    +0.000 C 
ATOM     16  O   UNL     1       4.350   7.177  17.453  0.00  0.00    +0.000 OA
ATOM     17  N   UNL     1       4.572   4.903  17.278  0.00  0.00    +0.000 N 
ATOM     18  H   UNL     1       4.059   4.032  17.352  0.00  0.00    +0.000 HD
BRANCH  17  19
ATOM     19  C   UNL     1       5.690   4.906  16.309  0.00  0.00    +0.000 C 
ATOM     20  C   UNL     1       5.863   3.564  15.580  0.00  0.00    +0.000 C 
ATOM     21  C   UNL     1       6.551   3.904  14.267  0.00  0.00    +0.000 C 
ATOM     22  C   UNL     1       6.132   5.329  13.934  0.00  0.00    +0.000 C 
ATOM     23  C   UNL     1       5.353   5.851  15.141  0.00  0.00    +0.000 C 
BRANCH  19  24
ATOM     24  C   UNL     1       7.007   5.353  17.016  0.00  0.00    +0.000 C 
ATOM     25  N   UNL     1       7.582   4.443  17.857  0.00  0.00    +0.000 N 
ATOM     26  O   UNL     1       7.562   6.430  16.812  0.00  0.00    +0.000 OA
ATOM     27  H   UNL     1       7.249   3.488  17.913  0.00  0.00    +0.000 HD
ATOM     28  H   UNL     1       8.474   4.662  18.284  0.00  0.00    +0.000 HD
ENDBRANCH  19  24
ENDBRANCH  17  19
ENDBRANCH   1  15
BRANCH   1  29
ATOM     29  C   UNL     1       1.691   5.060  18.024  0.00  0.00    +0.000 C 
BRANCH  29  30
ATOM     30  C   UNL     1       1.514   3.645  18.580  0.00  0.00    +0.000 C 
BRANCH  30  31
ATOM     31  C   UNL     1       2.283   3.464  19.884  0.00  0.00    +0.000 C 
BRANCH  31  32
ATOM     32  N   UNL     1       3.137   2.296  19.806  0.00  0.00    +0.000 N 
ATOM     33  C   UNL     1       4.486   2.314  19.739  0.00  0.00    +0.000 C 
ATOM     34  N   UNL     1       5.271   3.315  19.601  0.00  0.00    +0.000 NA
ATOM     35  N   UNL     1       4.997   1.072  19.806  0.00  0.00    +0.000 N 
ATOM     36  H   UNL     1       2.785   1.500  20.328  0.00  0.00    +0.000 HD
ATOM     37  H   UNL     1       4.727   4.175  19.541  0.00  0.00    +0.000 HD
ATOM     38  H   UNL     1       4.502   0.413  19.217  0.00  0.00    +0.000 HD
ATOM     39  H   UNL     1       5.980   1.100  19.550  0.00  0.00    +0.000 HD
ENDBRANCH  31  32
ENDBRANCH  30  31
ENDBRANCH  29  30
ENDBRANCH   1  29
TORSDOF 11
ENDMDL
MODEL 7
REMARK VINA RESULT:      -7.1      1.754      6.897
REMARK  Name = 
REMARK  14 active torsions:
REMARK  status: ('A' for Active; 'I' for Inactive)
REMARK    1  A    between atoms: C_1  and  C_2
REMARK    2  A    between atoms: N_4  and  C_5
REMARK    3  A    between atoms: C_5  and  C_6
REMARK    4  A    between atoms: C_5  and  C_28
REMARK    5  A    between atoms: N_8  and  C_9
REMARK    6  A    between atoms: C_9  and  C_10
REMARK    7  A    between atoms: C_9  and  C_17
REMARK    8  A    between atoms: C_10  and  C_11
REMARK    9  A    between atoms: C_11  and  C_12
REMARK   10  A    between atoms: C_12  and  N_13
REMARK   11  A    between atoms: N_19  and  C_20
REMARK   12  A    between atoms: C_20  and  C_21
REMARK   13  A    between atoms: C_28  and  C_29
REMARK   14  A    between atoms: C_28  and  C_30
REMARK                            x       y       z     vdW  Elec       q    Type
REMARK                         _______ _______ _______ _____ _____    ______ ____
ROOT
ATOM      1  C   UNL     1       2.788   6.657  19.182  0.00  0.00    +0.000 C 
ENDROOT
BRANCH   1   4
ATOM      2  C   UNL     1       1.537   8.636  20.080  0.00  0.00    +0.000 C 
ATOM      3  O   UNL     1       1.347   8.115  21.176  0.00  0.00    +0.000 OA
ATOM      4  N   UNL     1       2.211   7.998  19.064  0.00  0.00    +0.000 N 
ATOM      5  H   UNL     1       2.354   8.506  18.197  0.00  0.00    +0.000 HD
BRANCH   2   6
ATOM      6  C   UNL     1       0.890   9.992  19.695  0.00  0.00    +0.000 C 
BRANCH   6  10
ATOM      7  C   UNL     1       1.661  12.919  19.674  0.00  0.00    +0.000 C 
ATOM      8  C   UNL     1       2.102  11.959  18.606  0.00  0.00    +0.000 C 
ATOM      9  O   UNL     1       2.852  12.301  17.694  0.00  0.00    +0.000 OA
ATOM     10  N   UNL     1       1.690  10.662  18.660  0.00  0.00    +0.000 N 
ATOM     11  H   UNL     1       2.059  10.117  17.893  0.00  0.00    +0.000 HD
ENDBRANCH   6  10
BRANCH   6  12
ATOM     12  C   UNL     1      -0.584   9.857  19.226  0.00  0.00    +0.000 C 
ATOM     13  C   UNL     1      -1.520  10.960  19.738  0.00  0.00    +0.000 C 
ATOM     14  C   UNL     1      -0.702   9.755  17.702  0.00  0.00    +0.000 C 
ENDBRANCH   6  12
ENDBRANCH   2   6
ENDBRANCH   1   4
BRANCH   1  15
ATOM     15  C   UNL     1       3.894   6.567  18.111  0.00  0.00    +0.000 C 
ATOM     16  O   UNL     1       4.308   7.573  17.537  0.00  0.00    +0.000 OA
ATOM     17  N   UNL     1       4.423   5.314  17.902  0.00  0.00    +0.000 N 
ATOM     18  H   UNL     1       3.879   4.515  18.204  0.00  0.00    +0.000 HD
BRANCH  17  19
ATOM     19  C   UNL     1       5.485   5.027  16.912  0.00  0.00    +0.000 C 
ATOM     20  C   UNL     1       5.382   3.619  16.304  0.00  0.00    +0.000 C 
ATOM     21  C   UNL     1       6.069   3.711  14.952  0.00  0.00    +0.000 C 
ATOM     22  C   UNL     1       5.905   5.156  14.499  0.00  0.00    +0.000 C 
ATOM     23  C   UNL     1       5.282   5.915  15.671  0.00  0.00    +0.000 C 
BRANCH  19  24
ATOM     24  C   UNL     1       6.888   5.280  17.547  0.00  0.00    +0.000 C 
ATOM     25  N   UNL     1       7.444   6.506  17.317  0.00  0.00    +0.000 N 
ATOM     26  O   UNL     1       7.468   4.473  18.268  0.00  0.00    +0.000 OA
ATOM     27  H   UNL     1       6.920   7.252  16.877  0.00  0.00    +0.000 HD
ATOM     28  H   UNL     1       8.321   6.741  17.767  0.00  0.00    +0.000 HD
ENDBRANCH  19  24
ENDBRANCH  17  19
ENDBRANCH   1  15
BRANCH   1  29
ATOM     29  C   UNL     1       1.746   5.563  18.886  0.00  0.00    +0.000 C 
BRANCH  29  30
ATOM     30  C   UNL     1       1.347   4.791  20.146  0.00  0.00    +0.000 C 
BRANCH  30  31
ATOM     31  C   UNL     1       1.568   3.292  19.968  0.00  0.00    +0.000 C 
BRANCH  31  32
ATOM     32  N   UNL     1       2.970   2.968  20.135  0.00  0.00    +0.000 N 
ATOM     33  C   UNL     1       3.682   2.141  19.339  0.00  0.00    +0.000 C 
ATOM     34  N   UNL     1       3.274   1.389  18.387  0.00  0.00    +0.000 NA
ATOM     35  N   UNL     1       4.985   2.141  19.673  0.00  0.00    +0.000 N 
ATOM     36  H   UNL     1       3.526   3.738  20.490  0.00  0.00    +0.000 HD
ATOM     37  H   UNL     1       2.264   1.486  18.281  0.00  0.00    +0.000 HD
ATOM     38  H   UNL     1       5.133   2.081  20.673  0.00  0.00    +0.000 HD
ATOM     39  H   UNL     1       5.452   1.370  19.203  0.00  0.00    +0.000 HD
ENDBRANCH  31  32
ENDBRANCH  30  31
ENDBRANCH  29  30
ENDBRANCH   1  29
TORSDOF 11
ENDMDL
MODEL 8
REMARK VINA RESULT:      -7.1      1.052      1.552
REMARK  Name = 
REMARK  14 active torsions:
REMARK  status: ('A' for Active; 'I' for Inactive)
REMARK    1  A    between atoms: C_1  and  C_2
REMARK    2  A    between atoms: N_4  and  C_5
REMARK    3  A    between atoms: C_5  and  C_6
REMARK    4  A    between atoms: C_5  and  C_28
REMARK    5  A    between atoms: N_8  and  C_9
REMARK    6  A    between atoms: C_9  and  C_10
REMARK    7  A    between atoms: C_9  and  C_17
REMARK    8  A    between atoms: C_10  and  C_11
REMARK    9  A    between atoms: C_11  and  C_12
REMARK   10  A    between atoms: C_12  and  N_13
REMARK   11  A    between atoms: N_19  and  C_20
REMARK   12  A    between atoms: C_20  and  C_21
REMARK   13  A    between atoms: C_28  and  C_29
REMARK   14  A    between atoms: C_28  and  C_30
REMARK                            x       y       z     vdW  Elec       q    Type
REMARK                         _______ _______ _______ _____ _____    ______ ____
ROOT
ATOM      1  C   UNL     1       2.624   6.514  18.586  0.00  0.00    +0.000 C 
ENDROOT
BRANCH   1   4
ATOM      2  C   UNL     1       4.579   5.488  17.397  0.00  0.00    +0.000 C 
ATOM      3  O   UNL     1       3.914   4.561  16.942  0.00  0.00    +0.000 OA
ATOM      4  N   UNL     1       4.037   6.462  18.204  0.00  0.00    +0.000 N 
ATOM      5  H   UNL     1       4.645   7.212  18.516  0.00  0.00    +0.000 HD
BRANCH   2   6
ATOM      6  C   UNL     1       6.120   5.547  17.234  0.00  0.00    +0.000 C 
BRANCH   6  10
ATOM      7  C   UNL     1       6.422   3.616  14.922  0.00  0.00    +0.000 C 
ATOM      8  C   UNL     1       6.590   5.099  14.764  0.00  0.00    +0.000 C 
ATOM      9  O   UNL     1       6.803   5.616  13.668  0.00  0.00    +0.000 OA
ATOM     10  N   UNL     1       6.473   5.907  15.854  0.00  0.00    +0.000 N 
ATOM     11  H   UNL     1       6.599   6.882  15.616  0.00  0.00    +0.000 HD
ENDBRANCH   6  10
BRANCH   6  12
ATOM     12  C   UNL     1       6.806   6.518  18.232  0.00  0.00    +0.000 C 
ATOM     13  C   UNL     1       7.737   5.839  19.246  0.00  0.00    +0.000 C 
ATOM     14  C   UNL     1       7.563   7.644  17.520  0.00  0.00    +0.000 C 
ENDBRANCH   6  12
ENDBRANCH   2   6
ENDBRANCH   1   4
BRANCH   1  15
ATOM     15  C   UNL     1       2.195   7.989  18.457  0.00  0.00    +0.000 C 
ATOM     16  O   UNL     1       2.455   8.642  17.446  0.00  0.00    +0.000 OA
ATOM     17  N   UNL     1       1.454   8.490  19.502  0.00  0.00    +0.000 N 
ATOM     18  H   UNL     1       1.496   8.001  20.389  0.00  0.00    +0.000 HD
BRANCH  17  19
ATOM     19  C   UNL     1       0.959   9.883  19.564  0.00  0.00    +0.000 C 
ATOM     20  C   UNL     1       1.882  10.886  18.853  0.00  0.00    +0.000 C 
ATOM     21  C   UNL     1       0.987  12.051  18.462  0.00  0.00    +0.000 C 
ATOM     22  C   UNL     1      -0.405  11.463  18.276  0.00  0.00    +0.000 C 
ATOM     23  C   UNL     1      -0.330  10.006  18.731  0.00  0.00    +0.000 C 
BRANCH  19  24
ATOM     24  C   UNL     1       0.696  10.291  21.047  0.00  0.00    +0.000 C 
ATOM     25  N   UNL     1      -0.315   9.632  21.686  0.00  0.00    +0.000 N 
ATOM     26  O   UNL     1       1.376  11.109  21.662  0.00  0.00    +0.000 OA
ATOM     27  H   UNL     1      -0.777   8.835  21.267  0.00  0.00    +0.000 HD
ATOM     28  H   UNL     1      -0.476   9.813  22.670  0.00  0.00    +0.000 HD
ENDBRANCH  19  24
ENDBRANCH  17  19
ENDBRANCH   1  15
BRANCH   1  29
ATOM     29  C   UNL     1       2.416   6.081  20.049  0.00  0.00    +0.000 C 
BRANCH  29  30
ATOM     30  C   UNL     1       1.451   4.899  20.169  0.00  0.00    +0.000 C 
BRANCH  30  31
ATOM     31  C   UNL     1       1.939   3.704  19.356  0.00  0.00    +0.000 C 
BRANCH  31  32
ATOM     32  N   UNL     1       3.137   3.146  19.951  0.00  0.00    +0.000 N 
ATOM     33  C   UNL     1       3.976   2.273  19.353  0.00  0.00    +0.000 C 
ATOM     34  N   UNL     1       3.842   1.667  18.234  0.00  0.00    +0.000 NA
ATOM     35  N   UNL     1       5.062   2.041  20.111  0.00  0.00    +0.000 N 
ATOM     36  H   UNL     1       3.621   3.790  20.568  0.00  0.00    +0.000 HD
ATOM     37  H   UNL     1       2.958   1.932  17.801  0.00  0.00    +0.000 HD
ATOM     38  H   UNL     1       4.834   1.888  21.085  0.00  0.00    +0.000 HD
ATOM     39  H   UNL     1       5.565   1.239  19.738  0.00  0.00    +0.000 HD
ENDBRANCH  31  32
ENDBRANCH  30  31
ENDBRANCH  29  30
ENDBRANCH   1  29
TORSDOF 11
ENDMDL
MODEL 9
REMARK VINA RESULT:      -7.1      1.901      7.285
REMARK  Name = 
REMARK  14 active torsions:
REMARK  status: ('A' for Active; 'I' for Inactive)
REMARK    1  A    between atoms: C_1  and  C_2
REMARK    2  A    between atoms: N_4  and  C_5
REMARK    3  A    between atoms: C_5  and  C_6
REMARK    4  A    between atoms: C_5  and  C_28
REMARK    5  A    between atoms: N_8  and  C_9
REMARK    6  A    between atoms: C_9  and  C_10
REMARK    7  A    between atoms: C_9  and  C_17
REMARK    8  A    between atoms: C_10  and  C_11
REMARK    9  A    between atoms: C_11  and  C_12
REMARK   10  A    between atoms: C_12  and  N_13
REMARK   11  A    between atoms: N_19  and  C_20
REMARK   12  A    between atoms: C_20  and  C_21
REMARK   13  A    between atoms: C_28  and  C_29
REMARK   14  A    between atoms: C_28  and  C_30
REMARK                            x       y       z     vdW  Elec       q    Type
REMARK                         _______ _______ _______ _____ _____    ______ ____
ROOT
ATOM      1  C   UNL     1       3.111   6.771  17.646  0.00  0.00    +0.000 C 
ENDROOT
BRANCH   1   4
ATOM      2  C   UNL     1       1.808   8.773  18.413  0.00  0.00    +0.000 C 
ATOM      3  O   UNL     1       1.938   9.363  17.343  0.00  0.00    +0.000 OA
ATOM      4  N   UNL     1       2.350   7.529  18.643  0.00  0.00    +0.000 N 
ATOM      5  H   UNL     1       2.173   7.094  19.542  0.00  0.00    +0.000 HD
BRANCH   2   6
ATOM      6  C   UNL     1       1.163   9.452  19.648  0.00  0.00    +0.000 C 
BRANCH   6  10
ATOM      7  C   UNL     1       0.532  12.356  19.070  0.00  0.00    +0.000 C 
ATOM      8  C   UNL     1      -0.505  11.273  18.995  0.00  0.00    +0.000 C 
ATOM      9  O   UNL     1      -1.659  11.501  18.635  0.00  0.00    +0.000 OA
ATOM     10  N   UNL     1      -0.159   9.991  19.300  0.00  0.00    +0.000 N 
ATOM     11  H   UNL     1      -0.940   9.357  19.204  0.00  0.00    +0.000 HD
ENDBRANCH   6  10
BRANCH   6  12
ATOM     12  C   UNL     1       1.049   8.510  20.877  0.00  0.00    +0.000 C 
ATOM     13  C   UNL     1       1.724   9.037  22.150  0.00  0.00    +0.000 C 
ATOM     14  C   UNL     1      -0.403   8.134  21.188  0.00  0.00    +0.000 C 
ENDBRANCH   6  12
ENDBRANCH   2   6
ENDBRANCH   1   4
BRANCH   1  15
ATOM     15  C   UNL     1       2.953   5.284  18.022  0.00  0.00    +0.000 C 
ATOM     16  O   UNL     1       3.376   4.393  17.286  0.00  0.00    +0.000 OA
ATOM     17  N   UNL     1       2.382   5.035  19.249  0.00  0.00    +0.000 N 
ATOM     18  H   UNL     1       1.836   5.774  19.675  0.00  0.00    +0.000 HD
BRANCH  17  19
ATOM     19  C   UNL     1       2.141   3.675  19.780  0.00  0.00    +0.000 C 
ATOM     20  C   UNL     1       3.374   3.064  20.464  0.00  0.00    +0.000 C 
ATOM     21  C   UNL     1       2.826   2.045  21.450  0.00  0.00    +0.000 C 
ATOM     22  C   UNL     1       1.445   2.549  21.845  0.00  0.00    +0.000 C 
ATOM     23  C   UNL     1       1.145   3.753  20.952  0.00  0.00    +0.000 C 
BRANCH  19  24
ATOM     24  C   UNL     1       1.590   2.750  18.650  0.00  0.00    +0.000 C 
ATOM     25  N   UNL     1       2.472   1.854  18.118  0.00  0.00    +0.000 N 
ATOM     26  O   UNL     1       0.421   2.755  18.271  0.00  0.00    +0.000 OA
ATOM     27  H   UNL     1       3.387   1.704  18.525  0.00  0.00    +0.000 HD
ATOM     28  H   UNL     1       2.140   1.186  17.432  0.00  0.00    +0.000 HD
ENDBRANCH  19  24
ENDBRANCH  17  19
ENDBRANCH   1  15
BRANCH   1  29
ATOM     29  C   UNL     1       4.610   7.120  17.692  0.00  0.00    +0.000 C 
BRANCH  29  30
ATOM     30  C   UNL     1       5.309   6.833  16.361  0.00  0.00    +0.000 C 
BRANCH  30  31
ATOM     31  C   UNL     1       6.378   5.757  16.519  0.00  0.00    +0.000 C 
BRANCH  31  32
ATOM     32  N   UNL     1       7.274   5.767  15.381  0.00  0.00    +0.000 N 
ATOM     33  C   UNL     1       7.201   4.937  14.319  0.00  0.00    +0.000 C 
ATOM     34  N   UNL     1       6.448   3.917  14.144  0.00  0.00    +0.000 NA
ATOM     35  N   UNL     1       8.091   5.277  13.369  0.00  0.00    +0.000 N 
ATOM     36  H   UNL     1       7.596   6.695  15.126  0.00  0.00    +0.000 HD
ATOM     37  H   UNL     1       5.855   3.782  14.963  0.00  0.00    +0.000 HD
ATOM     38  H   UNL     1       9.007   5.483  13.747  0.00  0.00    +0.000 HD
ATOM     39  H   UNL     1       8.155   4.526  12.686  0.00  0.00    +0.000 HD
ENDBRANCH  31  32
ENDBRANCH  30  31
ENDBRANCH  29  30
ENDBRANCH   1  29
TORSDOF 11
ENDMDL
