MODEL 1
REMARK VINA RESULT:      -7.6      0.000      0.000
REMARK  Name = 
REMARK  10 active torsions:
REMARK  status: ('A' for Active; 'I' for Inactive)
REMARK    1  A    between atoms: C_2  and  C_3
REMARK    2  A    between atoms: C_3  and  C_4
REMARK    3  A    between atoms: C_4  and  S_5
REMARK    4  A    between atoms: S_5  and  C_6
REMARK    5  A    between atoms: C_6  and  C_7
REMARK    6  A    between atoms: C_7  and  C_8
REMARK    7  A    between atoms: N_10  and  C_11
REMARK    8  A    between atoms: C_11  and  C_12
REMARK    9  A    between atoms: N_19  and  C_20
REMARK   10  A    between atoms: C_20  and  C_21
REMARK                            x       y       z     vdW  Elec       q    Type
REMARK                         _______ _______ _______ _____ _____    ______ ____
ROOT
ATOM      1  S   UNL     1       1.291   3.079  20.970  0.00  0.00    +0.000 S 
ENDROOT
BRANCH   1   2
ATOM      2  C   UNL     1       1.159   4.705  20.132  0.00  0.00    +0.000 C 
BRANCH   2   3
ATOM      3  C   UNL     1       2.539   5.361  20.081  0.00  0.00    +0.000 C 
BRANCH   3   5
ATOM      4  O   UNL     1       3.173   7.179  18.616  0.00  0.00    +0.000 OA
ATOM      5  C   UNL     1       2.484   6.780  19.547  0.00  0.00    +0.000 C 
ATOM      6  N   UNL     1       1.572   7.571  20.215  0.00  0.00    +0.000 N 
ATOM      7  H   UNL     1       1.037   7.177  20.978  0.00  0.00    +0.000 HD
BRANCH   6   8
ATOM      8  C   UNL     1       1.320   8.952  19.859  0.00  0.00    +0.000 C 
BRANCH   8   9
ATOM      9  C   UNL     1       0.445   9.629  20.885  0.00  0.00    +0.000 A 
ATOM     10  C   UNL     1       0.332   9.093  22.178  0.00  0.00    +0.000 A 
ATOM     11  C   UNL     1      -0.474   9.712  23.136  0.00  0.00    +0.000 A 
ATOM     12  C   UNL     1      -1.178  10.862  22.799  0.00  0.00    +0.000 A 
ATOM     13  F   UNL     1      -1.950  11.457  23.716  0.00  0.00    +0.000 F 
ATOM     14  C   UNL     1      -1.089  11.405  21.522  0.00  0.00    +0.000 A 
ATOM     15  C   UNL     1      -0.282  10.789  20.563  0.00  0.00    +0.000 A 
ENDBRANCH   8   9
ENDBRANCH   6   8
ENDBRANCH   3   5
ENDBRANCH   2   3
ENDBRANCH   1   2
BRANCH   1  16
ATOM     16  C   UNL     1       2.885   2.502  20.280  0.00  0.00    +0.000 C 
BRANCH  16  17
ATOM     17  C   UNL     1       2.651   1.801  18.941  0.00  0.00    +0.000 C 
BRANCH  17  18
ATOM     18  C   UNL     1       2.931   2.726  17.771  0.00  0.00    +0.000 C 
ATOM     19  O   UNL     1       2.054   3.139  17.019  0.00  0.00    +0.000 OA
ATOM     20  N   UNL     1       4.261   3.065  17.642  0.00  0.00    +0.000 N 
ATOM     21  H   UNL     1       4.938   2.688  18.290  0.00  0.00    +0.000 HD
BRANCH  20  22
ATOM     22  C   UNL     1       4.734   3.971  16.616  0.00  0.00    +0.000 C 
BRANCH  22  23
ATOM     23  C   UNL     1       5.760   4.934  17.159  0.00  0.00    +0.000 A 
ATOM     24  C   UNL     1       5.714   6.289  16.794  0.00  0.00    +0.000 A 
ATOM     25  C   UNL     1       6.653   7.191  17.298  0.00  0.00    +0.000 A 
ATOM     26  C   UNL     1       7.645   6.738  18.159  0.00  0.00    +0.000 A 
ATOM     27  F   UNL     1       8.546   7.603  18.643  0.00  0.00    +0.000 F 
ATOM     28  C   UNL     1       7.716   5.399  18.525  0.00  0.00    +0.000 A 
ATOM     29  C   UNL     1       6.776   4.495  18.023  0.00  0.00    +0.000 A 
ENDBRANCH  22  23
ENDBRANCH  20  22
ENDBRANCH  17  18
ENDBRANCH  16  17
ENDBRANCH   1  16
TORSDOF 10
ENDMDL
MODEL 2
REMARK VINA RESULT:      -7.3      2.126      2.720
REMARK  Name = 
REMARK  10 active torsions:
REMARK  status: ('A' for Active; 'I' for Inactive)
REMARK    1  A    between atoms: C_2  and  C_3
REMARK    2  A    between atoms: C_3  and  C_4
REMARK    3  A    between atoms: C_4  and  S_5
REMARK    4  A    between atoms: S_5  and  C_6
REMARK    5  A    between atoms: C_6  and  C_7
REMARK    6  A    between atoms: C_7  and  C_8
REMARK    7  A    between atoms: N_10  and  C_11
REMARK    8  A    between atoms: C_11  and  C_12
REMARK    9  A    between atoms: N_19  and  C_20
REMARK   10  A    between atoms: C_20  and  C_21
REMARK                            x       y       z     vdW  Elec       q    Type
REMARK                         _______ _______ _______ _____ _____    ______ ____
ROOT
ATOM      1  S   UNL     1       1.674   5.214  20.592  0.00  0.00    +0.000 S 
ENDROOT
BRANCH   1   2
ATOM      2  C   UNL     1       2.846   6.301  19.690  0.00  0.00    +0.000 C 
BRANCH   2   3
ATOM      3  C   UNL     1       2.248   6.673  18.334  0.00  0.00    +0.000 C 
BRANCH   3   5
ATOM      4  O   UNL     1       2.917   8.717  17.224  0.00  0.00    +0.000 OA
ATOM      5  C   UNL     1       2.248   8.172  18.094  0.00  0.00    +0.000 C 
ATOM      6  N   UNL     1       1.410   8.854  18.952  0.00  0.00    +0.000 N 
ATOM      7  H   UNL     1       0.888   8.340  19.649  0.00  0.00    +0.000 HD
BRANCH   6   8
ATOM      8  C   UNL     1       1.219  10.287  18.889  0.00  0.00    +0.000 C 
BRANCH   8   9
ATOM      9  C   UNL     1      -0.221  10.635  18.602  0.00  0.00    +0.000 A 
ATOM     10  C   UNL     1      -0.838  11.697  19.281  0.00  0.00    +0.000 A 
ATOM     11  C   UNL     1      -2.169  12.029  19.023  0.00  0.00    +0.000 A 
ATOM     12  C   UNL     1      -2.890  11.292  18.091  0.00  0.00    +0.000 A 
ATOM     13  F   UNL     1      -4.166  11.609  17.841  0.00  0.00    +0.000 F 
ATOM     14  C   UNL     1      -2.303  10.230  17.413  0.00  0.00    +0.000 A 
ATOM     15  C   UNL     1      -0.970   9.897  17.669  0.00  0.00    +0.000 A 
ENDBRANCH   8   9
ENDBRANCH   6   8
ENDBRANCH   3   5
ENDBRANCH   2   3
ENDBRANCH   1   2
BRANCH   1  16
ATOM     16  C   UNL     1       2.601   3.636  20.524  0.00  0.00    +0.000 C 
BRANCH  16  17
ATOM     17  C   UNL     1       2.065   2.766  19.387  0.00  0.00    +0.000 C 
BRANCH  17  18
ATOM     18  C   UNL     1       2.672   3.157  18.052  0.00  0.00    +0.000 C 
ATOM     19  O   UNL     1       2.018   3.231  17.016  0.00  0.00    +0.000 OA
ATOM     20  N   UNL     1       4.021   3.430  18.118  0.00  0.00    +0.000 N 
ATOM     21  H   UNL     1       4.505   3.345  19.000  0.00  0.00    +0.000 HD
BRANCH  20  22
ATOM     22  C   UNL     1       4.781   3.862  16.964  0.00  0.00    +0.000 C 
BRANCH  22  23
ATOM     23  C   UNL     1       5.754   4.957  17.322  0.00  0.00    +0.000 A 
ATOM     24  C   UNL     1       6.843   4.682  18.165  0.00  0.00    +0.000 A 
ATOM     25  C   UNL     1       7.755   5.686  18.496  0.00  0.00    +0.000 A 
ATOM     26  C   UNL     1       7.575   6.969  17.993  0.00  0.00    +0.000 A 
ATOM     27  F   UNL     1       8.449   7.932  18.310  0.00  0.00    +0.000 F 
ATOM     28  C   UNL     1       6.498   7.266  17.166  0.00  0.00    +0.000 A 
ATOM     29  C   UNL     1       5.585   6.262  16.832  0.00  0.00    +0.000 A 
ENDBRANCH  22  23
ENDBRANCH  20  22
ENDBRANCH  17  18
ENDBRANCH  16  17
ENDBRANCH   1  16
TORSDOF 10
ENDMDL
MODEL 3
REMARK VINA RESULT:      -7.3      2.300      2.795
REMARK  Name = 
REMARK  10 active torsions:
REMARK  status: ('A' for Active; 'I' for Inactive)
REMARK    1  A    between atoms: C_2  and  C_3
REMARK    2  A    between atoms: C_3  and  C_4
REMARK    3  A    between atoms: C_4  and  S_5
REMARK    4  A    between atoms: S_5  and  C_6
REMARK    5  A    between atoms: C_6  and  C_7
REMARK    6  A    between atoms: C_7  and  C_8
REMARK    7  A    between atoms: N_10  and  C_11
REMARK    8  A    between atoms: C_11  and  C_12
REMARK    9  A    between atoms: N_19  and  C_20
REMARK   10  A    between atoms: C_20  and  C_21
REMARK                            x       y       z     vdW  Elec       q    Type
REMARK                         _______ _______ _______ _____ _____    ______ ____
ROOT
ATOM      1  S   UNL     1       2.268   5.113  20.525  0.00  0.00    +0.000 S 
ENDROOT
BRANCH   1   2
ATOM      2  C   UNL     1       1.950   6.869  20.099  0.00  0.00    +0.000 C 
BRANCH   2   3
ATOM      3  C   UNL     1       2.347   7.116  18.644  0.00  0.00    +0.000 C 
BRANCH   3   5
ATOM      4  O   UNL     1       2.525   9.029  17.173  0.00  0.00    +0.000 OA
ATOM      5  C   UNL     1       2.082   8.545  18.208  0.00  0.00    +0.000 C 
ATOM      6  N   UNL     1       1.282   9.238  19.094  0.00  0.00    +0.000 N 
ATOM      7  H   UNL     1       0.953   8.776  19.931  0.00  0.00    +0.000 HD
BRANCH   6   8
ATOM      8  C   UNL     1       0.866  10.606  18.871  0.00  0.00    +0.000 C 
BRANCH   8   9
ATOM      9  C   UNL     1      -0.601  10.682  18.529  0.00  0.00    +0.000 A 
ATOM     10  C   UNL     1      -1.134   9.854  17.528  0.00  0.00    +0.000 A 
ATOM     11  C   UNL     1      -2.491   9.914  17.203  0.00  0.00    +0.000 A 
ATOM     12  C   UNL     1      -3.316  10.810  17.872  0.00  0.00    +0.000 A 
ATOM     13  F   UNL     1      -4.617  10.868  17.563  0.00  0.00    +0.000 F 
ATOM     14  C   UNL     1      -2.809  11.646  18.860  0.00  0.00    +0.000 A 
ATOM     15  C   UNL     1      -1.452  11.587  19.188  0.00  0.00    +0.000 A 
ENDBRANCH   8   9
ENDBRANCH   6   8
ENDBRANCH   3   5
ENDBRANCH   2   3
ENDBRANCH   1   2
BRANCH   1  16
ATOM     16  C   UNL     1       1.383   4.294  19.147  0.00  0.00    +0.000 C 
BRANCH  16  17
ATOM     17  C   UNL     1       1.891   2.863  18.978  0.00  0.00    +0.000 C 
BRANCH  17  18
ATOM     18  C   UNL     1       3.115   2.807  18.084  0.00  0.00    +0.000 C 
ATOM     19  O   UNL     1       3.807   1.801  17.956  0.00  0.00    +0.000 OA
ATOM     20  N   UNL     1       3.369   3.989  17.423  0.00  0.00    +0.000 N 
ATOM     21  H   UNL     1       2.767   4.786  17.574  0.00  0.00    +0.000 HD
BRANCH  20  22
ATOM     22  C   UNL     1       4.466   4.135  16.488  0.00  0.00    +0.000 C 
BRANCH  22  23
ATOM     23  C   UNL     1       5.556   5.015  17.049  0.00  0.00    +0.000 A 
ATOM     24  C   UNL     1       5.537   6.397  16.805  0.00  0.00    +0.000 A 
ATOM     25  C   UNL     1       6.535   7.223  17.326  0.00  0.00    +0.000 A 
ATOM     26  C   UNL     1       7.559   6.666  18.083  0.00  0.00    +0.000 A 
ATOM     27  F   UNL     1       8.516   7.457  18.584  0.00  0.00    +0.000 F 
ATOM     28  C   UNL     1       7.603   5.299  18.328  0.00  0.00    +0.000 A 
ATOM     29  C   UNL     1       6.604   4.471  17.809  0.00  0.00    +0.000 A 
ENDBRANCH  22  23
ENDBRANCH  20  22
ENDBRANCH  17  18
ENDBRANCH  16  17
ENDBRANCH   1  16
TORSDOF 10
ENDMDL
MODEL 4
REMARK VINA RESULT:      -7.1      2.615      8.414
REMARK  Name = 
REMARK  10 active torsions:
REMARK  status: ('A' for Active; 'I' for Inactive)
REMARK    1  A    between atoms: C_2  and  C_3
REMARK    2  A    between atoms: C_3  and  C_4
REMARK    3  A    between atoms: C_4  and  S_5
REMARK    4  A    between atoms: S_5  and  C_6
REMARK    5  A    between atoms: C_6  and  C_7
REMARK    6  A    between atoms: C_7  and  C_8
REMARK    7  A    between atoms: N_10  and  C_11
REMARK    8  A    between atoms: C_11  and  C_12
REMARK    9  A    between atoms: N_19  and  C_20
REMARK   10  A    between atoms: C_20  and  C_21
REMARK                            x       y       z     vdW  Elec       q    Type
REMARK                         _______ _______ _______ _____ _____    ______ ____
ROOT
ATOM      1  S   UNL     1       1.781   5.839  20.468  0.00  0.00    +0.000 S 
ENDROOT
BRANCH   1   2
ATOM      2  C   UNL     1       1.573   4.358  19.404  0.00  0.00    +0.000 C 
BRANCH   2   3
ATOM      3  C   UNL     1       2.435   3.220  19.948  0.00  0.00    +0.000 C 
BRANCH   3   5
ATOM      4  O   UNL     1       4.755   2.570  19.724  0.00  0.00    +0.000 OA
ATOM      5  C   UNL     1       3.773   3.119  19.239  0.00  0.00    +0.000 C 
ATOM      6  N   UNL     1       3.764   3.702  17.989  0.00  0.00    +0.000 N 
ATOM      7  H   UNL     1       2.918   4.141  17.652  0.00  0.00    +0.000 HD
BRANCH   6   8
ATOM      8  C   UNL     1       4.916   3.699  17.113  0.00  0.00    +0.000 C 
BRANCH   8   9
ATOM      9  C   UNL     1       5.816   4.878  17.389  0.00  0.00    +0.000 A 
ATOM     10  C   UNL     1       6.950   4.723  18.201  0.00  0.00    +0.000 A 
ATOM     11  C   UNL     1       7.791   5.807  18.463  0.00  0.00    +0.000 A 
ATOM     12  C   UNL     1       7.493   7.051  17.920  0.00  0.00    +0.000 A 
ATOM     13  F   UNL     1       8.299   8.091  18.169  0.00  0.00    +0.000 F 
ATOM     14  C   UNL     1       6.371   7.231  17.121  0.00  0.00    +0.000 A 
ATOM     15  C   UNL     1       5.529   6.148  16.856  0.00  0.00    +0.000 A 
ENDBRANCH   8   9
ENDBRANCH   6   8
ENDBRANCH   3   5
ENDBRANCH   2   3
ENDBRANCH   1   2
BRANCH   1  16
ATOM     16  C   UNL     1       2.853   6.852  19.383  0.00  0.00    +0.000 C 
BRANCH  16  17
ATOM     17  C   UNL     1       2.106   7.210  18.099  0.00  0.00    +0.000 C 
BRANCH  17  18
ATOM     18  C   UNL     1       1.836   8.701  18.007  0.00  0.00    +0.000 C 
ATOM     19  O   UNL     1       2.478   9.455  17.283  0.00  0.00    +0.000 OA
ATOM     20  N   UNL     1       0.796   9.122  18.807  0.00  0.00    +0.000 N 
ATOM     21  H   UNL     1       0.309   8.454  19.387  0.00  0.00    +0.000 HD
BRANCH  20  22
ATOM     22  C   UNL     1       0.349  10.500  18.836  0.00  0.00    +0.000 C 
BRANCH  22  23
ATOM     23  C   UNL     1      -1.080  10.626  18.370  0.00  0.00    +0.000 A 
ATOM     24  C   UNL     1      -1.950  11.524  19.010  0.00  0.00    +0.000 A 
ATOM     25  C   UNL     1      -3.272  11.656  18.581  0.00  0.00    +0.000 A 
ATOM     26  C   UNL     1      -3.729  10.885  17.519  0.00  0.00    +0.000 A 
ATOM     27  F   UNL     1      -4.997  11.012  17.108  0.00  0.00    +0.000 F 
ATOM     28  C   UNL     1      -2.889   9.983  16.879  0.00  0.00    +0.000 A 
ATOM     29  C   UNL     1      -1.564   9.850  17.305  0.00  0.00    +0.000 A 
ENDBRANCH  22  23
ENDBRANCH  20  22
ENDBRANCH  17  18
ENDBRANCH  16  17
ENDBRANCH   1  16
TORSDOF 10
ENDMDL
MODEL 5
REMARK VINA RESULT:      -7.0      3.255      4.233
REMARK  Name = 
REMARK  10 active torsions:
REMARK  status: ('A' for Active; 'I' for Inactive)
REMARK    1  A    between atoms: C_2  and  C_3
REMARK    2  A    between atoms: C_3  and  C_4
REMARK    3  A    between atoms: C_4  and  S_5
REMARK    4  A    between atoms: S_5  and  C_6
REMARK    5  A    between atoms: C_6  and  C_7
REMARK    6  A    between atoms: C_7  and  C_8
REMARK    7  A    between atoms: N_10  and  C_11
REMARK    8  A    between atoms: C_11  and  C_12
REMARK    9  A    between atoms: N_19  and  C_20
REMARK   10  A    between atoms: C_20  and  C_21
REMARK                            x       y       z     vdW  Elec       q    Type
REMARK                         _______ _______ _______ _____ _____    ______ ____
ROOT
ATOM      1  S   UNL     1       2.439   1.910  18.456  0.00  0.00    +0.000 S 
ENDROOT
BRANCH   1   2
ATOM      2  C   UNL     1       0.848   2.790  18.704  0.00  0.00    +0.000 C 
BRANCH   2   3
ATOM      3  C   UNL     1       0.634   3.036  20.197  0.00  0.00    +0.000 C 
BRANCH   3   5
ATOM      4  O   UNL     1       2.278   3.860  21.770  0.00  0.00    +0.000 OA
ATOM      5  C   UNL     1       1.611   4.052  20.761  0.00  0.00    +0.000 C 
ATOM      6  N   UNL     1       1.673   5.210  20.013  0.00  0.00    +0.000 N 
ATOM      7  H   UNL     1       1.091   5.302  19.191  0.00  0.00    +0.000 HD
BRANCH   6   8
ATOM      8  C   UNL     1       2.560   6.307  20.337  0.00  0.00    +0.000 C 
BRANCH   8   9
ATOM      9  C   UNL     1       2.031   7.614  19.798  0.00  0.00    +0.000 A 
ATOM     10  C   UNL     1       2.285   7.980  18.467  0.00  0.00    +0.000 A 
ATOM     11  C   UNL     1       1.800   9.186  17.956  0.00  0.00    +0.000 A 
ATOM     12  C   UNL     1       1.069  10.033  18.780  0.00  0.00    +0.000 A 
ATOM     13  F   UNL     1       0.602  11.189  18.292  0.00  0.00    +0.000 F 
ATOM     14  C   UNL     1       0.814   9.696  20.104  0.00  0.00    +0.000 A 
ATOM     15  C   UNL     1       1.296   8.489  20.617  0.00  0.00    +0.000 A 
ENDBRANCH   8   9
ENDBRANCH   6   8
ENDBRANCH   3   5
ENDBRANCH   2   3
ENDBRANCH   1   2
BRANCH   1  16
ATOM     16  C   UNL     1       3.444   3.274  17.762  0.00  0.00    +0.000 C 
BRANCH  16  17
ATOM     17  C   UNL     1       4.656   3.536  18.655  0.00  0.00    +0.000 C 
BRANCH  17  18
ATOM     18  C   UNL     1       5.700   4.378  17.945  0.00  0.00    +0.000 C 
ATOM     19  O   UNL     1       6.875   4.428  18.299  0.00  0.00    +0.000 OA
ATOM     20  N   UNL     1       5.206   5.072  16.863  0.00  0.00    +0.000 N 
ATOM     21  H   UNL     1       4.227   4.996  16.625  0.00  0.00    +0.000 HD
BRANCH  20  22
ATOM     22  C   UNL     1       6.046   5.902  16.024  0.00  0.00    +0.000 C 
BRANCH  22  23
ATOM     23  C   UNL     1       6.402   5.204  14.736  0.00  0.00    +0.000 A 
ATOM     24  C   UNL     1       5.618   4.132  14.278  0.00  0.00    +0.000 A 
ATOM     25  C   UNL     1       5.932   3.484  13.082  0.00  0.00    +0.000 A 
ATOM     26  C   UNL     1       7.037   3.899  12.347  0.00  0.00    +0.000 A 
ATOM     27  F   UNL     1       7.338   3.278  11.200  0.00  0.00    +0.000 F 
ATOM     28  C   UNL     1       7.833   4.950  12.787  0.00  0.00    +0.000 A 
ATOM     29  C   UNL     1       7.518   5.601  13.982  0.00  0.00    +0.000 A 
ENDBRANCH  22  23
ENDBRANCH  20  22
ENDBRANCH  17  18
ENDBRANCH  16  17
ENDBRANCH   1  16
TORSDOF 10
ENDMDL
MODEL 6
REMARK VINA RESULT:      -7.0      3.905      7.628
REMARK  Name = 
REMARK  10 active torsions:
REMARK  status: ('A' for Active; 'I' for Inactive)
REMARK    1  A    between atoms: C_2  and  C_3
REMARK    2  A    between atoms: C_3  and  C_4
REMARK    3  A    between atoms: C_4  and  S_5
REMARK    4  A    between atoms: S_5  and  C_6
REMARK    5  A    between atoms: C_6  and  C_7
REMARK    6  A    between atoms: C_7  and  C_8
REMARK    7  A    between atoms: N_10  and  C_11
REMARK    8  A    between atoms: C_11  and  C_12
REMARK    9  A    between atoms: N_19  and  C_20
REMARK   10  A    between atoms: C_20  and  C_21
REMARK                            x       y       z     vdW  Elec       q    Type
REMARK                         _______ _______ _______ _____ _____    ______ ____
ROOT
ATOM      1  S   UNL     1       6.777   4.841  16.288  0.00  0.00    +0.000 S 
ENDROOT
BRANCH   1   2
ATOM      2  C   UNL     1       7.021   4.781  18.106  0.00  0.00    +0.000 C 
BRANCH   2   3
ATOM      3  C   UNL     1       7.975   5.899  18.525  0.00  0.00    +0.000 C 
BRANCH   3   5
ATOM      4  O   UNL     1       6.392   7.467  17.582  0.00  0.00    +0.000 OA
ATOM      5  C   UNL     1       7.495   7.267  18.076  0.00  0.00    +0.000 C 
ATOM      6  N   UNL     1       8.427   8.261  18.291  0.00  0.00    +0.000 N 
ATOM      7  H   UNL     1       9.321   8.024  18.701  0.00  0.00    +0.000 HD
BRANCH   6   8
ATOM      8  C   UNL     1       8.180   9.652  17.974  0.00  0.00    +0.000 C 
BRANCH   8   9
ATOM      9  C   UNL     1       9.241  10.544  18.568  0.00  0.00    +0.000 A 
ATOM     10  C   UNL     1       9.314  10.722  19.959  0.00  0.00    +0.000 A 
ATOM     11  C   UNL     1      10.293  11.545  20.520  0.00  0.00    +0.000 A 
ATOM     12  C   UNL     1      11.195  12.200  19.690  0.00  0.00    +0.000 A 
ATOM     13  F   UNL     1      12.135  12.987  20.227  0.00  0.00    +0.000 F 
ATOM     14  C   UNL     1      11.136  12.046  18.310  0.00  0.00    +0.000 A 
ATOM     15  C   UNL     1      10.158  11.223  17.746  0.00  0.00    +0.000 A 
ENDBRANCH   8   9
ENDBRANCH   6   8
ENDBRANCH   3   5
ENDBRANCH   2   3
ENDBRANCH   1   2
BRANCH   1  16
ATOM     16  C   UNL     1       4.947   4.844  16.221  0.00  0.00    +0.000 C 
BRANCH  16  17
ATOM     17  C   UNL     1       4.398   3.594  16.908  0.00  0.00    +0.000 C 
BRANCH  17  18
ATOM     18  C   UNL     1       3.606   3.944  18.154  0.00  0.00    +0.000 C 
ATOM     19  O   UNL     1       3.024   3.106  18.835  0.00  0.00    +0.000 OA
ATOM     20  N   UNL     1       3.612   5.290  18.450  0.00  0.00    +0.000 N 
ATOM     21  H   UNL     1       4.104   5.932  17.846  0.00  0.00    +0.000 HD
BRANCH  20  22
ATOM     22  C   UNL     1       2.951   5.828  19.621  0.00  0.00    +0.000 C 
BRANCH  22  23
ATOM     23  C   UNL     1       2.358   7.187  19.345  0.00  0.00    +0.000 A 
ATOM     24  C   UNL     1       2.524   7.783  18.084  0.00  0.00    +0.000 A 
ATOM     25  C   UNL     1       1.972   9.036  17.814  0.00  0.00    +0.000 A 
ATOM     26  C   UNL     1       1.261   9.701  18.806  0.00  0.00    +0.000 A 
ATOM     27  F   UNL     1       0.731  10.902  18.548  0.00  0.00    +0.000 F 
ATOM     28  C   UNL     1       1.094   9.135  20.064  0.00  0.00    +0.000 A 
ATOM     29  C   UNL     1       1.644   7.879  20.336  0.00  0.00    +0.000 A 
ENDBRANCH  22  23
ENDBRANCH  20  22
ENDBRANCH  17  18
ENDBRANCH  16  17
ENDBRANCH   1  16
TORSDOF 10
ENDMDL
MODEL 7
REMARK VINA RESULT:      -7.0      2.098      2.459
REMARK  Name = 
REMARK  10 active torsions:
REMARK  status: ('A' for Active; 'I' for Inactive)
REMARK    1  A    between atoms: C_2  and  C_3
REMARK    2  A    between atoms: C_3  and  C_4
REMARK    3  A    between atoms: C_4  and  S_5
REMARK    4  A    between atoms: S_5  and  C_6
REMARK    5  A    between atoms: C_6  and  C_7
REMARK    6  A    between atoms: C_7  and  C_8
REMARK    7  A    between atoms: N_10  and  C_11
REMARK    8  A    between atoms: C_11  and  C_12
REMARK    9  A    between atoms: N_19  and  C_20
REMARK   10  A    between atoms: C_20  and  C_21
REMARK                            x       y       z     vdW  Elec       q    Type
REMARK                         _______ _______ _______ _____ _____    ______ ____
ROOT
ATOM      1  S   UNL     1       2.607   4.105  20.689  0.00  0.00    +0.000 S 
ENDROOT
BRANCH   1   2
ATOM      2  C   UNL     1       1.711   5.405  19.755  0.00  0.00    +0.000 C 
BRANCH   2   3
ATOM      3  C   UNL     1       2.169   6.781  20.238  0.00  0.00    +0.000 C 
BRANCH   3   5
ATOM      4  O   UNL     1       2.860   7.704  18.110  0.00  0.00    +0.000 OA
ATOM      5  C   UNL     1       2.179   7.811  19.123  0.00  0.00    +0.000 C 
ATOM      6  N   UNL     1       1.334   8.874  19.366  0.00  0.00    +0.000 N 
ATOM      7  H   UNL     1       0.802   8.899  20.226  0.00  0.00    +0.000 HD
BRANCH   6   8
ATOM      8  C   UNL     1       1.150   9.962  18.428  0.00  0.00    +0.000 C 
BRANCH   8   9
ATOM      9  C   UNL     1      -0.289  10.414  18.391  0.00  0.00    +0.000 A 
ATOM     10  C   UNL     1      -0.734  11.419  19.265  0.00  0.00    +0.000 A 
ATOM     11  C   UNL     1      -2.063  11.846  19.239  0.00  0.00    +0.000 A 
ATOM     12  C   UNL     1      -2.953  11.262  18.347  0.00  0.00    +0.000 A 
ATOM     13  F   UNL     1      -4.227  11.671  18.319  0.00  0.00    +0.000 F 
ATOM     14  C   UNL     1      -2.538  10.258  17.479  0.00  0.00    +0.000 A 
ATOM     15  C   UNL     1      -1.208   9.830  17.502  0.00  0.00    +0.000 A 
ENDBRANCH   8   9
ENDBRANCH   6   8
ENDBRANCH   3   5
ENDBRANCH   2   3
ENDBRANCH   1   2
BRANCH   1  16
ATOM     16  C   UNL     1       1.738   2.620  20.065  0.00  0.00    +0.000 C 
BRANCH  16  17
ATOM     17  C   UNL     1       1.613   2.689  18.543  0.00  0.00    +0.000 C 
BRANCH  17  18
ATOM     18  C   UNL     1       2.963   2.543  17.866  0.00  0.00    +0.000 C 
ATOM     19  O   UNL     1       3.624   1.509  17.904  0.00  0.00    +0.000 OA
ATOM     20  N   UNL     1       3.370   3.677  17.197  0.00  0.00    +0.000 N 
ATOM     21  H   UNL     1       2.785   4.500  17.207  0.00  0.00    +0.000 HD
BRANCH  20  22
ATOM     22  C   UNL     1       4.609   3.733  16.449  0.00  0.00    +0.000 C 
BRANCH  22  23
ATOM     23  C   UNL     1       5.613   4.644  17.111  0.00  0.00    +0.000 A 
ATOM     24  C   UNL     1       6.405   5.501  16.330  0.00  0.00    +0.000 A 
ATOM     25  C   UNL     1       7.331   6.356  16.933  0.00  0.00    +0.000 A 
ATOM     26  C   UNL     1       7.473   6.347  18.315  0.00  0.00    +0.000 A 
ATOM     27  F   UNL     1       8.360   7.167  18.893  0.00  0.00    +0.000 F 
ATOM     28  C   UNL     1       6.707   5.500  19.106  0.00  0.00    +0.000 A 
ATOM     29  C   UNL     1       5.779   4.645  18.505  0.00  0.00    +0.000 A 
ENDBRANCH  22  23
ENDBRANCH  20  22
ENDBRANCH  17  18
ENDBRANCH  16  17
ENDBRANCH   1  16
TORSDOF 10
ENDMDL
MODEL 8
REMARK VINA RESULT:      -6.9      2.752      8.577
REMARK  Name = 
REMARK  10 active torsions:
REMARK  status: ('A' for Active; 'I' for Inactive)
REMARK    1  A    between atoms: C_2  and  C_3
REMARK    2  A    between atoms: C_3  and  C_4
REMARK    3  A    between atoms: C_4  and  S_5
REMARK    4  A    between atoms: S_5  and  C_6
REMARK    5  A    between atoms: C_6  and  C_7
REMARK    6  A    between atoms: C_7  and  C_8
REMARK    7  A    between atoms: N_10  and  C_11
REMARK    8  A    between atoms: C_11  and  C_12
REMARK    9  A    between atoms: N_19  and  C_20
REMARK   10  A    between atoms: C_20  and  C_21
REMARK                            x       y       z     vdW  Elec       q    Type
REMARK                         _______ _______ _______ _____ _____    ______ ____
ROOT
ATOM      1  S   UNL     1       2.228   5.028  20.779  0.00  0.00    +0.000 S 
ENDROOT
BRANCH   1   2
ATOM      2  C   UNL     1       1.091   3.699  20.223  0.00  0.00    +0.000 C 
BRANCH   2   3
ATOM      3  C   UNL     1       1.853   2.726  19.324  0.00  0.00    +0.000 C 
BRANCH   3   5
ATOM      4  O   UNL     1       1.532   3.923  17.246  0.00  0.00    +0.000 OA
ATOM      5  C   UNL     1       2.299   3.369  18.024  0.00  0.00    +0.000 C 
ATOM      6  N   UNL     1       3.660   3.273  17.816  0.00  0.00    +0.000 N 
ATOM      7  H   UNL     1       4.234   2.799  18.500  0.00  0.00    +0.000 HD
BRANCH   6   8
ATOM      8  C   UNL     1       4.320   3.843  16.661  0.00  0.00    +0.000 C 
BRANCH   8   9
ATOM      9  C   UNL     1       5.377   4.838  17.072  0.00  0.00    +0.000 A 
ATOM     10  C   UNL     1       5.175   6.210  16.852  0.00  0.00    +0.000 A 
ATOM     11  C   UNL     1       6.146   7.141  17.229  0.00  0.00    +0.000 A 
ATOM     12  C   UNL     1       7.324   6.700  17.819  0.00  0.00    +0.000 A 
ATOM     13  F   UNL     1       8.255   7.591  18.183  0.00  0.00    +0.000 F 
ATOM     14  C   UNL     1       7.550   5.346  18.038  0.00  0.00    +0.000 A 
ATOM     15  C   UNL     1       6.580   4.413  17.663  0.00  0.00    +0.000 A 
ENDBRANCH   8   9
ENDBRANCH   6   8
ENDBRANCH   3   5
ENDBRANCH   2   3
ENDBRANCH   1   2
BRANCH   1  16
ATOM     16  C   UNL     1       1.111   6.472  20.636  0.00  0.00    +0.000 C 
BRANCH  16  17
ATOM     17  C   UNL     1       1.924   7.736  20.359  0.00  0.00    +0.000 C 
BRANCH  17  18
ATOM     18  C   UNL     1       1.135   8.990  20.686  0.00  0.00    +0.000 C 
ATOM     19  O   UNL     1       1.193   9.553  21.775  0.00  0.00    +0.000 OA
ATOM     20  N   UNL     1       0.357   9.440  19.641  0.00  0.00    +0.000 N 
ATOM     21  H   UNL     1       0.346   8.929  18.770  0.00  0.00    +0.000 HD
BRANCH  20  22
ATOM     22  C   UNL     1      -0.441  10.645  19.732  0.00  0.00    +0.000 C 
BRANCH  22  23
ATOM     23  C   UNL     1      -1.500  10.688  18.659  0.00  0.00    +0.000 A 
ATOM     24  C   UNL     1      -2.605  11.545  18.797  0.00  0.00    +0.000 A 
ATOM     25  C   UNL     1      -3.587  11.600  17.806  0.00  0.00    +0.000 A 
ATOM     26  C   UNL     1      -3.472  10.791  16.681  0.00  0.00    +0.000 A 
ATOM     27  F   UNL     1      -4.413  10.844  15.730  0.00  0.00    +0.000 F 
ATOM     28  C   UNL     1      -2.393   9.928  16.530  0.00  0.00    +0.000 A 
ATOM     29  C   UNL     1      -1.408   9.873  17.519  0.00  0.00    +0.000 A 
ENDBRANCH  22  23
ENDBRANCH  20  22
ENDBRANCH  17  18
ENDBRANCH  16  17
ENDBRANCH   1  16
TORSDOF 10
ENDMDL
MODEL 9
REMARK VINA RESULT:      -6.9      3.001      3.694
REMARK  Name = 
REMARK  10 active torsions:
REMARK  status: ('A' for Active; 'I' for Inactive)
REMARK    1  A    between atoms: C_2  and  C_3
REMARK    2  A    between atoms: C_3  and  C_4
REMARK    3  A    between atoms: C_4  and  S_5
REMARK    4  A    between atoms: S_5  and  C_6
REMARK    5  A    between atoms: C_6  and  C_7
REMARK    6  A    between atoms: C_7  and  C_8
REMARK    7  A    between atoms: N_10  and  C_11
REMARK    8  A    between atoms: C_11  and  C_12
REMARK    9  A    between atoms: N_19  and  C_20
REMARK   10  A    between atoms: C_20  and  C_21
REMARK                            x       y       z     vdW  Elec       q    Type
REMARK                         _______ _______ _______ _____ _____    ______ ____
ROOT
ATOM      1  S   UNL     1       2.474   6.330  19.880  0.00  0.00    +0.000 S 
ENDROOT
BRANCH   1   2
ATOM      2  C   UNL     1       1.620   7.953  19.936  0.00  0.00    +0.000 C 
BRANCH   2   3
ATOM      3  C   UNL     1       1.103   8.203  21.352  0.00  0.00    +0.000 C 
BRANCH   3   5
ATOM      4  O   UNL     1      -0.307   9.822  22.468  0.00  0.00    +0.000 OA
ATOM      5  C   UNL     1       0.166   9.395  21.422  0.00  0.00    +0.000 C 
ATOM      6  N   UNL     1      -0.091   9.951  20.186  0.00  0.00    +0.000 N 
ATOM      7  H   UNL     1       0.332   9.545  19.362  0.00  0.00    +0.000 HD
BRANCH   6   8
ATOM      8  C   UNL     1      -0.929  11.117  20.007  0.00  0.00    +0.000 C 
BRANCH   8   9
ATOM      9  C   UNL     1      -1.827  10.965  18.805  0.00  0.00    +0.000 A 
ATOM     10  C   UNL     1      -1.447  10.129  17.743  0.00  0.00    +0.000 A 
ATOM     11  C   UNL     1      -2.270   9.980  16.625  0.00  0.00    +0.000 A 
ATOM     12  C   UNL     1      -3.472  10.674  16.563  0.00  0.00    +0.000 A 
ATOM     13  F   UNL     1      -4.264  10.531  15.493  0.00  0.00    +0.000 F 
ATOM     14  C   UNL     1      -3.865  11.515  17.598  0.00  0.00    +0.000 A 
ATOM     15  C   UNL     1      -3.044  11.665  18.718  0.00  0.00    +0.000 A 
ENDBRANCH   8   9
ENDBRANCH   6   8
ENDBRANCH   3   5
ENDBRANCH   2   3
ENDBRANCH   1   2
BRANCH   1  16
ATOM     16  C   UNL     1       1.095   5.236  20.384  0.00  0.00    +0.000 C 
BRANCH  16  17
ATOM     17  C   UNL     1       1.296   3.839  19.797  0.00  0.00    +0.000 C 
BRANCH  17  18
ATOM     18  C   UNL     1       1.897   3.900  18.405  0.00  0.00    +0.000 C 
ATOM     19  O   UNL     1       1.246   4.191  17.406  0.00  0.00    +0.000 OA
ATOM     20  N   UNL     1       3.243   3.607  18.372  0.00  0.00    +0.000 N 
ATOM     21  H   UNL     1       3.723   3.368  19.228  0.00  0.00    +0.000 HD
BRANCH  20  22
ATOM     22  C   UNL     1       4.016   3.650  17.148  0.00  0.00    +0.000 C 
BRANCH  22  23
ATOM     23  C   UNL     1       5.096   4.701  17.214  0.00  0.00    +0.000 A 
ATOM     24  C   UNL     1       4.821   6.017  16.810  0.00  0.00    +0.000 A 
ATOM     25  C   UNL     1       5.811   7.000  16.875  0.00  0.00    +0.000 A 
ATOM     26  C   UNL     1       7.079   6.666  17.334  0.00  0.00    +0.000 A 
ATOM     27  F   UNL     1       8.028   7.609  17.397  0.00  0.00    +0.000 F 
ATOM     28  C   UNL     1       7.376   5.368  17.729  0.00  0.00    +0.000 A 
ATOM     29  C   UNL     1       6.387   4.383  17.667  0.00  0.00    +0.000 A 
ENDBRANCH  22  23
ENDBRANCH  20  22
ENDBRANCH  17  18
ENDBRANCH  16  17
ENDBRANCH   1  16
TORSDOF 10
ENDMDL
