MODEL 1
REMARK VINA RESULT:      -8.5      0.000      0.000
REMARK  Name = 
REMARK  10 active torsions:
REMARK  status: ('A' for Active; 'I' for Inactive)
REMARK    1  A    between atoms: C_1  and  C_2
REMARK    2  A    between atoms: C_2  and  N_3
REMARK    3  A    between atoms: C_6  and  C_7
REMARK    4  A    between atoms: C_7  and  C_8
REMARK    5  A    between atoms: C_11  and  N_12
REMARK    6  A    between atoms: C_13  and  C_15
REMARK    7  A    between atoms: C_15  and  O_16
REMARK    8  A    between atoms: O_16  and  C_17
REMARK    9  A    between atoms: C_20  and  C_21
REMARK   10  A    between atoms: C_30  and  C_31
REMARK                            x       y       z     vdW  Elec       q    Type
REMARK                         _______ _______ _______ _____ _____    ______ ____
ROOT
ATOM      1  C   UNL     1       0.649   9.900  19.588  0.00  0.00    +0.000 A 
ATOM      2  C   UNL     1       1.454   9.203  18.661  0.00  0.00    +0.000 A 
ATOM      3  C   UNL     1       2.070   7.990  18.976  0.00  0.00    +0.000 A 
ATOM      4  C   UNL     1       1.907   7.444  20.241  0.00  0.00    +0.000 A 
ATOM      5  C   UNL     1       1.147   8.121  21.189  0.00  0.00    +0.000 A 
ATOM      6  C   UNL     1       0.485   9.339  20.879  0.00  0.00    +0.000 A 
ENDROOT
BRANCH   4   7
ATOM      7  N   UNL     1       2.547   6.231  20.560  0.00  0.00    +0.000 N 
ATOM      8  C   UNL     1       1.793   5.065  20.716  0.00  0.00    +0.000 C 
ATOM      9  O   UNL     1       0.602   4.961  20.427  0.00  0.00    +0.000 OA
ATOM     10  H   UNL     1       3.300   6.315  21.234  0.00  0.00    +0.000 HD
BRANCH   8  11
ATOM     11  C   UNL     1       2.595   3.888  21.275  0.00  0.00    +0.000 C 
BRANCH  11  12
ATOM     12  O   UNL     1       2.684   2.921  20.234  0.00  0.00    +0.000 OA
BRANCH  12  13
ATOM     13  C   UNL     1       3.329   3.312  19.097  0.00  0.00    +0.000 A 
ATOM     14  C   UNL     1       4.659   3.682  19.267  0.00  0.00    +0.000 A 
ATOM     15  C   UNL     1       5.448   4.033  18.166  0.00  0.00    +0.000 A 
ATOM     16  C   UNL     1       4.940   3.991  16.856  0.00  0.00    +0.000 A 
ATOM     17  C   UNL     1       3.589   3.619  16.710  0.00  0.00    +0.000 A 
ATOM     18  C   UNL     1       2.787   3.290  17.816  0.00  0.00    +0.000 A 
BRANCH  16  19
ATOM     19  C   UNL     1       5.798   4.283  15.684  0.00  0.00    +0.000 A 
ATOM     20  C   UNL     1       5.517   3.775  14.406  0.00  0.00    +0.000 A 
ATOM     21  C   UNL     1       6.324   4.092  13.313  0.00  0.00    +0.000 A 
ATOM     22  C   UNL     1       7.406   4.927  13.517  0.00  0.00    +0.000 A 
ATOM     23  N   UNL     1       7.729   5.442  14.721  0.00  0.00    +0.000 NA
ATOM     24  C   UNL     1       6.929   5.101  15.763  0.00  0.00    +0.000 A 
ENDBRANCH  16  19
ENDBRANCH  12  13
ENDBRANCH  11  12
ENDBRANCH   8  11
ENDBRANCH   4   7
BRANCH   6  25
ATOM     25  C   UNL     1      -0.370   9.907  21.994  0.00  0.00    +0.000 C 
ATOM     26  F   UNL     1      -1.119   9.011  22.689  0.00  0.00    +0.000 F 
ATOM     27  F   UNL     1       0.382  10.554  22.934  0.00  0.00    +0.000 F 
ATOM     28  F   UNL     1      -1.248  10.842  21.531  0.00  0.00    +0.000 F 
ENDBRANCH   6  25
BRANCH   1  29
ATOM     29  C   UNL     1      -0.056  11.159  19.089  0.00  0.00    +0.000 C 
BRANCH  29  33
ATOM     30  N   UNL     1      -0.174  14.484  20.780  0.00  0.00    +0.000 NA
ATOM     31  C   UNL     1       0.692  13.368  21.208  0.00  0.00    +0.000 C 
ATOM     32  C   UNL     1       1.599  12.827  20.096  0.00  0.00    +0.000 C 
ATOM     33  C   UNL     1       0.811  12.420  18.832  0.00  0.00    +0.000 C 
ATOM     34  C   UNL     1       0.019  13.667  18.413  0.00  0.00    +0.000 C 
ATOM     35  C   UNL     1      -0.893  14.189  19.532  0.00  0.00    +0.000 C 
BRANCH  30  37
ATOM     36  C   UNL     1      -0.941  13.986  23.158  0.00  0.00    +0.000 C 
ATOM     37  C   UNL     1      -1.099  14.817  21.886  0.00  0.00    +0.000 C 
ENDBRANCH  30  37
ENDBRANCH  29  33
ENDBRANCH   1  29
TORSDOF 9
ENDMDL
MODEL 2
REMARK VINA RESULT:      -8.3      3.553     10.925
REMARK  Name = 
REMARK  10 active torsions:
REMARK  status: ('A' for Active; 'I' for Inactive)
REMARK    1  A    between atoms: C_1  and  C_2
REMARK    2  A    between atoms: C_2  and  N_3
REMARK    3  A    between atoms: C_6  and  C_7
REMARK    4  A    between atoms: C_7  and  C_8
REMARK    5  A    between atoms: C_11  and  N_12
REMARK    6  A    between atoms: C_13  and  C_15
REMARK    7  A    between atoms: C_15  and  O_16
REMARK    8  A    between atoms: O_16  and  C_17
REMARK    9  A    between atoms: C_20  and  C_21
REMARK   10  A    between atoms: C_30  and  C_31
REMARK                            x       y       z     vdW  Elec       q    Type
REMARK                         _______ _______ _______ _____ _____    ______ ____
ROOT
ATOM      1  C   UNL     1       2.403   5.392  18.597  0.00  0.00    +0.000 A 
ATOM      2  C   UNL     1       2.589   6.783  18.447  0.00  0.00    +0.000 A 
ATOM      3  C   UNL     1       2.313   7.687  19.476  0.00  0.00    +0.000 A 
ATOM      4  C   UNL     1       1.828   7.219  20.689  0.00  0.00    +0.000 A 
ATOM      5  C   UNL     1       1.603   5.857  20.860  0.00  0.00    +0.000 A 
ATOM      6  C   UNL     1       1.908   4.919  19.838  0.00  0.00    +0.000 A 
ENDROOT
BRANCH   4   7
ATOM      7  N   UNL     1       1.533   8.136  21.716  0.00  0.00    +0.000 N 
ATOM      8  C   UNL     1       0.208   8.513  21.954  0.00  0.00    +0.000 C 
ATOM      9  O   UNL     1      -0.772   7.974  21.444  0.00  0.00    +0.000 OA
ATOM     10  H   UNL     1       2.189   8.904  21.798  0.00  0.00    +0.000 HD
BRANCH   8  11
ATOM     11  C   UNL     1       0.071   9.672  22.943  0.00  0.00    +0.000 C 
BRANCH  11  12
ATOM     12  O   UNL     1       0.055  10.868  22.174  0.00  0.00    +0.000 OA
BRANCH  12  13
ATOM     13  C   UNL     1      -1.135  11.533  22.109  0.00  0.00    +0.000 A 
ATOM     14  C   UNL     1      -1.875  11.538  23.287  0.00  0.00    +0.000 A 
ATOM     15  C   UNL     1      -3.078  12.247  23.371  0.00  0.00    +0.000 A 
ATOM     16  C   UNL     1      -3.561  13.003  22.288  0.00  0.00    +0.000 A 
ATOM     17  C   UNL     1      -2.797  12.977  21.105  0.00  0.00    +0.000 A 
ATOM     18  C   UNL     1      -1.601  12.247  21.010  0.00  0.00    +0.000 A 
BRANCH  16  19
ATOM     19  C   UNL     1      -4.792  13.818  22.403  0.00  0.00    +0.000 A 
ATOM     20  C   UNL     1      -5.213  14.369  23.624  0.00  0.00    +0.000 A 
ATOM     21  C   UNL     1      -6.360  15.160  23.697  0.00  0.00    +0.000 A 
ATOM     22  C   UNL     1      -7.070  15.396  22.535  0.00  0.00    +0.000 A 
ATOM     23  N   UNL     1      -6.719  14.890  21.336  0.00  0.00    +0.000 NA
ATOM     24  C   UNL     1      -5.605  14.115  21.305  0.00  0.00    +0.000 A 
ENDBRANCH  16  19
ENDBRANCH  12  13
ENDBRANCH  11  12
ENDBRANCH   8  11
ENDBRANCH   4   7
BRANCH   6  25
ATOM     25  C   UNL     1       1.684   3.467  20.212  0.00  0.00    +0.000 C 
ATOM     26  F   UNL     1       1.166   2.672  19.240  0.00  0.00    +0.000 F 
ATOM     27  F   UNL     1       2.844   2.856  20.598  0.00  0.00    +0.000 F 
ATOM     28  F   UNL     1       0.841   3.344  21.276  0.00  0.00    +0.000 F 
ENDBRANCH   6  25
BRANCH   1  29
ATOM     29  C   UNL     1       2.841   4.501  17.438  0.00  0.00    +0.000 C 
BRANCH  29  33
ATOM     30  N   UNL     1       6.469   5.282  17.040  0.00  0.00    +0.000 NA
ATOM     31  C   UNL     1       5.726   5.424  18.307  0.00  0.00    +0.000 C 
ATOM     32  C   UNL     1       5.006   4.144  18.749  0.00  0.00    +0.000 C 
ATOM     33  C   UNL     1       4.071   3.581  17.657  0.00  0.00    +0.000 C 
ATOM     34  C   UNL     1       4.951   3.381  16.415  0.00  0.00    +0.000 C 
ATOM     35  C   UNL     1       5.655   4.673  15.978  0.00  0.00    +0.000 C 
BRANCH  30  37
ATOM     36  C   UNL     1       7.640   7.427  17.759  0.00  0.00    +0.000 C 
ATOM     37  C   UNL     1       6.991   6.609  16.645  0.00  0.00    +0.000 C 
ENDBRANCH  30  37
ENDBRANCH  29  33
ENDBRANCH   1  29
TORSDOF 9
ENDMDL
MODEL 3
REMARK VINA RESULT:      -8.2      0.952      1.593
REMARK  Name = 
REMARK  10 active torsions:
REMARK  status: ('A' for Active; 'I' for Inactive)
REMARK    1  A    between atoms: C_1  and  C_2
REMARK    2  A    between atoms: C_2  and  N_3
REMARK    3  A    between atoms: C_6  and  C_7
REMARK    4  A    between atoms: C_7  and  C_8
REMARK    5  A    between atoms: C_11  and  N_12
REMARK    6  A    between atoms: C_13  and  C_15
REMARK    7  A    between atoms: C_15  and  O_16
REMARK    8  A    between atoms: O_16  and  C_17
REMARK    9  A    between atoms: C_20  and  C_21
REMARK   10  A    between atoms: C_30  and  C_31
REMARK                            x       y       z     vdW  Elec       q    Type
REMARK                         _______ _______ _______ _____ _____    ______ ____
ROOT
ATOM      1  C   UNL     1       0.793   9.910  19.501  0.00  0.00    +0.000 A 
ATOM      2  C   UNL     1       1.409   9.444  18.320  0.00  0.00    +0.000 A 
ATOM      3  C   UNL     1       2.094   8.228  18.268  0.00  0.00    +0.000 A 
ATOM      4  C   UNL     1       2.192   7.445  19.410  0.00  0.00    +0.000 A 
ATOM      5  C   UNL     1       1.623   7.890  20.599  0.00  0.00    +0.000 A 
ATOM      6  C   UNL     1       0.895   9.108  20.665  0.00  0.00    +0.000 A 
ENDROOT
BRANCH   4   7
ATOM      7  N   UNL     1       2.900   6.229  19.357  0.00  0.00    +0.000 N 
ATOM      8  C   UNL     1       2.329   5.067  19.881  0.00  0.00    +0.000 C 
ATOM      9  O   UNL     1       1.158   4.968  20.244  0.00  0.00    +0.000 OA
ATOM     10  H   UNL     1       3.892   6.311  19.550  0.00  0.00    +0.000 HD
BRANCH   8  11
ATOM     11  C   UNL     1       3.300   3.886  19.951  0.00  0.00    +0.000 C 
BRANCH  11  12
ATOM     12  O   UNL     1       4.612   4.430  19.872  0.00  0.00    +0.000 OA
BRANCH  12  13
ATOM     13  C   UNL     1       5.200   4.419  18.640  0.00  0.00    +0.000 A 
ATOM     14  C   UNL     1       4.518   3.697  17.665  0.00  0.00    +0.000 A 
ATOM     15  C   UNL     1       4.980   3.670  16.345  0.00  0.00    +0.000 A 
ATOM     16  C   UNL     1       6.119   4.393  15.951  0.00  0.00    +0.000 A 
ATOM     17  C   UNL     1       6.795   5.110  16.958  0.00  0.00    +0.000 A 
ATOM     18  C   UNL     1       6.348   5.120  18.289  0.00  0.00    +0.000 A 
BRANCH  16  19
ATOM     19  C   UNL     1       6.561   4.429  14.538  0.00  0.00    +0.000 A 
ATOM     20  C   UNL     1       6.002   3.595  13.557  0.00  0.00    +0.000 A 
ATOM     21  C   UNL     1       6.415   3.673  12.227  0.00  0.00    +0.000 A 
ATOM     22  C   UNL     1       7.385   4.598  11.894  0.00  0.00    +0.000 A 
ATOM     23  N   UNL     1       7.964   5.422  12.792  0.00  0.00    +0.000 NA
ATOM     24  C   UNL     1       7.546   5.309  14.078  0.00  0.00    +0.000 A 
ENDBRANCH  16  19
ENDBRANCH  12  13
ENDBRANCH  11  12
ENDBRANCH   8  11
ENDBRANCH   4   7
BRANCH   6  25
ATOM     25  C   UNL     1       0.268   9.409  22.011  0.00  0.00    +0.000 C 
ATOM     26  F   UNL     1      -0.240  10.659  22.170  0.00  0.00    +0.000 F 
ATOM     27  F   UNL     1      -0.767   8.562  22.293  0.00  0.00    +0.000 F 
ATOM     28  F   UNL     1       1.158   9.240  23.031  0.00  0.00    +0.000 F 
ENDBRANCH   6  25
BRANCH   1  29
ATOM     29  C   UNL     1      -0.015  11.202  19.402  0.00  0.00    +0.000 C 
BRANCH  29  33
ATOM     30  N   UNL     1      -0.155  14.615  20.905  0.00  0.00    +0.000 NA
ATOM     31  C   UNL     1       0.825  13.581  21.289  0.00  0.00    +0.000 C 
ATOM     32  C   UNL     1       1.632  13.024  20.110  0.00  0.00    +0.000 C 
ATOM     33  C   UNL     1       0.732  12.493  18.973  0.00  0.00    +0.000 C 
ATOM     34  C   UNL     1      -0.182  13.662  18.581  0.00  0.00    +0.000 C 
ATOM     35  C   UNL     1      -0.991  14.200  19.769  0.00  0.00    +0.000 C 
BRANCH  30  37
ATOM     36  C   UNL     1      -0.968  13.935  23.222  0.00  0.00    +0.000 C 
ATOM     37  C   UNL     1      -0.967  14.963  22.093  0.00  0.00    +0.000 C 
ENDBRANCH  30  37
ENDBRANCH  29  33
ENDBRANCH   1  29
TORSDOF 9
ENDMDL
MODEL 4
REMARK VINA RESULT:      -8.1      1.731      2.195
REMARK  Name = 
REMARK  10 active torsions:
REMARK  status: ('A' for Active; 'I' for Inactive)
REMARK    1  A    between atoms: C_1  and  C_2
REMARK    2  A    between atoms: C_2  and  N_3
REMARK    3  A    between atoms: C_6  and  C_7
REMARK    4  A    between atoms: C_7  and  C_8
REMARK    5  A    between atoms: C_11  and  N_12
REMARK    6  A    between atoms: C_13  and  C_15
REMARK    7  A    between atoms: C_15  and  O_16
REMARK    8  A    between atoms: O_16  and  C_17
REMARK    9  A    between atoms: C_20  and  C_21
REMARK   10  A    between atoms: C_30  and  C_31
REMARK                            x       y       z     vdW  Elec       q    Type
REMARK                         _______ _______ _______ _____ _____    ______ ____
ROOT
ATOM      1  C   UNL     1       0.580   9.535  20.189  0.00  0.00    +0.000 A 
ATOM      2  C   UNL     1       0.368   8.870  21.415  0.00  0.00    +0.000 A 
ATOM      3  C   UNL     1       0.955   7.636  21.703  0.00  0.00    +0.000 A 
ATOM      4  C   UNL     1       1.768   7.024  20.759  0.00  0.00    +0.000 A 
ATOM      5  C   UNL     1       1.972   7.638  19.527  0.00  0.00    +0.000 A 
ATOM      6  C   UNL     1       1.411   8.908  19.228  0.00  0.00    +0.000 A 
ENDROOT
BRANCH   4   7
ATOM      7  N   UNL     1       2.342   5.771  21.047  0.00  0.00    +0.000 N 
ATOM      8  C   UNL     1       1.597   4.604  20.856  0.00  0.00    +0.000 C 
ATOM      9  O   UNL     1       0.510   4.556  20.284  0.00  0.00    +0.000 OA
ATOM     10  H   UNL     1       2.913   5.751  21.884  0.00  0.00    +0.000 HD
BRANCH   8  11
ATOM     11  C   UNL     1       2.271   3.350  21.418  0.00  0.00    +0.000 C 
BRANCH  11  12
ATOM     12  O   UNL     1       2.441   2.453  20.327  0.00  0.00    +0.000 OA
BRANCH  12  13
ATOM     13  C   UNL     1       3.116   2.935  19.243  0.00  0.00    +0.000 A 
ATOM     14  C   UNL     1       4.430   3.324  19.488  0.00  0.00    +0.000 A 
ATOM     15  C   UNL     1       5.249   3.767  18.445  0.00  0.00    +0.000 A 
ATOM     16  C   UNL     1       4.790   3.803  17.116  0.00  0.00    +0.000 A 
ATOM     17  C   UNL     1       3.455   3.411  16.895  0.00  0.00    +0.000 A 
ATOM     18  C   UNL     1       2.623   2.988  17.944  0.00  0.00    +0.000 A 
BRANCH  16  19
ATOM     19  C   UNL     1       5.682   4.194  16.001  0.00  0.00    +0.000 A 
ATOM     20  C   UNL     1       5.465   3.763  14.682  0.00  0.00    +0.000 A 
ATOM     21  C   UNL     1       6.303   4.173  13.645  0.00  0.00    +0.000 A 
ATOM     22  C   UNL     1       7.351   5.021  13.945  0.00  0.00    +0.000 A 
ATOM     23  N   UNL     1       7.614   5.464  15.191  0.00  0.00    +0.000 NA
ATOM     24  C   UNL     1       6.785   5.035  16.177  0.00  0.00    +0.000 A 
ENDBRANCH  16  19
ENDBRANCH  12  13
ENDBRANCH  11  12
ENDBRANCH   8  11
ENDBRANCH   4   7
BRANCH   6  25
ATOM     25  C   UNL     1       1.797   9.478  17.877  0.00  0.00    +0.000 C 
ATOM     26  F   UNL     1       2.549  10.608  17.896  0.00  0.00    +0.000 F 
ATOM     27  F   UNL     1       2.512   8.582  17.132  0.00  0.00    +0.000 F 
ATOM     28  F   UNL     1       0.701   9.777  17.123  0.00  0.00    +0.000 F 
ENDBRANCH   6  25
BRANCH   1  29
ATOM     29  C   UNL     1      -0.031  10.927  20.037  0.00  0.00    +0.000 C 
BRANCH  29  33
ATOM     30  N   UNL     1      -0.790  14.552  20.495  0.00  0.00    +0.000 NA
ATOM     31  C   UNL     1      -0.406  13.642  21.591  0.00  0.00    +0.000 C 
ATOM     32  C   UNL     1       0.917  12.906  21.349  0.00  0.00    +0.000 C 
ATOM     33  C   UNL     1       0.935  12.142  20.007  0.00  0.00    +0.000 C 
ATOM     34  C   UNL     1       0.618  13.185  18.927  0.00  0.00    +0.000 C 
ATOM     35  C   UNL     1      -0.714  13.905  19.176  0.00  0.00    +0.000 C 
BRANCH  30  37
ATOM     36  C   UNL     1      -2.286  15.895  22.059  0.00  0.00    +0.000 C 
ATOM     37  C   UNL     1      -2.143  15.085  20.773  0.00  0.00    +0.000 C 
ENDBRANCH  30  37
ENDBRANCH  29  33
ENDBRANCH   1  29
TORSDOF 9
ENDMDL
MODEL 5
REMARK VINA RESULT:      -8.1      1.864      2.443
REMARK  Name = 
REMARK  10 active torsions:
REMARK  status: ('A' for Active; 'I' for Inactive)
REMARK    1  A    between atoms: C_1  and  C_2
REMARK    2  A    between atoms: C_2  and  N_3
REMARK    3  A    between atoms: C_6  and  C_7
REMARK    4  A    between atoms: C_7  and  C_8
REMARK    5  A    between atoms: C_11  and  N_12
REMARK    6  A    between atoms: C_13  and  C_15
REMARK    7  A    between atoms: C_15  and  O_16
REMARK    8  A    between atoms: O_16  and  C_17
REMARK    9  A    between atoms: C_20  and  C_21
REMARK   10  A    between atoms: C_30  and  C_31
REMARK                            x       y       z     vdW  Elec       q    Type
REMARK                         _______ _______ _______ _____ _____    ______ ____
ROOT
ATOM      1  C   UNL     1       0.952   9.720  20.247  0.00  0.00    +0.000 A 
ATOM      2  C   UNL     1       0.819   9.108  21.511  0.00  0.00    +0.000 A 
ATOM      3  C   UNL     1       1.289   7.817  21.765  0.00  0.00    +0.000 A 
ATOM      4  C   UNL     1       1.897   7.094  20.749  0.00  0.00    +0.000 A 
ATOM      5  C   UNL     1       2.015   7.657  19.481  0.00  0.00    +0.000 A 
ATOM      6  C   UNL     1       1.574   8.980  19.211  0.00  0.00    +0.000 A 
ENDROOT
BRANCH   4   7
ATOM      7  N   UNL     1       2.351   5.786  21.004  0.00  0.00    +0.000 N 
ATOM      8  C   UNL     1       1.475   4.706  20.868  0.00  0.00    +0.000 C 
ATOM      9  O   UNL     1       0.354   4.776  20.367  0.00  0.00    +0.000 OA
ATOM     10  H   UNL     1       2.969   5.703  21.803  0.00  0.00    +0.000 HD
BRANCH   8  11
ATOM     11  C   UNL     1       2.045   3.386  21.390  0.00  0.00    +0.000 C 
BRANCH  11  12
ATOM     12  O   UNL     1       2.174   2.522  20.267  0.00  0.00    +0.000 OA
BRANCH  12  13
ATOM     13  C   UNL     1       2.897   3.000  19.213  0.00  0.00    +0.000 A 
ATOM     14  C   UNL     1       4.236   3.263  19.485  0.00  0.00    +0.000 A 
ATOM     15  C   UNL     1       5.100   3.688  18.469  0.00  0.00    +0.000 A 
ATOM     16  C   UNL     1       4.658   3.829  17.142  0.00  0.00    +0.000 A 
ATOM     17  C   UNL     1       3.297   3.562  16.894  0.00  0.00    +0.000 A 
ATOM     18  C   UNL     1       2.422   3.159  17.916  0.00  0.00    +0.000 A 
BRANCH  16  19
ATOM     19  C   UNL     1       5.590   4.199  16.052  0.00  0.00    +0.000 A 
ATOM     20  C   UNL     1       5.383   3.799  14.722  0.00  0.00    +0.000 A 
ATOM     21  C   UNL     1       6.260   4.189  13.710  0.00  0.00    +0.000 A 
ATOM     22  C   UNL     1       7.337   4.987  14.046  0.00  0.00    +0.000 A 
ATOM     23  N   UNL     1       7.591   5.398  15.305  0.00  0.00    +0.000 NA
ATOM     24  C   UNL     1       6.724   4.989  16.266  0.00  0.00    +0.000 A 
ENDBRANCH  16  19
ENDBRANCH  12  13
ENDBRANCH  11  12
ENDBRANCH   8  11
ENDBRANCH   4   7
BRANCH   6  25
ATOM     25  C   UNL     1       1.850   9.474  17.805  0.00  0.00    +0.000 C 
ATOM     26  F   UNL     1       2.648   8.685  17.040  0.00  0.00    +0.000 F 
ATOM     27  F   UNL     1       0.698   9.628  17.084  0.00  0.00    +0.000 F 
ATOM     28  F   UNL     1       2.439  10.703  17.808  0.00  0.00    +0.000 F 
ENDBRANCH   6  25
BRANCH   1  29
ATOM     29  C   UNL     1       0.495  11.173  20.126  0.00  0.00    +0.000 C 
BRANCH  29  33
ATOM     30  N   UNL     1      -1.616  14.250  20.138  0.00  0.00    +0.000 NA
ATOM     31  C   UNL     1      -0.538  13.990  19.164  0.00  0.00    +0.000 C 
ATOM     32  C   UNL     1      -0.688  12.660  18.416  0.00  0.00    +0.000 C 
ATOM     33  C   UNL     1      -0.830  11.454  19.370  0.00  0.00    +0.000 C 
ATOM     34  C   UNL     1      -2.028  11.776  20.276  0.00  0.00    +0.000 C 
ATOM     35  C   UNL     1      -1.858  13.104  21.027  0.00  0.00    +0.000 C 
BRANCH  30  37
ATOM     36  C   UNL     1      -0.085  16.271  20.383  0.00  0.00    +0.000 C 
ATOM     37  C   UNL     1      -1.284  15.477  20.896  0.00  0.00    +0.000 C 
ENDBRANCH  30  37
ENDBRANCH  29  33
ENDBRANCH   1  29
TORSDOF 9
ENDMDL
MODEL 6
REMARK VINA RESULT:      -8.0      1.884      2.554
REMARK  Name = 
REMARK  10 active torsions:
REMARK  status: ('A' for Active; 'I' for Inactive)
REMARK    1  A    between atoms: C_1  and  C_2
REMARK    2  A    between atoms: C_2  and  N_3
REMARK    3  A    between atoms: C_6  and  C_7
REMARK    4  A    between atoms: C_7  and  C_8
REMARK    5  A    between atoms: C_11  and  N_12
REMARK    6  A    between atoms: C_13  and  C_15
REMARK    7  A    between atoms: C_15  and  O_16
REMARK    8  A    between atoms: O_16  and  C_17
REMARK    9  A    between atoms: C_20  and  C_21
REMARK   10  A    between atoms: C_30  and  C_31
REMARK                            x       y       z     vdW  Elec       q    Type
REMARK                         _______ _______ _______ _____ _____    ______ ____
ROOT
ATOM      1  C   UNL     1       0.941   9.676  20.260  0.00  0.00    +0.000 A 
ATOM      2  C   UNL     1       0.808   9.085  21.535  0.00  0.00    +0.000 A 
ATOM      3  C   UNL     1       1.266   7.794  21.808  0.00  0.00    +0.000 A 
ATOM      4  C   UNL     1       1.864   7.049  20.802  0.00  0.00    +0.000 A 
ATOM      5  C   UNL     1       1.982   7.590  19.525  0.00  0.00    +0.000 A 
ATOM      6  C   UNL     1       1.553   8.912  19.235  0.00  0.00    +0.000 A 
ENDROOT
BRANCH   4   7
ATOM      7  N   UNL     1       2.305   5.741  21.078  0.00  0.00    +0.000 N 
ATOM      8  C   UNL     1       1.466   4.653  20.820  0.00  0.00    +0.000 C 
ATOM      9  O   UNL     1       0.408   4.722  20.198  0.00  0.00    +0.000 OA
ATOM     10  H   UNL     1       2.832   5.646  21.939  0.00  0.00    +0.000 HD
BRANCH   8  11
ATOM     11  C   UNL     1       1.995   3.329  21.373  0.00  0.00    +0.000 C 
BRANCH  11  12
ATOM     12  O   UNL     1       2.124   2.444  20.267  0.00  0.00    +0.000 OA
BRANCH  12  13
ATOM     13  C   UNL     1       3.060   2.775  19.331  0.00  0.00    +0.000 A 
ATOM     14  C   UNL     1       2.615   2.751  18.013  0.00  0.00    +0.000 A 
ATOM     15  C   UNL     1       3.459   3.141  16.967  0.00  0.00    +0.000 A 
ATOM     16  C   UNL     1       4.765   3.600  17.211  0.00  0.00    +0.000 A 
ATOM     17  C   UNL     1       5.194   3.609  18.553  0.00  0.00    +0.000 A 
ATOM     18  C   UNL     1       4.358   3.196  19.602  0.00  0.00    +0.000 A 
BRANCH  16  19
ATOM     19  C   UNL     1       5.630   4.090  16.113  0.00  0.00    +0.000 A 
ATOM     20  C   UNL     1       5.443   3.692  14.780  0.00  0.00    +0.000 A 
ATOM     21  C   UNL     1       6.253   4.193  13.761  0.00  0.00    +0.000 A 
ATOM     22  C   UNL     1       7.242   5.098  14.093  0.00  0.00    +0.000 A 
ATOM     23  N   UNL     1       7.473   5.514  15.355  0.00  0.00    +0.000 NA
ATOM     24  C   UNL     1       6.674   4.996  16.322  0.00  0.00    +0.000 A 
ENDBRANCH  16  19
ENDBRANCH  12  13
ENDBRANCH  11  12
ENDBRANCH   8  11
ENDBRANCH   4   7
BRANCH   6  25
ATOM     25  C   UNL     1       1.829   9.380  17.820  0.00  0.00    +0.000 C 
ATOM     26  F   UNL     1       2.403  10.605  17.695  0.00  0.00    +0.000 F 
ATOM     27  F   UNL     1       2.659   8.523  17.152  0.00  0.00    +0.000 F 
ATOM     28  F   UNL     1       0.689   9.430  17.073  0.00  0.00    +0.000 F 
ENDBRANCH   6  25
BRANCH   1  29
ATOM     29  C   UNL     1       0.499  11.130  20.116  0.00  0.00    +0.000 C 
BRANCH  29  33
ATOM     30  N   UNL     1      -1.956  13.941  20.148  0.00  0.00    +0.000 NA
ATOM     31  C   UNL     1      -0.659  13.982  19.444  0.00  0.00    +0.000 C 
ATOM     32  C   UNL     1      -0.454  12.826  18.458  0.00  0.00    +0.000 C 
ATOM     33  C   UNL     1      -0.646  11.443  19.116  0.00  0.00    +0.000 C 
ATOM     34  C   UNL     1      -2.050  11.465  19.736  0.00  0.00    +0.000 C 
ATOM     35  C   UNL     1      -2.237  12.620  20.730  0.00  0.00    +0.000 C 
BRANCH  30  37
ATOM     36  C   UNL     1      -3.353  15.407  21.694  0.00  0.00    +0.000 C 
ATOM     37  C   UNL     1      -1.974  15.011  21.171  0.00  0.00    +0.000 C 
ENDBRANCH  30  37
ENDBRANCH  29  33
ENDBRANCH   1  29
TORSDOF 9
ENDMDL
MODEL 7
REMARK VINA RESULT:      -7.9      7.378     10.792
REMARK  Name = 
REMARK  10 active torsions:
REMARK  status: ('A' for Active; 'I' for Inactive)
REMARK    1  A    between atoms: C_1  and  C_2
REMARK    2  A    between atoms: C_2  and  N_3
REMARK    3  A    between atoms: C_6  and  C_7
REMARK    4  A    between atoms: C_7  and  C_8
REMARK    5  A    between atoms: C_11  and  N_12
REMARK    6  A    between atoms: C_13  and  C_15
REMARK    7  A    between atoms: C_15  and  O_16
REMARK    8  A    between atoms: O_16  and  C_17
REMARK    9  A    between atoms: C_20  and  C_21
REMARK   10  A    between atoms: C_30  and  C_31
REMARK                            x       y       z     vdW  Elec       q    Type
REMARK                         _______ _______ _______ _____ _____    ______ ____
ROOT
ATOM      1  C   UNL     1       5.257   4.417  17.532  0.00  0.00    +0.000 A 
ATOM      2  C   UNL     1       5.360   5.284  18.641  0.00  0.00    +0.000 A 
ATOM      3  C   UNL     1       6.001   6.521  18.561  0.00  0.00    +0.000 A 
ATOM      4  C   UNL     1       6.573   6.923  17.362  0.00  0.00    +0.000 A 
ATOM      5  C   UNL     1       6.518   6.078  16.257  0.00  0.00    +0.000 A 
ATOM      6  C   UNL     1       5.841   4.830  16.309  0.00  0.00    +0.000 A 
ENDROOT
BRANCH   4   7
ATOM      7  N   UNL     1       7.237   8.163  17.292  0.00  0.00    +0.000 N 
ATOM      8  C   UNL     1       8.207   8.489  18.244  0.00  0.00    +0.000 C 
ATOM      9  O   UNL     1       8.670   7.700  19.066  0.00  0.00    +0.000 OA
ATOM     10  H   UNL     1       6.644   8.945  17.039  0.00  0.00    +0.000 HD
BRANCH   8  11
ATOM     11  C   UNL     1       8.673   9.944  18.167  0.00  0.00    +0.000 C 
BRANCH  11  12
ATOM     12  O   UNL     1       9.640  10.120  19.197  0.00  0.00    +0.000 OA
BRANCH  12  13
ATOM     13  C   UNL     1      10.181  11.367  19.315  0.00  0.00    +0.000 A 
ATOM     14  C   UNL     1      10.432  12.019  18.112  0.00  0.00    +0.000 A 
ATOM     15  C   UNL     1      10.918  13.331  18.100  0.00  0.00    +0.000 A 
ATOM     16  C   UNL     1      11.136  14.044  19.292  0.00  0.00    +0.000 A 
ATOM     17  C   UNL     1      10.880  13.359  20.496  0.00  0.00    +0.000 A 
ATOM     18  C   UNL     1      10.415  12.034  20.512  0.00  0.00    +0.000 A 
BRANCH  16  19
ATOM     19  C   UNL     1      11.573  15.459  19.278  0.00  0.00    +0.000 A 
ATOM     20  C   UNL     1      11.668  16.200  18.089  0.00  0.00    +0.000 A 
ATOM     21  C   UNL     1      12.052  17.541  18.108  0.00  0.00    +0.000 A 
ATOM     22  C   UNL     1      12.331  18.127  19.328  0.00  0.00    +0.000 A 
ATOM     23  N   UNL     1      12.263  17.465  20.501  0.00  0.00    +0.000 NA
ATOM     24  C   UNL     1      11.898  16.159  20.443  0.00  0.00    +0.000 A 
ENDBRANCH  16  19
ENDBRANCH  12  13
ENDBRANCH  11  12
ENDBRANCH   8  11
ENDBRANCH   4   7
BRANCH   6  25
ATOM     25  C   UNL     1       5.800   4.068  15.000  0.00  0.00    +0.000 C 
ATOM     26  F   UNL     1       5.867   2.715  15.092  0.00  0.00    +0.000 F 
ATOM     27  F   UNL     1       4.656   4.325  14.297  0.00  0.00    +0.000 F 
ATOM     28  F   UNL     1       6.819   4.433  14.171  0.00  0.00    +0.000 F 
ENDBRANCH   6  25
BRANCH   1  29
ATOM     29  C   UNL     1       4.438   3.141  17.719  0.00  0.00    +0.000 C 
BRANCH  29  33
ATOM     30  N   UNL     1       1.233   3.511  19.594  0.00  0.00    +0.000 NA
ATOM     31  C   UNL     1       1.973   4.636  18.991  0.00  0.00    +0.000 C 
ATOM     32  C   UNL     1       2.259   4.458  17.495  0.00  0.00    +0.000 C 
ATOM     33  C   UNL     1       2.982   3.131  17.182  0.00  0.00    +0.000 C 
ATOM     34  C   UNL     1       2.093   2.022  17.763  0.00  0.00    +0.000 C 
ATOM     35  C   UNL     1       1.827   2.207  19.263  0.00  0.00    +0.000 C 
BRANCH  30  37
ATOM     36  C   UNL     1       1.662   2.582  21.927  0.00  0.00    +0.000 C 
ATOM     37  C   UNL     1       1.150   3.726  21.056  0.00  0.00    +0.000 C 
ENDBRANCH  30  37
ENDBRANCH  29  33
ENDBRANCH   1  29
TORSDOF 9
ENDMDL
MODEL 8
REMARK VINA RESULT:      -7.9      3.654     10.848
REMARK  Name = 
REMARK  10 active torsions:
REMARK  status: ('A' for Active; 'I' for Inactive)
REMARK    1  A    between atoms: C_1  and  C_2
REMARK    2  A    between atoms: C_2  and  N_3
REMARK    3  A    between atoms: C_6  and  C_7
REMARK    4  A    between atoms: C_7  and  C_8
REMARK    5  A    between atoms: C_11  and  N_12
REMARK    6  A    between atoms: C_13  and  C_15
REMARK    7  A    between atoms: C_15  and  O_16
REMARK    8  A    between atoms: O_16  and  C_17
REMARK    9  A    between atoms: C_20  and  C_21
REMARK   10  A    between atoms: C_30  and  C_31
REMARK                            x       y       z     vdW  Elec       q    Type
REMARK                         _______ _______ _______ _____ _____    ______ ____
ROOT
ATOM      1  C   UNL     1       2.431   5.005  18.452  0.00  0.00    +0.000 A 
ATOM      2  C   UNL     1       2.787   6.370  18.404  0.00  0.00    +0.000 A 
ATOM      3  C   UNL     1       2.468   7.258  19.433  0.00  0.00    +0.000 A 
ATOM      4  C   UNL     1       1.767   6.804  20.541  0.00  0.00    +0.000 A 
ATOM      5  C   UNL     1       1.372   5.470  20.605  0.00  0.00    +0.000 A 
ATOM      6  C   UNL     1       1.716   4.544  19.584  0.00  0.00    +0.000 A 
ENDROOT
BRANCH   4   7
ATOM      7  N   UNL     1       1.430   7.708  21.567  0.00  0.00    +0.000 N 
ATOM      8  C   UNL     1       0.790   8.910  21.253  0.00  0.00    +0.000 C 
ATOM      9  O   UNL     1       0.328   9.186  20.148  0.00  0.00    +0.000 OA
ATOM     10  H   UNL     1       2.132   7.804  22.292  0.00  0.00    +0.000 HD
BRANCH   8  11
ATOM     11  C   UNL     1       0.691   9.876  22.436  0.00  0.00    +0.000 C 
BRANCH  11  12
ATOM     12  O   UNL     1       0.526  11.179  21.888  0.00  0.00    +0.000 OA
BRANCH  12  13
ATOM     13  C   UNL     1      -0.712  11.738  22.015  0.00  0.00    +0.000 A 
ATOM     14  C   UNL     1      -1.166  12.433  20.899  0.00  0.00    +0.000 A 
ATOM     15  C   UNL     1      -2.450  12.989  20.878  0.00  0.00    +0.000 A 
ATOM     16  C   UNL     1      -3.332  12.838  21.961  0.00  0.00    +0.000 A 
ATOM     17  C   UNL     1      -2.847  12.136  23.082  0.00  0.00    +0.000 A 
ATOM     18  C   UNL     1      -1.551  11.597  23.116  0.00  0.00    +0.000 A 
BRANCH  16  19
ATOM     19  C   UNL     1      -4.718  13.357  21.907  0.00  0.00    +0.000 A 
ATOM     20  C   UNL     1      -5.027  14.698  22.187  0.00  0.00    +0.000 A 
ATOM     21  C   UNL     1      -6.338  15.167  22.098  0.00  0.00    +0.000 A 
ATOM     22  C   UNL     1      -7.328  14.281  21.719  0.00  0.00    +0.000 A 
ATOM     23  N   UNL     1      -7.094  12.982  21.443  0.00  0.00    +0.000 NA
ATOM     24  C   UNL     1      -5.810  12.558  21.553  0.00  0.00    +0.000 A 
ENDBRANCH  16  19
ENDBRANCH  12  13
ENDBRANCH  11  12
ENDBRANCH   8  11
ENDBRANCH   4   7
BRANCH   6  25
ATOM     25  C   UNL     1       1.284   3.115  19.844  0.00  0.00    +0.000 C 
ATOM     26  F   UNL     1       0.532   2.909  20.956  0.00  0.00    +0.000 F 
ATOM     27  F   UNL     1       0.544   2.610  18.811  0.00  0.00    +0.000 F 
ATOM     28  F   UNL     1       2.353   2.277  19.962  0.00  0.00    +0.000 F 
ENDBRANCH   6  25
BRANCH   1  29
ATOM     29  C   UNL     1       2.931   4.115  17.316  0.00  0.00    +0.000 C 
BRANCH  29  33
ATOM     30  N   UNL     1       6.602   4.775  17.446  0.00  0.00    +0.000 NA
ATOM     31  C   UNL     1       5.704   4.859  18.614  0.00  0.00    +0.000 C 
ATOM     32  C   UNL     1       4.893   3.582  18.865  0.00  0.00    +0.000 C 
ATOM     33  C   UNL     1       4.093   3.133  17.623  0.00  0.00    +0.000 C 
ATOM     34  C   UNL     1       5.121   2.984  16.493  0.00  0.00    +0.000 C 
ATOM     35  C   UNL     1       5.916   4.273  16.246  0.00  0.00    +0.000 C 
BRANCH  30  37
ATOM     36  C   UNL     1       6.237   7.277  17.135  0.00  0.00    +0.000 C 
ATOM     37  C   UNL     1       7.212   6.104  17.220  0.00  0.00    +0.000 C 
ENDBRANCH  30  37
ENDBRANCH  29  33
ENDBRANCH   1  29
TORSDOF 9
ENDMDL
MODEL 9
REMARK VINA RESULT:      -7.9      3.619     10.601
REMARK  Name = 
REMARK  10 active torsions:
REMARK  status: ('A' for Active; 'I' for Inactive)
REMARK    1  A    between atoms: C_1  and  C_2
REMARK    2  A    between atoms: C_2  and  N_3
REMARK    3  A    between atoms: C_6  and  C_7
REMARK    4  A    between atoms: C_7  and  C_8
REMARK    5  A    between atoms: C_11  and  N_12
REMARK    6  A    between atoms: C_13  and  C_15
REMARK    7  A    between atoms: C_15  and  O_16
REMARK    8  A    between atoms: O_16  and  C_17
REMARK    9  A    between atoms: C_20  and  C_21
REMARK   10  A    between atoms: C_30  and  C_31
REMARK                            x       y       z     vdW  Elec       q    Type
REMARK                         _______ _______ _______ _____ _____    ______ ____
ROOT
ATOM      1  C   UNL     1       2.532   5.356  18.528  0.00  0.00    +0.000 A 
ATOM      2  C   UNL     1       2.889   6.721  18.493  0.00  0.00    +0.000 A 
ATOM      3  C   UNL     1       2.602   7.592  19.546  0.00  0.00    +0.000 A 
ATOM      4  C   UNL     1       1.932   7.120  20.666  0.00  0.00    +0.000 A 
ATOM      5  C   UNL     1       1.536   5.787  20.719  0.00  0.00    +0.000 A 
ATOM      6  C   UNL     1       1.849   4.877  19.673  0.00  0.00    +0.000 A 
ENDROOT
BRANCH   4   7
ATOM      7  N   UNL     1       1.626   8.007  21.716  0.00  0.00    +0.000 N 
ATOM      8  C   UNL     1       0.323   8.491  21.862  0.00  0.00    +0.000 C 
ATOM      9  O   UNL     1      -0.650   8.071  21.240  0.00  0.00    +0.000 OA
ATOM     10  H   UNL     1       2.337   8.707  21.897  0.00  0.00    +0.000 HD
BRANCH   8  11
ATOM     11  C   UNL     1       0.199   9.607  22.901  0.00  0.00    +0.000 C 
BRANCH  11  12
ATOM     12  O   UNL     1       0.232  10.838  22.188  0.00  0.00    +0.000 OA
BRANCH  12  13
ATOM     13  C   UNL     1      -0.957  11.497  22.060  0.00  0.00    +0.000 A 
ATOM     14  C   UNL     1      -1.288  11.875  20.763  0.00  0.00    +0.000 A 
ATOM     15  C   UNL     1      -2.513  12.493  20.490  0.00  0.00    +0.000 A 
ATOM     16  C   UNL     1      -3.461  12.720  21.503  0.00  0.00    +0.000 A 
ATOM     17  C   UNL     1      -3.100  12.333  22.809  0.00  0.00    +0.000 A 
ATOM     18  C   UNL     1      -1.861  11.735  23.089  0.00  0.00    +0.000 A 
BRANCH  16  19
ATOM     19  C   UNL     1      -4.791  13.299  21.202  0.00  0.00    +0.000 A 
ATOM     20  C   UNL     1      -5.986  12.628  21.509  0.00  0.00    +0.000 A 
ATOM     21  C   UNL     1      -7.225  13.211  21.243  0.00  0.00    +0.000 A 
ATOM     22  C   UNL     1      -7.250  14.471  20.676  0.00  0.00    +0.000 A 
ATOM     23  N   UNL     1      -6.137  15.161  20.354  0.00  0.00    +0.000 NA
ATOM     24  C   UNL     1      -4.949  14.558  20.616  0.00  0.00    +0.000 A 
ENDBRANCH  16  19
ENDBRANCH  12  13
ENDBRANCH  11  12
ENDBRANCH   8  11
ENDBRANCH   4   7
BRANCH   6  25
ATOM     25  C   UNL     1       1.421   3.444  19.921  0.00  0.00    +0.000 C 
ATOM     26  F   UNL     1       0.955   2.763  18.842  0.00  0.00    +0.000 F 
ATOM     27  F   UNL     1       2.446   2.684  20.412  0.00  0.00    +0.000 F 
ATOM     28  F   UNL     1       0.436   3.366  20.860  0.00  0.00    +0.000 F 
ENDBRANCH   6  25
BRANCH   1  29
ATOM     29  C   UNL     1       2.997   4.484  17.364  0.00  0.00    +0.000 C 
BRANCH  29  33
ATOM     30  N   UNL     1       6.658   4.991  17.884  0.00  0.00    +0.000 NA
ATOM     31  C   UNL     1       5.663   4.965  18.974  0.00  0.00    +0.000 C 
ATOM     32  C   UNL     1       4.801   3.697  18.995  0.00  0.00    +0.000 C 
ATOM     33  C   UNL     1       4.102   3.431  17.644  0.00  0.00    +0.000 C 
ATOM     34  C   UNL     1       5.222   3.383  16.595  0.00  0.00    +0.000 C 
ATOM     35  C   UNL     1       6.068   4.663  16.578  0.00  0.00    +0.000 C 
BRANCH  30  37
ATOM     36  C   UNL     1       6.519   7.454  17.246  0.00  0.00    +0.000 C 
ATOM     37  C   UNL     1       7.319   6.316  17.876  0.00  0.00    +0.000 C 
ENDBRANCH  30  37
ENDBRANCH  29  33
ENDBRANCH   1  29
TORSDOF 9
ENDMDL
