MODEL 1
REMARK VINA RESULT:      -7.7      0.000      0.000
REMARK  Name = 
REMARK  7 active torsions:
REMARK  status: ('A' for Active; 'I' for Inactive)
REMARK    1  A    between atoms: C_1  and  C_2
REMARK    2  A    between atoms: C_2  and  O_3
REMARK    3  A    between atoms: O_3  and  C_4
REMARK    4  A    between atoms: C_9  and  N_10
REMARK    5  A    between atoms: N_10  and  C_11
REMARK    6  A    between atoms: C_15  and  C_17
REMARK    7  A    between atoms: C_22  and  C_23
REMARK                            x       y       z     vdW  Elec       q    Type
REMARK                         _______ _______ _______ _____ _____    ______ ____
ROOT
ATOM      1  C   UNL     1       2.767   7.160  18.913  0.00  0.00    +0.000 C 
ATOM      2  C   UNL     1       2.391   8.097  17.766  0.00  0.00    +0.000 C 
ATOM      3  C   UNL     1       1.910   9.355  18.460  0.00  0.00    +0.000 C 
ATOM      4  N   UNL     1       1.283   8.893  19.685  0.00  0.00    +0.000 N 
ATOM      5  C   UNL     1       0.265   9.469  20.448  0.00  0.00    +0.000 C 
ATOM      6  O   UNL     1      -0.222   8.856  21.397  0.00  0.00    +0.000 OA
ATOM      7  C   UNL     1       1.860   7.619  20.084  0.00  0.00    +0.000 C 
ENDROOT
BRANCH   5   8
ATOM      8  C   UNL     1      -0.239  10.853  20.135  0.00  0.00    +0.000 A 
ATOM      9  C   UNL     1       0.163  11.931  20.944  0.00  0.00    +0.000 A 
ATOM     10  C   UNL     1      -0.198  13.245  20.669  0.00  0.00    +0.000 A 
ATOM     11  C   UNL     1      -1.048  13.508  19.610  0.00  0.00    +0.000 A 
ATOM     12  C   UNL     1      -1.549  12.454  18.848  0.00  0.00    +0.000 A 
ATOM     13  C   UNL     1      -1.167  11.121  19.097  0.00  0.00    +0.000 A 
ATOM     14  C   UNL     1      -1.783  10.068  18.214  0.00  0.00    +0.000 C 
ENDBRANCH   5   8
BRANCH   1  15
ATOM     15  N   UNL     1       2.580   5.747  18.583  0.00  0.00    +0.000 NA
ATOM     16  H   UNL     1       1.690   5.421  18.954  0.00  0.00    +0.000 HD
BRANCH  15  22
ATOM     17  C   UNL     1       6.484   4.746  15.716  0.00  0.00    +0.000 C 
ATOM     18  O   UNL     1       7.394   5.562  15.634  0.00  0.00    +0.000 OA
ATOM     19  N   UNL     1       5.463   4.826  16.642  0.00  0.00    +0.000 N 
ATOM     20  C   UNL     1       5.391   6.017  17.479  0.00  0.00    +0.000 C 
ATOM     21  C   UNL     1       5.000   5.636  18.898  0.00  0.00    +0.000 C 
ATOM     22  C   UNL     1       3.683   4.841  18.931  0.00  0.00    +0.000 C 
ATOM     23  C   UNL     1       3.812   3.613  18.016  0.00  0.00    +0.000 C 
ATOM     24  C   UNL     1       4.275   3.975  16.607  0.00  0.00    +0.000 C 
BRANCH  17  25
ATOM     25  O   UNL     1       6.347   3.685  14.878  0.00  0.00    +0.000 OA
BRANCH  25  27
ATOM     26  C   UNL     1       5.198   3.601  12.789  0.00  0.00    +0.000 C 
ATOM     27  C   UNL     1       6.487   3.998  13.487  0.00  0.00    +0.000 C 
ENDBRANCH  25  27
ENDBRANCH  17  25
ENDBRANCH  15  22
ENDBRANCH   1  15
TORSDOF 5
ENDMDL
MODEL 2
REMARK VINA RESULT:      -7.6      1.309      1.584
REMARK  Name = 
REMARK  7 active torsions:
REMARK  status: ('A' for Active; 'I' for Inactive)
REMARK    1  A    between atoms: C_1  and  C_2
REMARK    2  A    between atoms: C_2  and  O_3
REMARK    3  A    between atoms: O_3  and  C_4
REMARK    4  A    between atoms: C_9  and  N_10
REMARK    5  A    between atoms: N_10  and  C_11
REMARK    6  A    between atoms: C_15  and  C_17
REMARK    7  A    between atoms: C_22  and  C_23
REMARK                            x       y       z     vdW  Elec       q    Type
REMARK                         _______ _______ _______ _____ _____    ______ ____
ROOT
ATOM      1  C   UNL     1       2.462   6.585  19.525  0.00  0.00    +0.000 C 
ATOM      2  C   UNL     1       1.905   7.205  20.807  0.00  0.00    +0.000 C 
ATOM      3  C   UNL     1       0.971   8.291  20.316  0.00  0.00    +0.000 C 
ATOM      4  N   UNL     1       1.576   8.782  19.091  0.00  0.00    +0.000 N 
ATOM      5  C   UNL     1       1.488  10.038  18.484  0.00  0.00    +0.000 C 
ATOM      6  O   UNL     1       2.181  10.302  17.503  0.00  0.00    +0.000 OA
ATOM      7  C   UNL     1       2.393   7.740  18.491  0.00  0.00    +0.000 C 
ENDROOT
BRANCH   5   8
ATOM      8  C   UNL     1       0.533  11.078  19.007  0.00  0.00    +0.000 A 
ATOM      9  C   UNL     1       0.983  12.004  19.965  0.00  0.00    +0.000 A 
ATOM     10  C   UNL     1       0.182  13.039  20.435  0.00  0.00    +0.000 A 
ATOM     11  C   UNL     1      -1.132  13.126  20.012  0.00  0.00    +0.000 A 
ATOM     12  C   UNL     1      -1.643  12.166  19.141  0.00  0.00    +0.000 A 
ATOM     13  C   UNL     1      -0.834  11.129  18.634  0.00  0.00    +0.000 A 
ATOM     14  C   UNL     1      -1.501  10.146  17.709  0.00  0.00    +0.000 C 
ENDBRANCH   5   8
BRANCH   1  15
ATOM     15  N   UNL     1       3.818   6.060  19.685  0.00  0.00    +0.000 NA
ATOM     16  H   UNL     1       4.483   6.674  19.220  0.00  0.00    +0.000 HD
BRANCH  15  22
ATOM     17  C   UNL     1       6.504   4.461  15.853  0.00  0.00    +0.000 C 
ATOM     18  O   UNL     1       7.726   4.448  15.939  0.00  0.00    +0.000 OA
ATOM     19  N   UNL     1       5.661   4.680  16.925  0.00  0.00    +0.000 N 
ATOM     20  C   UNL     1       6.261   5.048  18.201  0.00  0.00    +0.000 C 
ATOM     21  C   UNL     1       5.532   4.354  19.340  0.00  0.00    +0.000 C 
ATOM     22  C   UNL     1       4.023   4.652  19.317  0.00  0.00    +0.000 C 
ATOM     23  C   UNL     1       3.454   4.264  17.943  0.00  0.00    +0.000 C 
ATOM     24  C   UNL     1       4.223   4.899  16.786  0.00  0.00    +0.000 C 
BRANCH  17  25
ATOM     25  O   UNL     1       5.831   4.301  14.683  0.00  0.00    +0.000 OA
BRANCH  25  27
ATOM     26  C   UNL     1       5.726   3.489  12.442  0.00  0.00    +0.000 C 
ATOM     27  C   UNL     1       6.647   3.918  13.570  0.00  0.00    +0.000 C 
ENDBRANCH  25  27
ENDBRANCH  17  25
ENDBRANCH  15  22
ENDBRANCH   1  15
TORSDOF 5
ENDMDL
MODEL 3
REMARK VINA RESULT:      -7.4      1.539      1.905
REMARK  Name = 
REMARK  7 active torsions:
REMARK  status: ('A' for Active; 'I' for Inactive)
REMARK    1  A    between atoms: C_1  and  C_2
REMARK    2  A    between atoms: C_2  and  O_3
REMARK    3  A    between atoms: O_3  and  C_4
REMARK    4  A    between atoms: C_9  and  N_10
REMARK    5  A    between atoms: N_10  and  C_11
REMARK    6  A    between atoms: C_15  and  C_17
REMARK    7  A    between atoms: C_22  and  C_23
REMARK                            x       y       z     vdW  Elec       q    Type
REMARK                         _______ _______ _______ _____ _____    ______ ____
ROOT
ATOM      1  C   UNL     1       1.931   6.948  19.862  0.00  0.00    +0.000 C 
ATOM      2  C   UNL     1       1.608   7.760  21.117  0.00  0.00    +0.000 C 
ATOM      3  C   UNL     1       0.862   8.968  20.592  0.00  0.00    +0.000 C 
ATOM      4  N   UNL     1       1.447   9.238  19.291  0.00  0.00    +0.000 N 
ATOM      5  C   UNL     1       1.550  10.437  18.581  0.00  0.00    +0.000 C 
ATOM      6  O   UNL     1       2.199  10.485  17.537  0.00  0.00    +0.000 OA
ATOM      7  C   UNL     1       1.999   8.013  18.736  0.00  0.00    +0.000 C 
ENDROOT
BRANCH   5   8
ATOM      8  C   UNL     1       0.857  11.680  19.070  0.00  0.00    +0.000 A 
ATOM      9  C   UNL     1       1.571  12.601  19.859  0.00  0.00    +0.000 A 
ATOM     10  C   UNL     1       1.021  13.806  20.280  0.00  0.00    +0.000 A 
ATOM     11  C   UNL     1      -0.301  14.088  19.987  0.00  0.00    +0.000 A 
ATOM     12  C   UNL     1      -1.070  13.154  19.295  0.00  0.00    +0.000 A 
ATOM     13  C   UNL     1      -0.517  11.941  18.836  0.00  0.00    +0.000 A 
ATOM     14  C   UNL     1      -1.449  11.008  18.110  0.00  0.00    +0.000 C 
ENDBRANCH   5   8
BRANCH   1  15
ATOM     15  N   UNL     1       3.171   6.180  19.980  0.00  0.00    +0.000 NA
ATOM     16  H   UNL     1       3.971   6.797  19.858  0.00  0.00    +0.000 HD
BRANCH  15  22
ATOM     17  C   UNL     1       6.832   5.207  16.800  0.00  0.00    +0.000 C 
ATOM     18  O   UNL     1       7.909   4.810  17.228  0.00  0.00    +0.000 OA
ATOM     19  N   UNL     1       5.689   5.301  17.570  0.00  0.00    +0.000 N 
ATOM     20  C   UNL     1       5.803   5.040  18.999  0.00  0.00    +0.000 C 
ATOM     21  C   UNL     1       4.595   4.258  19.486  0.00  0.00    +0.000 C 
ATOM     22  C   UNL     1       3.277   4.975  19.146  0.00  0.00    +0.000 C 
ATOM     23  C   UNL     1       3.224   5.241  17.633  0.00  0.00    +0.000 C 
ATOM     24  C   UNL     1       4.467   5.964  17.118  0.00  0.00    +0.000 C 
BRANCH  17  25
ATOM     25  O   UNL     1       6.642   5.642  15.527  0.00  0.00    +0.000 OA
BRANCH  25  27
ATOM     26  C   UNL     1       5.916   3.919  14.044  0.00  0.00    +0.000 C 
ATOM     27  C   UNL     1       7.104   4.742  14.512  0.00  0.00    +0.000 C 
ENDBRANCH  25  27
ENDBRANCH  17  25
ENDBRANCH  15  22
ENDBRANCH   1  15
TORSDOF 5
ENDMDL
MODEL 4
REMARK VINA RESULT:      -7.2      0.652      1.456
REMARK  Name = 
REMARK  7 active torsions:
REMARK  status: ('A' for Active; 'I' for Inactive)
REMARK    1  A    between atoms: C_1  and  C_2
REMARK    2  A    between atoms: C_2  and  O_3
REMARK    3  A    between atoms: O_3  and  C_4
REMARK    4  A    between atoms: C_9  and  N_10
REMARK    5  A    between atoms: N_10  and  C_11
REMARK    6  A    between atoms: C_15  and  C_17
REMARK    7  A    between atoms: C_22  and  C_23
REMARK                            x       y       z     vdW  Elec       q    Type
REMARK                         _______ _______ _______ _____ _____    ______ ____
ROOT
ATOM      1  C   UNL     1       2.898   6.789  19.005  0.00  0.00    +0.000 C 
ATOM      2  C   UNL     1       2.513   7.477  17.695  0.00  0.00    +0.000 C 
ATOM      3  C   UNL     1       2.057   8.856  18.123  0.00  0.00    +0.000 C 
ATOM      4  N   UNL     1       1.445   8.663  19.425  0.00  0.00    +0.000 N 
ATOM      5  C   UNL     1       0.444   9.397  20.068  0.00  0.00    +0.000 C 
ATOM      6  O   UNL     1      -0.034   8.997  21.128  0.00  0.00    +0.000 OA
ATOM      7  C   UNL     1       2.014   7.490  20.069  0.00  0.00    +0.000 C 
ENDROOT
BRANCH   5   8
ATOM      8  C   UNL     1      -0.050  10.694  19.484  0.00  0.00    +0.000 A 
ATOM      9  C   UNL     1      -1.071  10.667  18.518  0.00  0.00    +0.000 A 
ATOM     10  C   UNL     1      -1.631  11.827  17.993  0.00  0.00    +0.000 A 
ATOM     11  C   UNL     1      -1.122  13.057  18.368  0.00  0.00    +0.000 A 
ATOM     12  C   UNL     1      -0.042  13.119  19.247  0.00  0.00    +0.000 A 
ATOM     13  C   UNL     1       0.516  11.952  19.809  0.00  0.00    +0.000 A 
ATOM     14  C   UNL     1       1.686  12.145  20.736  0.00  0.00    +0.000 C 
ENDBRANCH   5   8
BRANCH   1  15
ATOM     15  N   UNL     1       2.691   5.341  18.973  0.00  0.00    +0.000 NA
ATOM     16  H   UNL     1       1.916   5.090  19.583  0.00  0.00    +0.000 HD
BRANCH  15  22
ATOM     17  C   UNL     1       6.524   4.817  15.891  0.00  0.00    +0.000 C 
ATOM     18  O   UNL     1       7.365   5.705  15.822  0.00  0.00    +0.000 OA
ATOM     19  N   UNL     1       5.543   4.763  16.861  0.00  0.00    +0.000 N 
ATOM     20  C   UNL     1       5.421   5.893  17.773  0.00  0.00    +0.000 C 
ATOM     21  C   UNL     1       5.125   5.401  19.180  0.00  0.00    +0.000 C 
ATOM     22  C   UNL     1       3.874   4.505  19.219  0.00  0.00    +0.000 C 
ATOM     23  C   UNL     1       4.053   3.346  18.225  0.00  0.00    +0.000 C 
ATOM     24  C   UNL     1       4.422   3.826  16.823  0.00  0.00    +0.000 C 
BRANCH  17  25
ATOM     25  O   UNL     1       6.429   3.800  14.995  0.00  0.00    +0.000 OA
BRANCH  25  27
ATOM     26  C   UNL     1       5.635   3.477  12.769  0.00  0.00    +0.000 C 
ATOM     27  C   UNL     1       6.668   4.176  13.634  0.00  0.00    +0.000 C 
ENDBRANCH  25  27
ENDBRANCH  17  25
ENDBRANCH  15  22
ENDBRANCH   1  15
TORSDOF 5
ENDMDL
MODEL 5
REMARK VINA RESULT:      -7.2      1.661      2.411
REMARK  Name = 
REMARK  7 active torsions:
REMARK  status: ('A' for Active; 'I' for Inactive)
REMARK    1  A    between atoms: C_1  and  C_2
REMARK    2  A    between atoms: C_2  and  O_3
REMARK    3  A    between atoms: O_3  and  C_4
REMARK    4  A    between atoms: C_9  and  N_10
REMARK    5  A    between atoms: N_10  and  C_11
REMARK    6  A    between atoms: C_15  and  C_17
REMARK    7  A    between atoms: C_22  and  C_23
REMARK                            x       y       z     vdW  Elec       q    Type
REMARK                         _______ _______ _______ _____ _____    ______ ____
ROOT
ATOM      1  C   UNL     1       3.498   6.201  18.731  0.00  0.00    +0.000 C 
ATOM      2  C   UNL     1       2.539   6.328  19.915  0.00  0.00    +0.000 C 
ATOM      3  C   UNL     1       1.423   7.209  19.393  0.00  0.00    +0.000 C 
ATOM      4  N   UNL     1       2.066   8.119  18.462  0.00  0.00    +0.000 N 
ATOM      5  C   UNL     1       1.705   9.411  18.072  0.00  0.00    +0.000 C 
ATOM      6  O   UNL     1       2.455  10.075  17.358  0.00  0.00    +0.000 OA
ATOM      7  C   UNL     1       3.268   7.505  17.923  0.00  0.00    +0.000 C 
ENDROOT
BRANCH   5   8
ATOM      8  C   UNL     1       0.390  10.004  18.503  0.00  0.00    +0.000 A 
ATOM      9  C   UNL     1      -0.710   9.944  17.629  0.00  0.00    +0.000 A 
ATOM     10  C   UNL     1      -1.974  10.399  17.989  0.00  0.00    +0.000 A 
ATOM     11  C   UNL     1      -2.152  11.006  19.219  0.00  0.00    +0.000 A 
ATOM     12  C   UNL     1      -1.062  11.175  20.070  0.00  0.00    +0.000 A 
ATOM     13  C   UNL     1       0.218  10.692  19.730  0.00  0.00    +0.000 A 
ATOM     14  C   UNL     1       1.319  10.943  20.726  0.00  0.00    +0.000 C 
ENDBRANCH   5   8
BRANCH   1  15
ATOM     15  N   UNL     1       4.893   6.035  19.140  0.00  0.00    +0.000 NA
ATOM     16  H   UNL     1       5.443   6.828  18.816  0.00  0.00    +0.000 HD
BRANCH  15  22
ATOM     17  C   UNL     1       6.609   4.780  14.674  0.00  0.00    +0.000 C 
ATOM     18  O   UNL     1       7.685   5.228  14.296  0.00  0.00    +0.000 OA
ATOM     19  N   UNL     1       6.144   4.890  15.970  0.00  0.00    +0.000 N 
ATOM     20  C   UNL     1       6.915   5.699  16.906  0.00  0.00    +0.000 C 
ATOM     21  C   UNL     1       6.945   5.033  18.272  0.00  0.00    +0.000 C 
ATOM     22  C   UNL     1       5.527   4.754  18.800  0.00  0.00    +0.000 C 
ATOM     23  C   UNL     1       4.759   3.918  17.764  0.00  0.00    +0.000 C 
ATOM     24  C   UNL     1       4.783   4.541  16.370  0.00  0.00    +0.000 C 
BRANCH  17  25
ATOM     25  O   UNL     1       5.724   4.156  13.854  0.00  0.00    +0.000 OA
BRANCH  25  27
ATOM     26  C   UNL     1       5.168   3.083  11.796  0.00  0.00    +0.000 C 
ATOM     27  C   UNL     1       6.301   3.589  12.671  0.00  0.00    +0.000 C 
ENDBRANCH  25  27
ENDBRANCH  17  25
ENDBRANCH  15  22
ENDBRANCH   1  15
TORSDOF 5
ENDMDL
MODEL 6
REMARK VINA RESULT:      -7.0      0.724      1.375
REMARK  Name = 
REMARK  7 active torsions:
REMARK  status: ('A' for Active; 'I' for Inactive)
REMARK    1  A    between atoms: C_1  and  C_2
REMARK    2  A    between atoms: C_2  and  O_3
REMARK    3  A    between atoms: O_3  and  C_4
REMARK    4  A    between atoms: C_9  and  N_10
REMARK    5  A    between atoms: N_10  and  C_11
REMARK    6  A    between atoms: C_15  and  C_17
REMARK    7  A    between atoms: C_22  and  C_23
REMARK                            x       y       z     vdW  Elec       q    Type
REMARK                         _______ _______ _______ _____ _____    ______ ____
ROOT
ATOM      1  C   UNL     1       2.721   6.891  19.217  0.00  0.00    +0.000 C 
ATOM      2  C   UNL     1       2.376   7.862  18.087  0.00  0.00    +0.000 C 
ATOM      3  C   UNL     1       1.814   9.074  18.801  0.00  0.00    +0.000 C 
ATOM      4  N   UNL     1       1.137   8.542  19.970  0.00  0.00    +0.000 N 
ATOM      5  C   UNL     1       0.059   9.054  20.697  0.00  0.00    +0.000 C 
ATOM      6  O   UNL     1      -0.457   8.386  21.592  0.00  0.00    +0.000 OA
ATOM      7  C   UNL     1       1.735   7.273  20.352  0.00  0.00    +0.000 C 
ENDROOT
BRANCH   5   8
ATOM      8  C   UNL     1      -0.475  10.432  20.410  0.00  0.00    +0.000 A 
ATOM      9  C   UNL     1      -0.532  10.883  19.079  0.00  0.00    +0.000 A 
ATOM     10  C   UNL     1      -1.084  12.110  18.731  0.00  0.00    +0.000 A 
ATOM     11  C   UNL     1      -1.526  12.963  19.727  0.00  0.00    +0.000 A 
ATOM     12  C   UNL     1      -1.391  12.593  21.064  0.00  0.00    +0.000 A 
ATOM     13  C   UNL     1      -0.860  11.339  21.429  0.00  0.00    +0.000 A 
ATOM     14  C   UNL     1      -0.755  11.056  22.904  0.00  0.00    +0.000 C 
ENDBRANCH   5   8
BRANCH   1  15
ATOM     15  N   UNL     1       2.602   5.487  18.821  0.00  0.00    +0.000 NA
ATOM     16  H   UNL     1       1.738   5.097  19.194  0.00  0.00    +0.000 HD
BRANCH  15  22
ATOM     17  C   UNL     1       6.538   4.918  15.882  0.00  0.00    +0.000 C 
ATOM     18  O   UNL     1       7.398   5.790  15.854  0.00  0.00    +0.000 OA
ATOM     19  N   UNL     1       5.520   4.874  16.814  0.00  0.00    +0.000 N 
ATOM     20  C   UNL     1       5.385   5.998  17.732  0.00  0.00    +0.000 C 
ATOM     21  C   UNL     1       5.026   5.499  19.122  0.00  0.00    +0.000 C 
ATOM     22  C   UNL     1       3.758   4.627  19.104  0.00  0.00    +0.000 C 
ATOM     23  C   UNL     1       3.953   3.474  18.107  0.00  0.00    +0.000 C 
ATOM     24  C   UNL     1       4.384   3.959  16.724  0.00  0.00    +0.000 C 
BRANCH  17  25
ATOM     25  O   UNL     1       6.458   3.910  14.974  0.00  0.00    +0.000 OA
BRANCH  25  27
ATOM     26  C   UNL     1       5.870   3.480  12.702  0.00  0.00    +0.000 C 
ATOM     27  C   UNL     1       6.759   4.294  13.627  0.00  0.00    +0.000 C 
ENDBRANCH  25  27
ENDBRANCH  17  25
ENDBRANCH  15  22
ENDBRANCH   1  15
TORSDOF 5
ENDMDL
MODEL 7
REMARK VINA RESULT:      -7.0      1.381      2.075
REMARK  Name = 
REMARK  7 active torsions:
REMARK  status: ('A' for Active; 'I' for Inactive)
REMARK    1  A    between atoms: C_1  and  C_2
REMARK    2  A    between atoms: C_2  and  O_3
REMARK    3  A    between atoms: O_3  and  C_4
REMARK    4  A    between atoms: C_9  and  N_10
REMARK    5  A    between atoms: N_10  and  C_11
REMARK    6  A    between atoms: C_15  and  C_17
REMARK    7  A    between atoms: C_22  and  C_23
REMARK                            x       y       z     vdW  Elec       q    Type
REMARK                         _______ _______ _______ _____ _____    ______ ____
ROOT
ATOM      1  C   UNL     1       2.364   6.805  19.576  0.00  0.00    +0.000 C 
ATOM      2  C   UNL     1       1.766   7.422  20.840  0.00  0.00    +0.000 C 
ATOM      3  C   UNL     1       0.815   8.479  20.320  0.00  0.00    +0.000 C 
ATOM      4  N   UNL     1       1.431   8.975  19.103  0.00  0.00    +0.000 N 
ATOM      5  C   UNL     1       1.324  10.222  18.482  0.00  0.00    +0.000 C 
ATOM      6  O   UNL     1       2.030  10.495  17.512  0.00  0.00    +0.000 OA
ATOM      7  C   UNL     1       2.287   7.948  18.530  0.00  0.00    +0.000 C 
ENDROOT
BRANCH   5   8
ATOM      8  C   UNL     1       0.333  11.242  18.976  0.00  0.00    +0.000 A 
ATOM      9  C   UNL     1      -1.023  11.106  18.629  0.00  0.00    +0.000 A 
ATOM     10  C   UNL     1      -2.006  11.963  19.112  0.00  0.00    +0.000 A 
ATOM     11  C   UNL     1      -1.640  13.040  19.900  0.00  0.00    +0.000 A 
ATOM     12  C   UNL     1      -0.293  13.265  20.181  0.00  0.00    +0.000 A 
ATOM     13  C   UNL     1       0.710  12.387  19.722  0.00  0.00    +0.000 A 
ATOM     14  C   UNL     1       2.129  12.740  20.080  0.00  0.00    +0.000 C 
ENDBRANCH   5   8
BRANCH   1  15
ATOM     15  N   UNL     1       3.729   6.315  19.768  0.00  0.00    +0.000 NA
ATOM     16  H   UNL     1       4.390   6.958  19.336  0.00  0.00    +0.000 HD
BRANCH  15  22
ATOM     17  C   UNL     1       6.411   4.879  15.868  0.00  0.00    +0.000 C 
ATOM     18  O   UNL     1       7.633   4.917  15.933  0.00  0.00    +0.000 OA
ATOM     19  N   UNL     1       5.579   5.049  16.958  0.00  0.00    +0.000 N 
ATOM     20  C   UNL     1       6.185   5.427  18.228  0.00  0.00    +0.000 C 
ATOM     21  C   UNL     1       5.508   4.689  19.371  0.00  0.00    +0.000 C 
ATOM     22  C   UNL     1       3.987   4.923  19.378  0.00  0.00    +0.000 C 
ATOM     23  C   UNL     1       3.410   4.527  18.010  0.00  0.00    +0.000 C 
ATOM     24  C   UNL     1       4.130   5.208  16.848  0.00  0.00    +0.000 C 
BRANCH  17  25
ATOM     25  O   UNL     1       5.724   4.705  14.709  0.00  0.00    +0.000 OA
BRANCH  25  27
ATOM     26  C   UNL     1       5.376   3.598  12.624  0.00  0.00    +0.000 C 
ATOM     27  C   UNL     1       6.344   3.815  13.773  0.00  0.00    +0.000 C 
ENDBRANCH  25  27
ENDBRANCH  17  25
ENDBRANCH  15  22
ENDBRANCH   1  15
TORSDOF 5
ENDMDL
MODEL 8
REMARK VINA RESULT:      -6.9      1.420      1.771
REMARK  Name = 
REMARK  7 active torsions:
REMARK  status: ('A' for Active; 'I' for Inactive)
REMARK    1  A    between atoms: C_1  and  C_2
REMARK    2  A    between atoms: C_2  and  O_3
REMARK    3  A    between atoms: O_3  and  C_4
REMARK    4  A    between atoms: C_9  and  N_10
REMARK    5  A    between atoms: N_10  and  C_11
REMARK    6  A    between atoms: C_15  and  C_17
REMARK    7  A    between atoms: C_22  and  C_23
REMARK                            x       y       z     vdW  Elec       q    Type
REMARK                         _______ _______ _______ _____ _____    ______ ____
ROOT
ATOM      1  C   UNL     1       2.240   7.178  19.223  0.00  0.00    +0.000 C 
ATOM      2  C   UNL     1       1.718   7.135  20.660  0.00  0.00    +0.000 C 
ATOM      3  C   UNL     1       0.610   8.167  20.681  0.00  0.00    +0.000 C 
ATOM      4  N   UNL     1       1.036   9.197  19.751  0.00  0.00    +0.000 N 
ATOM      5  C   UNL     1       0.731  10.560  19.715  0.00  0.00    +0.000 C 
ATOM      6  O   UNL     1       1.296  11.301  18.913  0.00  0.00    +0.000 OA
ATOM      7  C   UNL     1       1.930   8.625  18.757  0.00  0.00    +0.000 C 
ENDROOT
BRANCH   5   8
ATOM      8  C   UNL     1      -0.304  11.138  20.642  0.00  0.00    +0.000 A 
ATOM      9  C   UNL     1      -0.164  10.955  22.030  0.00  0.00    +0.000 A 
ATOM     10  C   UNL     1      -1.037  11.526  22.949  0.00  0.00    +0.000 A 
ATOM     11  C   UNL     1      -2.132  12.238  22.495  0.00  0.00    +0.000 A 
ATOM     12  C   UNL     1      -2.360  12.354  21.125  0.00  0.00    +0.000 A 
ATOM     13  C   UNL     1      -1.468  11.805  20.182  0.00  0.00    +0.000 A 
ATOM     14  C   UNL     1      -1.826  11.987  18.731  0.00  0.00    +0.000 C 
ENDBRANCH   5   8
BRANCH   1  15
ATOM     15  N   UNL     1       3.662   6.851  19.121  0.00  0.00    +0.000 NA
ATOM     16  H   UNL     1       4.046   7.248  18.265  0.00  0.00    +0.000 HD
BRANCH  15  22
ATOM     17  C   UNL     1       6.705   4.322  16.153  0.00  0.00    +0.000 C 
ATOM     18  O   UNL     1       7.916   4.474  16.263  0.00  0.00    +0.000 OA
ATOM     19  N   UNL     1       5.785   4.807  17.062  0.00  0.00    +0.000 N 
ATOM     20  C   UNL     1       6.272   5.660  18.138  0.00  0.00    +0.000 C 
ATOM     21  C   UNL     1       5.548   5.331  19.434  0.00  0.00    +0.000 C 
ATOM     22  C   UNL     1       4.022   5.435  19.276  0.00  0.00    +0.000 C 
ATOM     23  C   UNL     1       3.572   4.533  18.116  0.00  0.00    +0.000 C 
ATOM     24  C   UNL     1       4.343   4.805  16.826  0.00  0.00    +0.000 C 
BRANCH  17  25
ATOM     25  O   UNL     1       6.119   3.692  15.102  0.00  0.00    +0.000 OA
BRANCH  25  27
ATOM     26  C   UNL     1       5.647   3.524  12.769  0.00  0.00    +0.000 C 
ATOM     27  C   UNL     1       6.563   4.136  13.814  0.00  0.00    +0.000 C 
ENDBRANCH  25  27
ENDBRANCH  17  25
ENDBRANCH  15  22
ENDBRANCH   1  15
TORSDOF 5
ENDMDL
MODEL 9
REMARK VINA RESULT:      -6.9      1.634      2.464
REMARK  Name = 
REMARK  7 active torsions:
REMARK  status: ('A' for Active; 'I' for Inactive)
REMARK    1  A    between atoms: C_1  and  C_2
REMARK    2  A    between atoms: C_2  and  O_3
REMARK    3  A    between atoms: O_3  and  C_4
REMARK    4  A    between atoms: C_9  and  N_10
REMARK    5  A    between atoms: N_10  and  C_11
REMARK    6  A    between atoms: C_15  and  C_17
REMARK    7  A    between atoms: C_22  and  C_23
REMARK                            x       y       z     vdW  Elec       q    Type
REMARK                         _______ _______ _______ _____ _____    ______ ____
ROOT
ATOM      1  C   UNL     1       1.731   7.397  19.834  0.00  0.00    +0.000 C 
ATOM      2  C   UNL     1       1.281   7.984  21.173  0.00  0.00    +0.000 C 
ATOM      3  C   UNL     1       0.504   9.225  20.788  0.00  0.00    +0.000 C 
ATOM      4  N   UNL     1       1.157   9.723  19.591  0.00  0.00    +0.000 N 
ATOM      5  C   UNL     1       1.239  11.023  19.084  0.00  0.00    +0.000 C 
ATOM      6  O   UNL     1       1.951  11.265  18.111  0.00  0.00    +0.000 OA
ATOM      7  C   UNL     1       1.813   8.628  18.895  0.00  0.00    +0.000 C 
ENDROOT
BRANCH   5   8
ATOM      8  C   UNL     1       0.445  12.140  19.707  0.00  0.00    +0.000 A 
ATOM      9  C   UNL     1      -0.943  12.202  19.489  0.00  0.00    +0.000 A 
ATOM     10  C   UNL     1      -1.751  13.158  20.095  0.00  0.00    +0.000 A 
ATOM     11  C   UNL     1      -1.171  14.138  20.881  0.00  0.00    +0.000 A 
ATOM     12  C   UNL     1       0.214  14.169  21.037  0.00  0.00    +0.000 A 
ATOM     13  C   UNL     1       1.041  13.188  20.453  0.00  0.00    +0.000 A 
ATOM     14  C   UNL     1       2.522  13.333  20.684  0.00  0.00    +0.000 C 
ENDBRANCH   5   8
BRANCH   1  15
ATOM     15  N   UNL     1       3.002   6.677  19.923  0.00  0.00    +0.000 NA
ATOM     16  H   UNL     1       3.773   7.313  19.730  0.00  0.00    +0.000 HD
BRANCH  15  22
ATOM     17  C   UNL     1       6.811   5.428  17.026  0.00  0.00    +0.000 C 
ATOM     18  O   UNL     1       7.841   5.004  17.537  0.00  0.00    +0.000 OA
ATOM     19  N   UNL     1       5.627   5.599  17.716  0.00  0.00    +0.000 N 
ATOM     20  C   UNL     1       5.639   5.391  19.158  0.00  0.00    +0.000 C 
ATOM     21  C   UNL     1       4.369   4.679  19.595  0.00  0.00    +0.000 C 
ATOM     22  C   UNL     1       3.108   5.436  19.143  0.00  0.00    +0.000 C 
ATOM     23  C   UNL     1       3.163   5.643  17.622  0.00  0.00    +0.000 C 
ATOM     24  C   UNL     1       4.466   6.293  17.162  0.00  0.00    +0.000 C 
BRANCH  17  25
ATOM     25  O   UNL     1       6.721   5.819  15.728  0.00  0.00    +0.000 OA
BRANCH  25  27
ATOM     26  C   UNL     1       5.741   4.141  14.344  0.00  0.00    +0.000 C 
ATOM     27  C   UNL     1       7.040   4.800  14.773  0.00  0.00    +0.000 C 
ENDBRANCH  25  27
ENDBRANCH  17  25
ENDBRANCH  15  22
ENDBRANCH   1  15
TORSDOF 5
ENDMDL
