MODEL 1
REMARK VINA RESULT:      -8.4      0.000      0.000
REMARK  Name = 
REMARK  7 active torsions:
REMARK  status: ('A' for Active; 'I' for Inactive)
REMARK    1  A    between atoms: N_1  and  N_2
REMARK    2  A    between atoms: N_11  and  C_12
REMARK    3  A    between atoms: C_14  and  C_15
REMARK    4  A    between atoms: C_15  and  O_16
REMARK    5  A    between atoms: C_15  and  C_17
REMARK    6  A    between atoms: C_24  and  O_25
REMARK    7  A    between atoms: C_26  and  O_27
REMARK                            x       y       z     vdW  Elec       q    Type
REMARK                         _______ _______ _______ _____ _____    ______ ____
ROOT
ATOM      1  C   UNL     1       3.091   6.250  19.250  0.00  0.00    +0.000 C 
ATOM      2  O   UNL     1       3.568   5.781  17.974  0.00  0.00    +0.000 OA
ATOM      3  C   UNL     1       3.520   4.343  17.972  0.00  0.00    +0.000 C 
ATOM      4  C   UNL     1       2.746   3.867  19.207  0.00  0.00    +0.000 C 
ATOM      5  C   UNL     1       2.226   5.141  19.856  0.00  0.00    +0.000 C 
ENDROOT
BRANCH   1  15
ATOM      6  N   UNL     1      -0.014  11.414  19.737  0.00  0.00    +0.000 NA
ATOM      7  C   UNL     1       0.499  10.352  20.286  0.00  0.00    +0.000 A 
ATOM      8  N   UNL     1       0.386  10.073  21.651  0.00  0.00    +0.000 NA
ATOM      9  C   UNL     1       0.962   8.995  22.094  0.00  0.00    +0.000 A 
ATOM     10  N   UNL     1       1.672   8.070  21.361  0.00  0.00    +0.000 N 
ATOM     11  C   UNL     1       1.765   8.286  20.038  0.00  0.00    +0.000 A 
ATOM     12  C   UNL     1       1.197   9.391  19.454  0.00  0.00    +0.000 A 
ATOM     13  C   UNL     1       1.451   9.296  18.070  0.00  0.00    +0.000 A 
ATOM     14  C   UNL     1       2.171   8.132  17.867  0.00  0.00    +0.000 A 
ATOM     15  N   UNL     1       2.380   7.518  19.092  0.00  0.00    +0.000 N 
ATOM     16  H   UNL     1       2.056   7.237  21.805  0.00  0.00    +0.000 HD
BRANCH   6  17
ATOM     17  N   UNL     1      -0.622  12.296  20.578  0.00  0.00    +0.000 N 
ATOM     18  H   UNL     1      -0.078  12.420  21.429  0.00  0.00    +0.000 HD
ATOM     19  H   UNL     1      -0.755  13.208  20.130  0.00  0.00    +0.000 HD
ENDBRANCH   6  17
ENDBRANCH   1  15
BRANCH   4  20
ATOM     20  O   UNL     1       3.549   3.108  20.111  0.00  0.00    +0.000 OA
ATOM     21  H   UNL     1       4.180   2.606  19.555  0.00  0.00    +0.000 HD
ENDBRANCH   4  20
BRANCH   5  22
ATOM     22  O   UNL     1       2.302   5.030  21.284  0.00  0.00    +0.000 OA
ATOM     23  H   UNL     1       3.222   5.191  21.567  0.00  0.00    +0.000 HD
ENDBRANCH   5  22
BRANCH   3  24
ATOM     24  C   UNL     1       4.919   3.693  17.756  0.00  0.00    +0.000 C 
BRANCH  24  25
ATOM     25  C   UNL     1       5.688   4.034  16.477  0.00  0.00    +0.000 A 
ATOM     26  C   UNL     1       5.147   3.777  15.202  0.00  0.00    +0.000 A 
ATOM     27  C   UNL     1       5.818   4.158  14.034  0.00  0.00    +0.000 A 
ATOM     28  C   UNL     1       7.041   4.811  14.120  0.00  0.00    +0.000 A 
ATOM     29 CL   UNL     1       7.850   5.311  12.688  0.00  0.00    +0.000 Cl
ATOM     30  C   UNL     1       7.598   5.083  15.366  0.00  0.00    +0.000 A 
ATOM     31  C   UNL     1       6.920   4.710  16.533  0.00  0.00    +0.000 A 
ENDBRANCH  24  25
BRANCH  24  32
ATOM     32  O   UNL     1       5.710   3.977  18.918  0.00  0.00    +0.000 OA
ATOM     33  H   UNL     1       5.831   3.112  19.366  0.00  0.00    +0.000 HD
ENDBRANCH  24  32
ENDBRANCH   3  24
TORSDOF 7
ENDMDL
MODEL 2
REMARK VINA RESULT:      -7.7      0.975      2.013
REMARK  Name = 
REMARK  7 active torsions:
REMARK  status: ('A' for Active; 'I' for Inactive)
REMARK    1  A    between atoms: N_1  and  N_2
REMARK    2  A    between atoms: N_11  and  C_12
REMARK    3  A    between atoms: C_14  and  C_15
REMARK    4  A    between atoms: C_15  and  O_16
REMARK    5  A    between atoms: C_15  and  C_17
REMARK    6  A    between atoms: C_24  and  O_25
REMARK    7  A    between atoms: C_26  and  O_27
REMARK                            x       y       z     vdW  Elec       q    Type
REMARK                         _______ _______ _______ _____ _____    ______ ____
ROOT
ATOM      1  C   UNL     1       2.500   5.598  20.013  0.00  0.00    +0.000 C 
ATOM      2  O   UNL     1       3.211   5.639  18.760  0.00  0.00    +0.000 OA
ATOM      3  C   UNL     1       3.158   4.331  18.164  0.00  0.00    +0.000 C 
ATOM      4  C   UNL     1       2.158   3.468  18.943  0.00  0.00    +0.000 C 
ATOM      5  C   UNL     1       1.529   4.415  19.953  0.00  0.00    +0.000 C 
ENDROOT
BRANCH   1  15
ATOM      6  N   UNL     1       0.210  11.193  20.032  0.00  0.00    +0.000 NA
ATOM      7  C   UNL     1       0.916  10.266  19.452  0.00  0.00    +0.000 A 
ATOM      8  N   UNL     1       1.550  10.453  18.220  0.00  0.00    +0.000 NA
ATOM      9  C   UNL     1       2.206   9.448  17.723  0.00  0.00    +0.000 A 
ATOM     10  N   UNL     1       2.367   8.200  18.283  0.00  0.00    +0.000 N 
ATOM     11  C   UNL     1       1.806   7.999  19.487  0.00  0.00    +0.000 A 
ATOM     12  C   UNL     1       1.087   8.987  20.113  0.00  0.00    +0.000 A 
ATOM     13  C   UNL     1       0.669   8.462  21.354  0.00  0.00    +0.000 A 
ATOM     14  C   UNL     1       1.150   7.168  21.432  0.00  0.00    +0.000 A 
ATOM     15  N   UNL     1       1.839   6.878  20.264  0.00  0.00    +0.000 N 
ATOM     16  H   UNL     1       2.934   7.491  17.822  0.00  0.00    +0.000 HD
BRANCH   6  17
ATOM     17  N   UNL     1       0.056  12.356  19.342  0.00  0.00    +0.000 N 
ATOM     18  H   UNL     1       0.576  13.112  19.782  0.00  0.00    +0.000 HD
ATOM     19  H   UNL     1       0.367  12.258  18.370  0.00  0.00    +0.000 HD
ENDBRANCH   6  17
ENDBRANCH   1  15
BRANCH   4  20
ATOM     20  O   UNL     1       2.768   2.347  19.584  0.00  0.00    +0.000 OA
ATOM     21  H   UNL     1       3.000   1.720  18.868  0.00  0.00    +0.000 HD
ENDBRANCH   4  20
BRANCH   5  22
ATOM     22  O   UNL     1       1.328   3.738  21.202  0.00  0.00    +0.000 OA
ATOM     23  H   UNL     1       0.829   2.915  21.041  0.00  0.00    +0.000 HD
ENDBRANCH   5  22
BRANCH   3  24
ATOM     24  C   UNL     1       4.569   3.708  17.949  0.00  0.00    +0.000 C 
BRANCH  24  25
ATOM     25  C   UNL     1       5.385   4.159  16.734  0.00  0.00    +0.000 A 
ATOM     26  C   UNL     1       6.719   4.592  16.863  0.00  0.00    +0.000 A 
ATOM     27  C   UNL     1       7.487   4.930  15.743  0.00  0.00    +0.000 A 
ATOM     28  C   UNL     1       6.936   4.836  14.472  0.00  0.00    +0.000 A 
ATOM     29 CL   UNL     1       7.889   5.219  13.092  0.00  0.00    +0.000 Cl
ATOM     30  C   UNL     1       5.622   4.407  14.312  0.00  0.00    +0.000 A 
ATOM     31  C   UNL     1       4.859   4.058  15.434  0.00  0.00    +0.000 A 
ENDBRANCH  24  25
BRANCH  24  32
ATOM     32  O   UNL     1       5.312   3.894  19.161  0.00  0.00    +0.000 OA
ATOM     33  H   UNL     1       6.251   3.752  18.914  0.00  0.00    +0.000 HD
ENDBRANCH  24  32
ENDBRANCH   3  24
TORSDOF 7
ENDMDL
MODEL 3
REMARK VINA RESULT:      -7.6      1.104      1.881
REMARK  Name = 
REMARK  7 active torsions:
REMARK  status: ('A' for Active; 'I' for Inactive)
REMARK    1  A    between atoms: N_1  and  N_2
REMARK    2  A    between atoms: N_11  and  C_12
REMARK    3  A    between atoms: C_14  and  C_15
REMARK    4  A    between atoms: C_15  and  O_16
REMARK    5  A    between atoms: C_15  and  C_17
REMARK    6  A    between atoms: C_24  and  O_25
REMARK    7  A    between atoms: C_26  and  O_27
REMARK                            x       y       z     vdW  Elec       q    Type
REMARK                         _______ _______ _______ _____ _____    ______ ____
ROOT
ATOM      1  C   UNL     1       2.551   5.281  19.619  0.00  0.00    +0.000 C 
ATOM      2  O   UNL     1       3.381   5.422  18.450  0.00  0.00    +0.000 OA
ATOM      3  C   UNL     1       3.259   4.227  17.659  0.00  0.00    +0.000 C 
ATOM      4  C   UNL     1       2.108   3.378  18.212  0.00  0.00    +0.000 C 
ATOM      5  C   UNL     1       1.480   4.234  19.300  0.00  0.00    +0.000 C 
ENDROOT
BRANCH   1  15
ATOM      6  N   UNL     1       0.616  10.980  20.188  0.00  0.00    +0.000 NA
ATOM      7  C   UNL     1       1.204  10.054  19.488  0.00  0.00    +0.000 A 
ATOM      8  N   UNL     1       1.721  10.282  18.210  0.00  0.00    +0.000 NA
ATOM      9  C   UNL     1       2.263   9.276  17.592  0.00  0.00    +0.000 A 
ATOM     10  N   UNL     1       2.403   7.988  18.061  0.00  0.00    +0.000 N 
ATOM     11  C   UNL     1       1.954   7.744  19.304  0.00  0.00    +0.000 A 
ATOM     12  C   UNL     1       1.362   8.729  20.055  0.00  0.00    +0.000 A 
ATOM     13  C   UNL     1       1.040   8.152  21.301  0.00  0.00    +0.000 A 
ATOM     14  C   UNL     1       1.447   6.831  21.256  0.00  0.00    +0.000 A 
ATOM     15  N   UNL     1       1.997   6.577  20.009  0.00  0.00    +0.000 N 
ATOM     16  H   UNL     1       2.877   7.279  17.505  0.00  0.00    +0.000 HD
BRANCH   6  17
ATOM     17  N   UNL     1       0.465  12.191  19.584  0.00  0.00    +0.000 N 
ATOM     18  H   UNL     1       0.689  12.133  18.593  0.00  0.00    +0.000 HD
ATOM     19  H   UNL     1      -0.492  12.544  19.691  0.00  0.00    +0.000 HD
ENDBRANCH   6  17
ENDBRANCH   1  15
BRANCH   4  20
ATOM     20  O   UNL     1       2.540   2.116  18.721  0.00  0.00    +0.000 OA
ATOM     21  H   UNL     1       1.918   1.452  18.359  0.00  0.00    +0.000 HD
ENDBRANCH   4  20
BRANCH   5  22
ATOM     22  O   UNL     1       1.093   3.411  20.410  0.00  0.00    +0.000 OA
ATOM     23  H   UNL     1       1.895   3.106  20.874  0.00  0.00    +0.000 HD
ENDBRANCH   5  22
BRANCH   3  24
ATOM     24  C   UNL     1       4.616   3.489  17.466  0.00  0.00    +0.000 C 
BRANCH  24  25
ATOM     25  C   UNL     1       5.522   3.923  16.310  0.00  0.00    +0.000 A 
ATOM     26  C   UNL     1       5.190   3.644  14.970  0.00  0.00    +0.000 A 
ATOM     27  C   UNL     1       5.979   4.108  13.911  0.00  0.00    +0.000 A 
ATOM     28  C   UNL     1       7.112   4.866  14.174  0.00  0.00    +0.000 A 
ATOM     29 CL   UNL     1       8.064   5.466  12.874  0.00  0.00    +0.000 Cl
ATOM     30  C   UNL     1       7.463   5.162  15.487  0.00  0.00    +0.000 A 
ATOM     31  C   UNL     1       6.666   4.706  16.545  0.00  0.00    +0.000 A 
ENDBRANCH  24  25
BRANCH  24  32
ATOM     32  O   UNL     1       5.319   3.546  18.715  0.00  0.00    +0.000 OA
ATOM     33  H   UNL     1       4.647   3.341  19.400  0.00  0.00    +0.000 HD
ENDBRANCH  24  32
ENDBRANCH   3  24
TORSDOF 7
ENDMDL
MODEL 4
REMARK VINA RESULT:      -7.6      4.677      9.138
REMARK  Name = 
REMARK  7 active torsions:
REMARK  status: ('A' for Active; 'I' for Inactive)
REMARK    1  A    between atoms: N_1  and  N_2
REMARK    2  A    between atoms: N_11  and  C_12
REMARK    3  A    between atoms: C_14  and  C_15
REMARK    4  A    between atoms: C_15  and  O_16
REMARK    5  A    between atoms: C_15  and  C_17
REMARK    6  A    between atoms: C_24  and  O_25
REMARK    7  A    between atoms: C_26  and  O_27
REMARK                            x       y       z     vdW  Elec       q    Type
REMARK                         _______ _______ _______ _____ _____    ______ ____
ROOT
ATOM      1  C   UNL     1       2.149   7.852  19.598  0.00  0.00    +0.000 C 
ATOM      2  O   UNL     1       1.174   8.310  20.556  0.00  0.00    +0.000 OA
ATOM      3  C   UNL     1       0.474   9.432  19.991  0.00  0.00    +0.000 C 
ATOM      4  C   UNL     1       0.838   9.551  18.506  0.00  0.00    +0.000 C 
ATOM      5  C   UNL     1       1.696   8.330  18.216  0.00  0.00    +0.000 C 
ENDROOT
BRANCH   1  15
ATOM      6  N   UNL     1       3.458   1.978  19.025  0.00  0.00    +0.000 NA
ATOM      7  C   UNL     1       3.570   3.204  18.603  0.00  0.00    +0.000 A 
ATOM      8  N   UNL     1       4.310   3.552  17.470  0.00  0.00    +0.000 NA
ATOM      9  C   UNL     1       4.373   4.812  17.157  0.00  0.00    +0.000 A 
ATOM     10  N   UNL     1       3.775   5.864  17.814  0.00  0.00    +0.000 N 
ATOM     11  C   UNL     1       3.022   5.560  18.885  0.00  0.00    +0.000 A 
ATOM     12  C   UNL     1       2.879   4.264  19.312  0.00  0.00    +0.000 A 
ATOM     13  C   UNL     1       2.012   4.294  20.423  0.00  0.00    +0.000 A 
ATOM     14  C   UNL     1       1.663   5.617  20.632  0.00  0.00    +0.000 A 
ATOM     15  N   UNL     1       2.306   6.401  19.687  0.00  0.00    +0.000 N 
ATOM     16  H   UNL     1       3.862   6.816  17.463  0.00  0.00    +0.000 HD
BRANCH   6  17
ATOM     17  N   UNL     1       4.162   1.036  18.340  0.00  0.00    +0.000 N 
ATOM     18  H   UNL     1       4.044   0.116  18.760  0.00  0.00    +0.000 HD
ATOM     19  H   UNL     1       3.873   0.995  17.357  0.00  0.00    +0.000 HD
ENDBRANCH   6  17
ENDBRANCH   1  15
BRANCH   4  20
ATOM     20  O   UNL     1       1.528  10.763  18.196  0.00  0.00    +0.000 OA
ATOM     21  H   UNL     1       1.621  11.244  19.044  0.00  0.00    +0.000 HD
ENDBRANCH   4  20
BRANCH   5  22
ATOM     22  O   UNL     1       2.762   8.680  17.322  0.00  0.00    +0.000 OA
ATOM     23  H   UNL     1       2.486   9.444  16.781  0.00  0.00    +0.000 HD
ENDBRANCH   5  22
BRANCH   3  24
ATOM     24  C   UNL     1       0.633  10.730  20.835  0.00  0.00    +0.000 C 
BRANCH  24  25
ATOM     25  C   UNL     1      -0.633  11.443  21.318  0.00  0.00    +0.000 A 
ATOM     26  C   UNL     1      -1.478  12.129  20.424  0.00  0.00    +0.000 A 
ATOM     27  C   UNL     1      -2.675  12.714  20.855  0.00  0.00    +0.000 A 
ATOM     28  C   UNL     1      -3.052  12.618  22.187  0.00  0.00    +0.000 A 
ATOM     29 CL   UNL     1      -4.537  13.306  22.712  0.00  0.00    +0.000 Cl
ATOM     30  C   UNL     1      -2.240  11.942  23.094  0.00  0.00    +0.000 A 
ATOM     31  C   UNL     1      -1.048  11.348  22.658  0.00  0.00    +0.000 A 
ENDBRANCH  24  25
BRANCH  24  32
ATOM     32  O   UNL     1       1.499  10.424  21.938  0.00  0.00    +0.000 OA
ATOM     33  H   UNL     1       1.329   9.480  22.145  0.00  0.00    +0.000 HD
ENDBRANCH  24  32
ENDBRANCH   3  24
TORSDOF 7
ENDMDL
MODEL 5
REMARK VINA RESULT:      -7.5      5.148      9.613
REMARK  Name = 
REMARK  7 active torsions:
REMARK  status: ('A' for Active; 'I' for Inactive)
REMARK    1  A    between atoms: N_1  and  N_2
REMARK    2  A    between atoms: N_11  and  C_12
REMARK    3  A    between atoms: C_14  and  C_15
REMARK    4  A    between atoms: C_15  and  O_16
REMARK    5  A    between atoms: C_15  and  C_17
REMARK    6  A    between atoms: C_24  and  O_25
REMARK    7  A    between atoms: C_26  and  O_27
REMARK                            x       y       z     vdW  Elec       q    Type
REMARK                         _______ _______ _______ _____ _____    ______ ____
ROOT
ATOM      1  C   UNL     1       1.477   9.133  19.650  0.00  0.00    +0.000 C 
ATOM      2  O   UNL     1       0.473   9.456  20.632  0.00  0.00    +0.000 OA
ATOM      3  C   UNL     1      -0.422  10.427  20.064  0.00  0.00    +0.000 C 
ATOM      4  C   UNL     1      -0.134  10.555  18.563  0.00  0.00    +0.000 C 
ATOM      5  C   UNL     1       0.904   9.482  18.273  0.00  0.00    +0.000 C 
ENDROOT
BRANCH   1  15
ATOM      6  N   UNL     1       3.761   3.552  19.214  0.00  0.00    +0.000 NA
ATOM      7  C   UNL     1       3.666   4.769  18.763  0.00  0.00    +0.000 A 
ATOM      8  N   UNL     1       4.341   5.211  17.622  0.00  0.00    +0.000 NA
ATOM      9  C   UNL     1       4.193   6.456  17.280  0.00  0.00    +0.000 A 
ATOM     10  N   UNL     1       3.423   7.407  17.913  0.00  0.00    +0.000 N 
ATOM     11  C   UNL     1       2.727   7.006  18.990  0.00  0.00    +0.000 A 
ATOM     12  C   UNL     1       2.803   5.713  19.447  0.00  0.00    +0.000 A 
ATOM     13  C   UNL     1       1.938   5.623  20.557  0.00  0.00    +0.000 A 
ATOM     14  C   UNL     1       1.371   6.872  20.734  0.00  0.00    +0.000 A 
ATOM     15  N   UNL     1       1.877   7.732  19.772  0.00  0.00    +0.000 N 
ATOM     16  H   UNL     1       3.350   8.352  17.539  0.00  0.00    +0.000 HD
BRANCH   6  17
ATOM     17  N   UNL     1       4.616   2.727  18.551  0.00  0.00    +0.000 N 
ATOM     18  H   UNL     1       5.036   3.203  17.754  0.00  0.00    +0.000 HD
ATOM     19  H   UNL     1       5.361   2.387  19.168  0.00  0.00    +0.000 HD
ENDBRANCH   6  17
ENDBRANCH   1  15
BRANCH   4  20
ATOM     20  O   UNL     1       0.333  11.852  18.193  0.00  0.00    +0.000 OA
ATOM     21  H   UNL     1       0.046  11.988  17.267  0.00  0.00    +0.000 HD
ENDBRANCH   4  20
BRANCH   5  22
ATOM     22  O   UNL     1       1.866   9.974  17.329  0.00  0.00    +0.000 OA
ATOM     23  H   UNL     1       2.692   9.462  17.419  0.00  0.00    +0.000 HD
ENDBRANCH   5  22
BRANCH   3  24
ATOM     24  C   UNL     1      -0.452  11.762  20.866  0.00  0.00    +0.000 C 
BRANCH  24  25
ATOM     25  C   UNL     1      -1.757  12.166  21.557  0.00  0.00    +0.000 A 
ATOM     26  C   UNL     1      -2.853  12.666  20.827  0.00  0.00    +0.000 A 
ATOM     27  C   UNL     1      -4.071  12.962  21.450  0.00  0.00    +0.000 A 
ATOM     28  C   UNL     1      -4.218  12.756  22.815  0.00  0.00    +0.000 A 
ATOM     29 CL   UNL     1      -5.723  13.086  23.577  0.00  0.00    +0.000 Cl
ATOM     30  C   UNL     1      -3.155  12.258  23.562  0.00  0.00    +0.000 A 
ATOM     31  C   UNL     1      -1.940  11.952  22.935  0.00  0.00    +0.000 A 
ENDBRANCH  24  25
BRANCH  24  32
ATOM     32  O   UNL     1       0.633  11.726  21.804  0.00  0.00    +0.000 OA
ATOM     33  H   UNL     1       1.412  11.432  21.286  0.00  0.00    +0.000 HD
ENDBRANCH  24  32
ENDBRANCH   3  24
TORSDOF 7
ENDMDL
MODEL 6
REMARK VINA RESULT:      -7.4      4.895      9.372
REMARK  Name = 
REMARK  7 active torsions:
REMARK  status: ('A' for Active; 'I' for Inactive)
REMARK    1  A    between atoms: N_1  and  N_2
REMARK    2  A    between atoms: N_11  and  C_12
REMARK    3  A    between atoms: C_14  and  C_15
REMARK    4  A    between atoms: C_15  and  O_16
REMARK    5  A    between atoms: C_15  and  C_17
REMARK    6  A    between atoms: C_24  and  O_25
REMARK    7  A    between atoms: C_26  and  O_27
REMARK                            x       y       z     vdW  Elec       q    Type
REMARK                         _______ _______ _______ _____ _____    ______ ____
ROOT
ATOM      1  C   UNL     1       1.838   8.469  19.659  0.00  0.00    +0.000 C 
ATOM      2  O   UNL     1       0.791   8.916  20.543  0.00  0.00    +0.000 OA
ATOM      3  C   UNL     1       0.016   9.916  19.859  0.00  0.00    +0.000 C 
ATOM      4  C   UNL     1       0.424   9.940  18.381  0.00  0.00    +0.000 C 
ATOM      5  C   UNL     1       1.397   8.782  18.226  0.00  0.00    +0.000 C 
ENDROOT
BRANCH   1  15
ATOM      6  N   UNL     1       3.716   2.722  19.675  0.00  0.00    +0.000 NA
ATOM      7  C   UNL     1       3.746   3.916  19.158  0.00  0.00    +0.000 A 
ATOM      8  N   UNL     1       4.531   4.244  18.049  0.00  0.00    +0.000 NA
ATOM      9  C   UNL     1       4.502   5.475  17.635  0.00  0.00    +0.000 A 
ATOM     10  N   UNL     1       3.765   6.513  18.160  0.00  0.00    +0.000 N 
ATOM     11  C   UNL     1       2.966   6.223  19.201  0.00  0.00    +0.000 A 
ATOM     12  C   UNL     1       2.911   4.956  19.727  0.00  0.00    +0.000 A 
ATOM     13  C   UNL     1       1.966   4.991  20.773  0.00  0.00    +0.000 A 
ATOM     14  C   UNL     1       1.484   6.285  20.845  0.00  0.00    +0.000 A 
ATOM     15  N   UNL     1       2.120   7.051  19.880  0.00  0.00    +0.000 N 
ATOM     16  H   UNL     1       3.789   7.438  17.735  0.00  0.00    +0.000 HD
BRANCH   6  17
ATOM     17  N   UNL     1       4.551   1.802  19.119  0.00  0.00    +0.000 N 
ATOM     18  H   UNL     1       5.511   1.951  19.423  0.00  0.00    +0.000 HD
ATOM     19  H   UNL     1       4.268   0.847  19.362  0.00  0.00    +0.000 HD
ENDBRANCH   6  17
ENDBRANCH   1  15
BRANCH   4  20
ATOM     20  O   UNL     1       1.014  11.179  17.985  0.00  0.00    +0.000 OA
ATOM     21  H   UNL     1       0.632  11.861  18.575  0.00  0.00    +0.000 HD
ENDBRANCH   4  20
BRANCH   5  22
ATOM     22  O   UNL     1       2.460   9.151  17.336  0.00  0.00    +0.000 OA
ATOM     23  H   UNL     1       3.057   9.772  17.794  0.00  0.00    +0.000 HD
ENDBRANCH   5  22
BRANCH   3  24
ATOM     24  C   UNL     1       0.028  11.292  20.590  0.00  0.00    +0.000 C 
BRANCH  24  25
ATOM     25  C   UNL     1      -1.240  11.736  21.324  0.00  0.00    +0.000 A 
ATOM     26  C   UNL     1      -1.405  11.520  22.706  0.00  0.00    +0.000 A 
ATOM     27  C   UNL     1      -2.530  11.995  23.390  0.00  0.00    +0.000 A 
ATOM     28  C   UNL     1      -3.509  12.700  22.704  0.00  0.00    +0.000 A 
ATOM     29 CL   UNL     1      -4.876  13.314  23.548  0.00  0.00    +0.000 Cl
ATOM     30  C   UNL     1      -3.373  12.933  21.339  0.00  0.00    +0.000 A 
ATOM     31  C   UNL     1      -2.240  12.467  20.659  0.00  0.00    +0.000 A 
ENDBRANCH  24  25
BRANCH  24  32
ATOM     32  O   UNL     1       1.159  11.302  21.472  0.00  0.00    +0.000 OA
ATOM     33  H   UNL     1       1.936  11.460  20.895  0.00  0.00    +0.000 HD
ENDBRANCH  24  32
ENDBRANCH   3  24
TORSDOF 7
ENDMDL
MODEL 7
REMARK VINA RESULT:      -7.3      4.678      9.173
REMARK  Name = 
REMARK  7 active torsions:
REMARK  status: ('A' for Active; 'I' for Inactive)
REMARK    1  A    between atoms: N_1  and  N_2
REMARK    2  A    between atoms: N_11  and  C_12
REMARK    3  A    between atoms: C_14  and  C_15
REMARK    4  A    between atoms: C_15  and  O_16
REMARK    5  A    between atoms: C_15  and  C_17
REMARK    6  A    between atoms: C_24  and  O_25
REMARK    7  A    between atoms: C_26  and  O_27
REMARK                            x       y       z     vdW  Elec       q    Type
REMARK                         _______ _______ _______ _____ _____    ______ ____
ROOT
ATOM      1  C   UNL     1       2.130   7.587  19.979  0.00  0.00    +0.000 C 
ATOM      2  O   UNL     1       1.181   7.974  20.993  0.00  0.00    +0.000 OA
ATOM      3  C   UNL     1       0.516   9.173  20.559  0.00  0.00    +0.000 C 
ATOM      4  C   UNL     1       0.870   9.437  19.090  0.00  0.00    +0.000 C 
ATOM      5  C   UNL     1       1.681   8.224  18.661  0.00  0.00    +0.000 C 
ENDROOT
BRANCH   1  15
ATOM      6  N   UNL     1       3.393   1.772  18.915  0.00  0.00    +0.000 NA
ATOM      7  C   UNL     1       3.607   3.033  18.677  0.00  0.00    +0.000 A 
ATOM      8  N   UNL     1       4.547   3.481  17.746  0.00  0.00    +0.000 NA
ATOM      9  C   UNL     1       4.694   4.765  17.610  0.00  0.00    +0.000 A 
ATOM     10  N   UNL     1       4.010   5.757  18.277  0.00  0.00    +0.000 N 
ATOM     11  C   UNL     1       3.068   5.361  19.150  0.00  0.00    +0.000 A 
ATOM     12  C   UNL     1       2.821   4.030  19.379  0.00  0.00    +0.000 A 
ATOM     13  C   UNL     1       1.767   3.966  20.313  0.00  0.00    +0.000 A 
ATOM     14  C   UNL     1       1.415   5.268  20.620  0.00  0.00    +0.000 A 
ATOM     15  N   UNL     1       2.237   6.130  19.911  0.00  0.00    +0.000 N 
ATOM     16  H   UNL     1       4.180   6.739  18.069  0.00  0.00    +0.000 HD
BRANCH   6  17
ATOM     17  N   UNL     1       4.189   0.888  18.253  0.00  0.00    +0.000 N 
ATOM     18  H   UNL     1       4.030   0.937  17.249  0.00  0.00    +0.000 HD
ATOM     19  H   UNL     1       5.181   1.064  18.443  0.00  0.00    +0.000 HD
ENDBRANCH   6  17
ENDBRANCH   1  15
BRANCH   4  20
ATOM     20  O   UNL     1       1.598  10.650  18.901  0.00  0.00    +0.000 OA
ATOM     21  H   UNL     1       1.289  11.021  18.049  0.00  0.00    +0.000 HD
ENDBRANCH   4  20
BRANCH   5  22
ATOM     22  O   UNL     1       2.749   8.631  17.794  0.00  0.00    +0.000 OA
ATOM     23  H   UNL     1       2.385   9.187  17.079  0.00  0.00    +0.000 HD
ENDBRANCH   5  22
BRANCH   3  24
ATOM     24  C   UNL     1       0.730  10.368  21.534  0.00  0.00    +0.000 C 
BRANCH  24  25
ATOM     25  C   UNL     1      -0.448  11.310  21.798  0.00  0.00    +0.000 A 
ATOM     26  C   UNL     1      -1.249  11.184  22.950  0.00  0.00    +0.000 A 
ATOM     27  C   UNL     1      -2.276  12.093  23.227  0.00  0.00    +0.000 A 
ATOM     28  C   UNL     1      -2.518  13.150  22.360  0.00  0.00    +0.000 A 
ATOM     29 CL   UNL     1      -3.757  14.287  22.717  0.00  0.00    +0.000 Cl
ATOM     30  C   UNL     1      -1.740  13.304  21.217  0.00  0.00    +0.000 A 
ATOM     31  C   UNL     1      -0.705  12.400  20.947  0.00  0.00    +0.000 A 
ENDBRANCH  24  25
BRANCH  24  32
ATOM     32  O   UNL     1       1.242   9.835  22.763  0.00  0.00    +0.000 OA
ATOM     33  H   UNL     1       2.166  10.161  22.821  0.00  0.00    +0.000 HD
ENDBRANCH  24  32
ENDBRANCH   3  24
TORSDOF 7
ENDMDL
MODEL 8
REMARK VINA RESULT:      -7.3      4.882      9.117
REMARK  Name = 
REMARK  7 active torsions:
REMARK  status: ('A' for Active; 'I' for Inactive)
REMARK    1  A    between atoms: N_1  and  N_2
REMARK    2  A    between atoms: N_11  and  C_12
REMARK    3  A    between atoms: C_14  and  C_15
REMARK    4  A    between atoms: C_15  and  O_16
REMARK    5  A    between atoms: C_15  and  C_17
REMARK    6  A    between atoms: C_24  and  O_25
REMARK    7  A    between atoms: C_26  and  O_27
REMARK                            x       y       z     vdW  Elec       q    Type
REMARK                         _______ _______ _______ _____ _____    ______ ____
ROOT
ATOM      1  C   UNL     1       2.225   8.762  19.134  0.00  0.00    +0.000 C 
ATOM      2  O   UNL     1       1.365   8.639  20.284  0.00  0.00    +0.000 OA
ATOM      3  C   UNL     1       0.325   9.627  20.180  0.00  0.00    +0.000 C 
ATOM      4  C   UNL     1       0.368  10.253  18.781  0.00  0.00    +0.000 C 
ATOM      5  C   UNL     1       1.423   9.456  18.030  0.00  0.00    +0.000 C 
ENDROOT
BRANCH   1  15
ATOM      6  N   UNL     1       3.911   2.989  18.516  0.00  0.00    +0.000 NA
ATOM      7  C   UNL     1       3.339   3.927  19.213  0.00  0.00    +0.000 A 
ATOM      8  N   UNL     1       2.775   3.702  20.471  0.00  0.00    +0.000 NA
ATOM      9  C   UNL     1       2.206   4.709  21.064  0.00  0.00    +0.000 A 
ATOM     10  N   UNL     1       2.103   6.000  20.597  0.00  0.00    +0.000 N 
ATOM     11  C   UNL     1       2.672   6.262  19.408  0.00  0.00    +0.000 A 
ATOM     12  C   UNL     1       3.302   5.278  18.687  0.00  0.00    +0.000 A 
ATOM     13  C   UNL     1       3.807   5.889  17.520  0.00  0.00    +0.000 A 
ATOM     14  C   UNL     1       3.458   7.227  17.577  0.00  0.00    +0.000 A 
ATOM     15  N   UNL     1       2.738   7.450  18.740  0.00  0.00    +0.000 N 
ATOM     16  H   UNL     1       1.664   6.725  21.161  0.00  0.00    +0.000 HD
BRANCH   6  17
ATOM     17  N   UNL     1       3.878   1.736  19.047  0.00  0.00    +0.000 N 
ATOM     18  H   UNL     1       3.743   1.772  20.055  0.00  0.00    +0.000 HD
ATOM     19  H   UNL     1       3.130   1.173  18.629  0.00  0.00    +0.000 HD
ENDBRANCH   6  17
ENDBRANCH   1  15
BRANCH   4  20
ATOM     20  O   UNL     1       0.678  11.646  18.802  0.00  0.00    +0.000 OA
ATOM     21  H   UNL     1       0.231  12.034  18.022  0.00  0.00    +0.000 HD
ENDBRANCH   4  20
BRANCH   5  22
ATOM     22  O   UNL     1       2.188  10.328  17.187  0.00  0.00    +0.000 OA
ATOM     23  H   UNL     1       1.877  10.236  16.267  0.00  0.00    +0.000 HD
ENDBRANCH   5  22
BRANCH   3  24
ATOM     24  C   UNL     1       0.325  10.630  21.372  0.00  0.00    +0.000 C 
BRANCH  24  25
ATOM     25  C   UNL     1      -1.002  11.278  21.776  0.00  0.00    +0.000 A 
ATOM     26  C   UNL     1      -1.486  11.206  23.097  0.00  0.00    +0.000 A 
ATOM     27  C   UNL     1      -2.659  11.864  23.482  0.00  0.00    +0.000 A 
ATOM     28  C   UNL     1      -3.369  12.612  22.553  0.00  0.00    +0.000 A 
ATOM     29 CL   UNL     1      -4.793  13.449  23.031  0.00  0.00    +0.000 Cl
ATOM     30  C   UNL     1      -2.914  12.707  21.241  0.00  0.00    +0.000 A 
ATOM     31  C   UNL     1      -1.733  12.057  20.861  0.00  0.00    +0.000 A 
ENDBRANCH  24  25
BRANCH  24  32
ATOM     32  O   UNL     1       0.932   9.969  22.491  0.00  0.00    +0.000 OA
ATOM     33  H   UNL     1       0.188   9.733  23.087  0.00  0.00    +0.000 HD
ENDBRANCH  24  32
ENDBRANCH   3  24
TORSDOF 7
ENDMDL
MODEL 9
REMARK VINA RESULT:      -7.3      4.651      9.049
REMARK  Name = 
REMARK  7 active torsions:
REMARK  status: ('A' for Active; 'I' for Inactive)
REMARK    1  A    between atoms: N_1  and  N_2
REMARK    2  A    between atoms: N_11  and  C_12
REMARK    3  A    between atoms: C_14  and  C_15
REMARK    4  A    between atoms: C_15  and  O_16
REMARK    5  A    between atoms: C_15  and  C_17
REMARK    6  A    between atoms: C_24  and  O_25
REMARK    7  A    between atoms: C_26  and  O_27
REMARK                            x       y       z     vdW  Elec       q    Type
REMARK                         _______ _______ _______ _____ _____    ______ ____
ROOT
ATOM      1  C   UNL     1       2.244   8.018  19.545  0.00  0.00    +0.000 C 
ATOM      2  O   UNL     1       1.214   8.561  20.395  0.00  0.00    +0.000 OA
ATOM      3  C   UNL     1       0.492   9.560  19.652  0.00  0.00    +0.000 C 
ATOM      4  C   UNL     1       0.910   9.485  18.178  0.00  0.00    +0.000 C 
ATOM      5  C   UNL     1       1.828   8.275  18.094  0.00  0.00    +0.000 C 
ENDROOT
BRANCH   1  15
ATOM      6  N   UNL     1       4.068   2.285  20.136  0.00  0.00    +0.000 NA
ATOM      7  C   UNL     1       4.243   3.478  19.649  0.00  0.00    +0.000 A 
ATOM      8  N   UNL     1       5.322   3.811  18.825  0.00  0.00    +0.000 NA
ATOM      9  C   UNL     1       5.410   5.042  18.418  0.00  0.00    +0.000 A 
ATOM     10  N   UNL     1       4.543   6.075  18.696  0.00  0.00    +0.000 N 
ATOM     11  C   UNL     1       3.471   5.780  19.451  0.00  0.00    +0.000 A 
ATOM     12  C   UNL     1       3.270   4.513  19.940  0.00  0.00    +0.000 A 
ATOM     13  C   UNL     1       2.055   4.541  20.656  0.00  0.00    +0.000 A 
ATOM     14  C   UNL     1       1.565   5.833  20.577  0.00  0.00    +0.000 A 
ATOM     15  N   UNL     1       2.456   6.602  19.845  0.00  0.00    +0.000 N 
ATOM     16  H   UNL     1       4.687   7.000  18.295  0.00  0.00    +0.000 HD
BRANCH   6  17
ATOM     17  N   UNL     1       5.037   1.370  19.858  0.00  0.00    +0.000 N 
ATOM     18  H   UNL     1       5.641   1.697  19.107  0.00  0.00    +0.000 HD
ATOM     19  H   UNL     1       5.609   1.169  20.684  0.00  0.00    +0.000 HD
ENDBRANCH   6  17
ENDBRANCH   1  15
BRANCH   4  20
ATOM     20  O   UNL     1       1.562  10.670  17.722  0.00  0.00    +0.000 OA
ATOM     21  H   UNL     1       0.902  11.150  17.181  0.00  0.00    +0.000 HD
ENDBRANCH   4  20
BRANCH   5  22
ATOM     22  O   UNL     1       2.913   8.544  17.195  0.00  0.00    +0.000 OA
ATOM     23  H   UNL     1       3.283   9.424  17.398  0.00  0.00    +0.000 HD
ENDBRANCH   5  22
BRANCH   3  24
ATOM     24  C   UNL     1       0.566  10.970  20.308  0.00  0.00    +0.000 C 
BRANCH  24  25
ATOM     25  C   UNL     1      -0.738  11.749  20.504  0.00  0.00    +0.000 A 
ATOM     26  C   UNL     1      -0.901  12.657  21.568  0.00  0.00    +0.000 A 
ATOM     27  C   UNL     1      -2.063  13.425  21.701  0.00  0.00    +0.000 A 
ATOM     28  C   UNL     1      -3.083  13.303  20.767  0.00  0.00    +0.000 A 
ATOM     29 CL   UNL     1      -4.498  14.270  20.909  0.00  0.00    +0.000 Cl
ATOM     30  C   UNL     1      -2.950  12.418  19.702  0.00  0.00    +0.000 A 
ATOM     31  C   UNL     1      -1.781  11.659  19.564  0.00  0.00    +0.000 A 
ENDBRANCH  24  25
BRANCH  24  32
ATOM     32  O   UNL     1       1.269  10.832  21.550  0.00  0.00    +0.000 OA
ATOM     33  H   UNL     1       1.092  11.662  22.041  0.00  0.00    +0.000 HD
ENDBRANCH  24  32
ENDBRANCH   3  24
TORSDOF 7
ENDMDL
