MODEL 1
REMARK VINA RESULT:      -6.4      0.000      0.000
REMARK  Name = 
REMARK  8 active torsions:
REMARK  status: ('A' for Active; 'I' for Inactive)
REMARK    1  A    between atoms: N_1  and  C_2
REMARK    2  A    between atoms: N_10  and  C_11
REMARK    3  A    between atoms: C_11  and  C_12
REMARK    4  A    between atoms: C_12  and  O_13
REMARK    5  A    between atoms: O_13  and  C_14
REMARK    6  A    between atoms: C_14  and  P_15
REMARK    7  A    between atoms: P_15  and  O_17
REMARK    8  A    between atoms: P_15  and  O_18
REMARK                            x       y       z     vdW  Elec       q    Type
REMARK                         _______ _______ _______ _____ _____    ______ ____
ROOT
ATOM      1  C   UNL     1       6.809   6.138  16.448  0.00  0.00    +0.000 A 
ATOM      2  N   UNL     1       7.469   5.276  15.634  0.00  0.00    +0.000 NA
ATOM      3  C   UNL     1       6.885   4.104  15.292  0.00  0.00    +0.000 A 
ATOM      4  C   UNL     1       5.636   3.675  15.715  0.00  0.00    +0.000 A 
ATOM      5  C   UNL     1       4.989   4.543  16.590  0.00  0.00    +0.000 A 
ATOM      6  C   UNL     1       5.547   5.764  16.968  0.00  0.00    +0.000 A 
ATOM      7  N   UNL     1       4.713   6.433  17.846  0.00  0.00    +0.000 NA
ATOM      8  C   UNL     1       3.667   5.652  17.990  0.00  0.00    +0.000 A 
ATOM      9  N   UNL     1       3.793   4.501  17.262  0.00  0.00    +0.000 N 
ENDROOT
BRANCH   1  10
ATOM     10  N   UNL     1       7.425   7.344  16.748  0.00  0.00    +0.000 N 
ATOM     11  H   UNL     1       7.757   7.358  17.703  0.00  0.00    +0.000 HD
ATOM     12  H   UNL     1       6.906   8.145  16.411  0.00  0.00    +0.000 HD
ENDBRANCH   1  10
BRANCH   9  13
ATOM     13  C   UNL     1       2.803   3.453  17.187  0.00  0.00    +0.000 C 
BRANCH  13  14
ATOM     14  C   UNL     1       3.269   2.119  17.766  0.00  0.00    +0.000 C 
BRANCH  14  15
ATOM     15  O   UNL     1       2.563   1.934  18.989  0.00  0.00    +0.000 OA
BRANCH  15  16
ATOM     16  C   UNL     1       3.231   2.486  20.132  0.00  0.00    +0.000 C 
BRANCH  16  17
ATOM     17  P   UNL     1       1.910   3.272  21.061  0.00  0.00    +0.000 P 
ATOM     18  O   UNL     1       1.525   2.645  22.359  0.00  0.00    +0.000 OA
BRANCH  17  19
ATOM     19  O   UNL     1       2.410   4.787  21.249  0.00  0.00    +0.000 OA
ATOM     20  H   UNL     1       3.382   4.841  21.148  0.00  0.00    +0.000 HD
ENDBRANCH  17  19
BRANCH  17  21
ATOM     21  O   UNL     1       0.659   3.492  20.084  0.00  0.00    +0.000 OA
ATOM     22  H   UNL     1       0.130   4.255  20.392  0.00  0.00    +0.000 HD
ENDBRANCH  17  21
ENDBRANCH  16  17
ENDBRANCH  15  16
ENDBRANCH  14  15
ENDBRANCH  13  14
ENDBRANCH   9  13
TORSDOF 8
ENDMDL
MODEL 2
REMARK VINA RESULT:      -6.4      1.999      2.990
REMARK  Name = 
REMARK  8 active torsions:
REMARK  status: ('A' for Active; 'I' for Inactive)
REMARK    1  A    between atoms: N_1  and  C_2
REMARK    2  A    between atoms: N_10  and  C_11
REMARK    3  A    between atoms: C_11  and  C_12
REMARK    4  A    between atoms: C_12  and  O_13
REMARK    5  A    between atoms: O_13  and  C_14
REMARK    6  A    between atoms: C_14  and  P_15
REMARK    7  A    between atoms: P_15  and  O_17
REMARK    8  A    between atoms: P_15  and  O_18
REMARK                            x       y       z     vdW  Elec       q    Type
REMARK                         _______ _______ _______ _____ _____    ______ ____
ROOT
ATOM      1  C   UNL     1       6.616   5.026  16.868  0.00  0.00    +0.000 A 
ATOM      2  N   UNL     1       6.350   5.900  15.865  0.00  0.00    +0.000 NA
ATOM      3  C   UNL     1       5.258   6.695  15.946  0.00  0.00    +0.000 A 
ATOM      4  C   UNL     1       4.342   6.698  16.988  0.00  0.00    +0.000 A 
ATOM      5  C   UNL     1       4.595   5.762  17.987  0.00  0.00    +0.000 A 
ATOM      6  C   UNL     1       5.710   4.924  17.951  0.00  0.00    +0.000 A 
ATOM      7  N   UNL     1       5.728   4.086  19.050  0.00  0.00    +0.000 NA
ATOM      8  C   UNL     1       4.665   4.410  19.748  0.00  0.00    +0.000 A 
ATOM      9  N   UNL     1       3.948   5.405  19.144  0.00  0.00    +0.000 N 
ENDROOT
BRANCH   1  10
ATOM     10  N   UNL     1       7.763   4.253  16.764  0.00  0.00    +0.000 N 
ATOM     11  H   UNL     1       7.576   3.287  16.999  0.00  0.00    +0.000 HD
ATOM     12  H   UNL     1       8.574   4.697  17.177  0.00  0.00    +0.000 HD
ENDBRANCH   1  10
BRANCH   9  13
ATOM     13  C   UNL     1       2.745   6.002  19.672  0.00  0.00    +0.000 C 
BRANCH  13  14
ATOM     14  C   UNL     1       2.107   5.205  20.809  0.00  0.00    +0.000 C 
BRANCH  14  15
ATOM     15  O   UNL     1       1.003   4.503  20.248  0.00  0.00    +0.000 OA
BRANCH  15  16
ATOM     16  C   UNL     1       1.115   3.076  20.346  0.00  0.00    +0.000 C 
BRANCH  16  17
ATOM     17  P   UNL     1       1.347   2.548  18.645  0.00  0.00    +0.000 P 
ATOM     18  O   UNL     1       1.469   3.616  17.611  0.00  0.00    +0.000 OA
BRANCH  17  19
ATOM     19  O   UNL     1       2.651   1.611  18.699  0.00  0.00    +0.000 OA
ATOM     20  H   UNL     1       3.459   2.156  18.791  0.00  0.00    +0.000 HD
ENDBRANCH  17  19
BRANCH  17  21
ATOM     21  O   UNL     1       0.220   1.466  18.287  0.00  0.00    +0.000 OA
ATOM     22  H   UNL     1      -0.634   1.736  18.682  0.00  0.00    +0.000 HD
ENDBRANCH  17  21
ENDBRANCH  16  17
ENDBRANCH  15  16
ENDBRANCH  14  15
ENDBRANCH  13  14
ENDBRANCH   9  13
TORSDOF 8
ENDMDL
MODEL 3
REMARK VINA RESULT:      -6.2      0.802      1.387
REMARK  Name = 
REMARK  8 active torsions:
REMARK  status: ('A' for Active; 'I' for Inactive)
REMARK    1  A    between atoms: N_1  and  C_2
REMARK    2  A    between atoms: N_10  and  C_11
REMARK    3  A    between atoms: C_11  and  C_12
REMARK    4  A    between atoms: C_12  and  O_13
REMARK    5  A    between atoms: O_13  and  C_14
REMARK    6  A    between atoms: C_14  and  P_15
REMARK    7  A    between atoms: P_15  and  O_17
REMARK    8  A    between atoms: P_15  and  O_18
REMARK                            x       y       z     vdW  Elec       q    Type
REMARK                         _______ _______ _______ _____ _____    ______ ____
ROOT
ATOM      1  C   UNL     1       6.631   6.573  16.777  0.00  0.00    +0.000 A 
ATOM      2  N   UNL     1       7.445   5.761  16.056  0.00  0.00    +0.000 NA
ATOM      3  C   UNL     1       6.988   4.554  15.648  0.00  0.00    +0.000 A 
ATOM      4  C   UNL     1       5.727   4.041  15.913  0.00  0.00    +0.000 A 
ATOM      5  C   UNL     1       4.919   4.859  16.695  0.00  0.00    +0.000 A 
ATOM      6  C   UNL     1       5.342   6.114  17.136  0.00  0.00    +0.000 A 
ATOM      7  N   UNL     1       4.362   6.721  17.899  0.00  0.00    +0.000 NA
ATOM      8  C   UNL     1       3.360   5.872  17.914  0.00  0.00    +0.000 A 
ATOM      9  N   UNL     1       3.653   4.735  17.212  0.00  0.00    +0.000 N 
ENDROOT
BRANCH   1  10
ATOM     10  N   UNL     1       7.123   7.817  17.147  0.00  0.00    +0.000 N 
ATOM     11  H   UNL     1       6.568   8.562  16.751  0.00  0.00    +0.000 HD
ATOM     12  H   UNL     1       8.131   7.878  17.071  0.00  0.00    +0.000 HD
ENDBRANCH   1  10
BRANCH   9  13
ATOM     13  C   UNL     1       2.753   3.624  17.017  0.00  0.00    +0.000 C 
BRANCH  13  14
ATOM     14  C   UNL     1       1.502   3.679  17.892  0.00  0.00    +0.000 C 
BRANCH  14  15
ATOM     15  O   UNL     1       1.444   2.447  18.603  0.00  0.00    +0.000 OA
BRANCH  15  16
ATOM     16  C   UNL     1       2.571   2.221  19.461  0.00  0.00    +0.000 C 
BRANCH  16  17
ATOM     17  P   UNL     1       2.173   3.152  20.945  0.00  0.00    +0.000 P 
ATOM     18  O   UNL     1       2.523   4.602  20.952  0.00  0.00    +0.000 OA
BRANCH  17  19
ATOM     19  O   UNL     1       0.596   2.913  21.146  0.00  0.00    +0.000 OA
ATOM     20  H   UNL     1       0.267   2.253  20.503  0.00  0.00    +0.000 HD
ENDBRANCH  17  19
BRANCH  17  21
ATOM     21  O   UNL     1       2.756   2.367  22.213  0.00  0.00    +0.000 OA
ATOM     22  H   UNL     1       2.066   1.782  22.585  0.00  0.00    +0.000 HD
ENDBRANCH  17  21
ENDBRANCH  16  17
ENDBRANCH  15  16
ENDBRANCH  14  15
ENDBRANCH  13  14
ENDBRANCH   9  13
TORSDOF 8
ENDMDL
MODEL 4
REMARK VINA RESULT:      -6.2      4.192      5.868
REMARK  Name = 
REMARK  8 active torsions:
REMARK  status: ('A' for Active; 'I' for Inactive)
REMARK    1  A    between atoms: N_1  and  C_2
REMARK    2  A    between atoms: N_10  and  C_11
REMARK    3  A    between atoms: C_11  and  C_12
REMARK    4  A    between atoms: C_12  and  O_13
REMARK    5  A    between atoms: O_13  and  C_14
REMARK    6  A    between atoms: C_14  and  P_15
REMARK    7  A    between atoms: P_15  and  O_17
REMARK    8  A    between atoms: P_15  and  O_18
REMARK                            x       y       z     vdW  Elec       q    Type
REMARK                         _______ _______ _______ _____ _____    ______ ____
ROOT
ATOM      1  C   UNL     1       4.410   2.238  19.591  0.00  0.00    +0.000 A 
ATOM      2  N   UNL     1       3.316   1.710  18.984  0.00  0.00    +0.000 NA
ATOM      3  C   UNL     1       2.655   2.438  18.054  0.00  0.00    +0.000 A 
ATOM      4  C   UNL     1       2.991   3.721  17.650  0.00  0.00    +0.000 A 
ATOM      5  C   UNL     1       4.083   4.273  18.313  0.00  0.00    +0.000 A 
ATOM      6  C   UNL     1       4.800   3.562  19.276  0.00  0.00    +0.000 A 
ATOM      7  N   UNL     1       5.828   4.331  19.789  0.00  0.00    +0.000 NA
ATOM      8  C   UNL     1       5.755   5.475  19.148  0.00  0.00    +0.000 A 
ATOM      9  N   UNL     1       4.716   5.490  18.259  0.00  0.00    +0.000 N 
ENDROOT
BRANCH   1  10
ATOM     10  N   UNL     1       5.081   1.449  20.514  0.00  0.00    +0.000 N 
ATOM     11  H   UNL     1       5.367   1.990  21.318  0.00  0.00    +0.000 HD
ATOM     12  H   UNL     1       5.761   0.834  20.083  0.00  0.00    +0.000 HD
ENDBRANCH   1  10
BRANCH   9  13
ATOM     13  C   UNL     1       4.386   6.589  17.385  0.00  0.00    +0.000 C 
BRANCH  13  14
ATOM     14  C   UNL     1       5.587   7.172  16.643  0.00  0.00    +0.000 C 
BRANCH  14  15
ATOM     15  O   UNL     1       5.432   6.821  15.272  0.00  0.00    +0.000 OA
BRANCH  15  16
ATOM     16  C   UNL     1       5.077   5.446  15.064  0.00  0.00    +0.000 C 
BRANCH  16  17
ATOM     17  P   UNL     1       6.658   4.630  14.816  0.00  0.00    +0.000 P 
ATOM     18  O   UNL     1       7.813   5.489  14.422  0.00  0.00    +0.000 OA
BRANCH  17  19
ATOM     19  O   UNL     1       6.925   3.863  16.202  0.00  0.00    +0.000 OA
ATOM     20  H   UNL     1       6.462   4.314  16.937  0.00  0.00    +0.000 HD
ENDBRANCH  17  19
BRANCH  17  21
ATOM     21  O   UNL     1       6.443   3.389  13.826  0.00  0.00    +0.000 OA
ATOM     22  H   UNL     1       7.144   3.386  13.143  0.00  0.00    +0.000 HD
ENDBRANCH  17  21
ENDBRANCH  16  17
ENDBRANCH  15  16
ENDBRANCH  14  15
ENDBRANCH  13  14
ENDBRANCH   9  13
TORSDOF 8
ENDMDL
MODEL 5
REMARK VINA RESULT:      -6.2      4.104      6.004
REMARK  Name = 
REMARK  8 active torsions:
REMARK  status: ('A' for Active; 'I' for Inactive)
REMARK    1  A    between atoms: N_1  and  C_2
REMARK    2  A    between atoms: N_10  and  C_11
REMARK    3  A    between atoms: C_11  and  C_12
REMARK    4  A    between atoms: C_12  and  O_13
REMARK    5  A    between atoms: O_13  and  C_14
REMARK    6  A    between atoms: C_14  and  P_15
REMARK    7  A    between atoms: P_15  and  O_17
REMARK    8  A    between atoms: P_15  and  O_18
REMARK                            x       y       z     vdW  Elec       q    Type
REMARK                         _______ _______ _______ _____ _____    ______ ____
ROOT
ATOM      1  C   UNL     1       1.461   3.150  20.339  0.00  0.00    +0.000 A 
ATOM      2  N   UNL     1       1.481   2.212  19.358  0.00  0.00    +0.000 NA
ATOM      3  C   UNL     1       1.852   2.567  18.106  0.00  0.00    +0.000 A 
ATOM      4  C   UNL     1       2.219   3.844  17.707  0.00  0.00    +0.000 A 
ATOM      5  C   UNL     1       2.147   4.808  18.709  0.00  0.00    +0.000 A 
ATOM      6  C   UNL     1       1.775   4.492  20.015  0.00  0.00    +0.000 A 
ATOM      7  N   UNL     1       1.774   5.622  20.812  0.00  0.00    +0.000 NA
ATOM      8  C   UNL     1       2.150   6.601  20.021  0.00  0.00    +0.000 A 
ATOM      9  N   UNL     1       2.375   6.161  18.746  0.00  0.00    +0.000 N 
ENDROOT
BRANCH   1  10
ATOM     10  N   UNL     1       1.109   2.741  21.617  0.00  0.00    +0.000 N 
ATOM     11  H   UNL     1       0.167   2.373  21.636  0.00  0.00    +0.000 HD
ATOM     12  H   UNL     1       1.378   3.407  22.330  0.00  0.00    +0.000 HD
ENDBRANCH   1  10
BRANCH   9  13
ATOM     13  C   UNL     1       2.824   6.986  17.650  0.00  0.00    +0.000 C 
BRANCH  13  14
ATOM     14  C   UNL     1       4.338   7.186  17.606  0.00  0.00    +0.000 C 
BRANCH  14  15
ATOM     15  O   UNL     1       4.866   6.149  16.787  0.00  0.00    +0.000 OA
BRANCH  15  16
ATOM     16  C   UNL     1       5.660   5.193  17.505  0.00  0.00    +0.000 C 
BRANCH  16  17
ATOM     17  P   UNL     1       6.865   4.643  16.292  0.00  0.00    +0.000 P 
ATOM     18  O   UNL     1       7.330   5.646  15.290  0.00  0.00    +0.000 OA
BRANCH  17  19
ATOM     19  O   UNL     1       8.079   4.070  17.177  0.00  0.00    +0.000 OA
ATOM     20  H   UNL     1       7.776   3.879  18.088  0.00  0.00    +0.000 HD
ENDBRANCH  17  19
BRANCH  17  21
ATOM     21  O   UNL     1       6.330   3.293  15.614  0.00  0.00    +0.000 OA
ATOM     22  H   UNL     1       6.978   2.574  15.755  0.00  0.00    +0.000 HD
ENDBRANCH  17  21
ENDBRANCH  16  17
ENDBRANCH  15  16
ENDBRANCH  14  15
ENDBRANCH  13  14
ENDBRANCH   9  13
TORSDOF 8
ENDMDL
MODEL 6
REMARK VINA RESULT:      -6.1      3.768      5.780
REMARK  Name = 
REMARK  8 active torsions:
REMARK  status: ('A' for Active; 'I' for Inactive)
REMARK    1  A    between atoms: N_1  and  C_2
REMARK    2  A    between atoms: N_10  and  C_11
REMARK    3  A    between atoms: C_11  and  C_12
REMARK    4  A    between atoms: C_12  and  O_13
REMARK    5  A    between atoms: O_13  and  C_14
REMARK    6  A    between atoms: C_14  and  P_15
REMARK    7  A    between atoms: P_15  and  O_17
REMARK    8  A    between atoms: P_15  and  O_18
REMARK                            x       y       z     vdW  Elec       q    Type
REMARK                         _______ _______ _______ _____ _____    ______ ____
ROOT
ATOM      1  C   UNL     1       2.217   3.692  20.839  0.00  0.00    +0.000 A 
ATOM      2  N   UNL     1       1.767   4.954  21.057  0.00  0.00    +0.000 NA
ATOM      3  C   UNL     1       2.003   5.914  20.133  0.00  0.00    +0.000 A 
ATOM      4  C   UNL     1       2.693   5.732  18.943  0.00  0.00    +0.000 A 
ATOM      5  C   UNL     1       3.193   4.447  18.752  0.00  0.00    +0.000 A 
ATOM      6  C   UNL     1       2.973   3.423  19.673  0.00  0.00    +0.000 A 
ATOM      7  N   UNL     1       3.578   2.251  19.257  0.00  0.00    +0.000 NA
ATOM      8  C   UNL     1       4.140   2.543  18.107  0.00  0.00    +0.000 A 
ATOM      9  N   UNL     1       3.944   3.854  17.768  0.00  0.00    +0.000 N 
ENDROOT
BRANCH   1  10
ATOM     10  N   UNL     1       1.925   2.728  21.793  0.00  0.00    +0.000 N 
ATOM     11  H   UNL     1       1.003   2.866  22.182  0.00  0.00    +0.000 HD
ATOM     12  H   UNL     1       2.695   2.563  22.431  0.00  0.00    +0.000 HD
ENDBRANCH   1  10
BRANCH   9  13
ATOM     13  C   UNL     1       4.412   4.477  16.553  0.00  0.00    +0.000 C 
BRANCH  13  14
ATOM     14  C   UNL     1       5.818   4.047  16.139  0.00  0.00    +0.000 C 
BRANCH  14  15
ATOM     15  O   UNL     1       6.714   5.023  16.658  0.00  0.00    +0.000 OA
BRANCH  15  16
ATOM     16  C   UNL     1       7.650   4.499  17.612  0.00  0.00    +0.000 C 
BRANCH  16  17
ATOM     17  P   UNL     1       7.669   5.735  18.915  0.00  0.00    +0.000 P 
ATOM     18  O   UNL     1       7.991   7.137  18.519  0.00  0.00    +0.000 OA
BRANCH  17  19
ATOM     19  O   UNL     1       6.213   5.619  19.586  0.00  0.00    +0.000 OA
ATOM     20  H   UNL     1       5.862   6.508  19.796  0.00  0.00    +0.000 HD
ENDBRANCH  17  19
BRANCH  17  21
ATOM     21  O   UNL     1       8.591   5.202  20.112  0.00  0.00    +0.000 OA
ATOM     22  H   UNL     1       9.487   5.587  20.036  0.00  0.00    +0.000 HD
ENDBRANCH  17  21
ENDBRANCH  16  17
ENDBRANCH  15  16
ENDBRANCH  14  15
ENDBRANCH  13  14
ENDBRANCH   9  13
TORSDOF 8
ENDMDL
MODEL 7
REMARK VINA RESULT:      -6.1      1.750      2.456
REMARK  Name = 
REMARK  8 active torsions:
REMARK  status: ('A' for Active; 'I' for Inactive)
REMARK    1  A    between atoms: N_1  and  C_2
REMARK    2  A    between atoms: N_10  and  C_11
REMARK    3  A    between atoms: C_11  and  C_12
REMARK    4  A    between atoms: C_12  and  O_13
REMARK    5  A    between atoms: O_13  and  C_14
REMARK    6  A    between atoms: C_14  and  P_15
REMARK    7  A    between atoms: P_15  and  O_17
REMARK    8  A    between atoms: P_15  and  O_18
REMARK                            x       y       z     vdW  Elec       q    Type
REMARK                         _______ _______ _______ _____ _____    ______ ____
ROOT
ATOM      1  C   UNL     1       7.690   5.120  13.334  0.00  0.00    +0.000 A 
ATOM      2  N   UNL     1       7.222   4.348  12.321  0.00  0.00    +0.000 NA
ATOM      3  C   UNL     1       6.122   3.585  12.520  0.00  0.00    +0.000 A 
ATOM      4  C   UNL     1       5.403   3.504  13.704  0.00  0.00    +0.000 A 
ATOM      5  C   UNL     1       5.921   4.261  14.750  0.00  0.00    +0.000 A 
ATOM      6  C   UNL     1       7.049   5.066  14.594  0.00  0.00    +0.000 A 
ATOM      7  N   UNL     1       7.363   5.706  15.780  0.00  0.00    +0.000 NA
ATOM      8  C   UNL     1       6.445   5.317  16.634  0.00  0.00    +0.000 A 
ATOM      9  N   UNL     1       5.563   4.441  16.063  0.00  0.00    +0.000 N 
ENDROOT
BRANCH   1  10
ATOM     10  N   UNL     1       8.800   5.914  13.081  0.00  0.00    +0.000 N 
ATOM     11  H   UNL     1       8.732   6.359  12.176  0.00  0.00    +0.000 HD
ATOM     12  H   UNL     1       9.671   5.460  13.327  0.00  0.00    +0.000 HD
ENDBRANCH   1  10
BRANCH   9  13
ATOM     13  C   UNL     1       4.426   3.854  16.731  0.00  0.00    +0.000 C 
BRANCH  13  14
ATOM     14  C   UNL     1       3.874   4.701  17.876  0.00  0.00    +0.000 C 
BRANCH  14  15
ATOM     15  O   UNL     1       2.866   3.924  18.512  0.00  0.00    +0.000 OA
BRANCH  15  16
ATOM     16  C   UNL     1       3.305   3.283  19.719  0.00  0.00    +0.000 C 
BRANCH  16  17
ATOM     17  P   UNL     1       2.071   3.766  20.932  0.00  0.00    +0.000 P 
ATOM     18  O   UNL     1       2.092   3.057  22.244  0.00  0.00    +0.000 OA
BRANCH  17  19
ATOM     19  O   UNL     1       2.287   5.350  21.101  0.00  0.00    +0.000 OA
ATOM     20  H   UNL     1       2.343   5.588  22.049  0.00  0.00    +0.000 HD
ENDBRANCH  17  19
BRANCH  17  21
ATOM     21  O   UNL     1       0.629   3.737  20.234  0.00  0.00    +0.000 OA
ATOM     22  H   UNL     1       0.351   4.648  20.012  0.00  0.00    +0.000 HD
ENDBRANCH  17  21
ENDBRANCH  16  17
ENDBRANCH  15  16
ENDBRANCH  14  15
ENDBRANCH  13  14
ENDBRANCH   9  13
TORSDOF 8
ENDMDL
MODEL 8
REMARK VINA RESULT:      -6.1      3.582      5.441
REMARK  Name = 
REMARK  8 active torsions:
REMARK  status: ('A' for Active; 'I' for Inactive)
REMARK    1  A    between atoms: N_1  and  C_2
REMARK    2  A    between atoms: N_10  and  C_11
REMARK    3  A    between atoms: C_11  and  C_12
REMARK    4  A    between atoms: C_12  and  O_13
REMARK    5  A    between atoms: O_13  and  C_14
REMARK    6  A    between atoms: C_14  and  P_15
REMARK    7  A    between atoms: P_15  and  O_17
REMARK    8  A    between atoms: P_15  and  O_18
REMARK                            x       y       z     vdW  Elec       q    Type
REMARK                         _______ _______ _______ _____ _____    ______ ____
ROOT
ATOM      1  C   UNL     1       1.678   3.472  19.407  0.00  0.00    +0.000 A 
ATOM      2  N   UNL     1       1.931   2.201  19.004  0.00  0.00    +0.000 NA
ATOM      3  C   UNL     1       2.875   1.977  18.061  0.00  0.00    +0.000 A 
ATOM      4  C   UNL     1       3.632   2.955  17.433  0.00  0.00    +0.000 A 
ATOM      5  C   UNL     1       3.330   4.258  17.817  0.00  0.00    +0.000 A 
ATOM      6  C   UNL     1       2.369   4.541  18.788  0.00  0.00    +0.000 A 
ATOM      7  N   UNL     1       2.253   5.905  18.980  0.00  0.00    +0.000 NA
ATOM      8  C   UNL     1       3.128   6.444  18.163  0.00  0.00    +0.000 A 
ATOM      9  N   UNL     1       3.791   5.494  17.436  0.00  0.00    +0.000 N 
ENDROOT
BRANCH   1  10
ATOM     10  N   UNL     1       0.728   3.658  20.400  0.00  0.00    +0.000 N 
ATOM     11  H   UNL     1       0.542   4.640  20.549  0.00  0.00    +0.000 HD
ATOM     12  H   UNL     1       0.889   3.073  21.212  0.00  0.00    +0.000 HD
ENDBRANCH   1  10
BRANCH   9  13
ATOM     13  C   UNL     1       4.832   5.762  16.473  0.00  0.00    +0.000 C 
BRANCH  13  14
ATOM     14  C   UNL     1       5.664   7.004  16.788  0.00  0.00    +0.000 C 
BRANCH  14  15
ATOM     15  O   UNL     1       7.018   6.576  16.889  0.00  0.00    +0.000 OA
BRANCH  15  16
ATOM     16  C   UNL     1       7.638   6.908  18.139  0.00  0.00    +0.000 C 
BRANCH  16  17
ATOM     17  P   UNL     1       7.637   5.356  19.043  0.00  0.00    +0.000 P 
ATOM     18  O   UNL     1       8.715   5.155  20.054  0.00  0.00    +0.000 OA
BRANCH  17  19
ATOM     19  O   UNL     1       6.173   5.288  19.703  0.00  0.00    +0.000 OA
ATOM     20  H   UNL     1       5.696   4.491  19.395  0.00  0.00    +0.000 HD
ENDBRANCH  17  19
BRANCH  17  21
ATOM     21  O   UNL     1       7.543   4.152  17.990  0.00  0.00    +0.000 OA
ATOM     22  H   UNL     1       8.215   3.473  18.204  0.00  0.00    +0.000 HD
ENDBRANCH  17  21
ENDBRANCH  16  17
ENDBRANCH  15  16
ENDBRANCH  14  15
ENDBRANCH  13  14
ENDBRANCH   9  13
TORSDOF 8
ENDMDL
MODEL 9
REMARK VINA RESULT:      -6.1      2.016      3.000
REMARK  Name = 
REMARK  8 active torsions:
REMARK  status: ('A' for Active; 'I' for Inactive)
REMARK    1  A    between atoms: N_1  and  C_2
REMARK    2  A    between atoms: N_10  and  C_11
REMARK    3  A    between atoms: C_11  and  C_12
REMARK    4  A    between atoms: C_12  and  O_13
REMARK    5  A    between atoms: O_13  and  C_14
REMARK    6  A    between atoms: C_14  and  P_15
REMARK    7  A    between atoms: P_15  and  O_17
REMARK    8  A    between atoms: P_15  and  O_18
REMARK                            x       y       z     vdW  Elec       q    Type
REMARK                         _______ _______ _______ _____ _____    ______ ____
ROOT
ATOM      1  C   UNL     1       7.795   5.154  13.222  0.00  0.00    +0.000 A 
ATOM      2  N   UNL     1       7.321   4.360  12.229  0.00  0.00    +0.000 NA
ATOM      3  C   UNL     1       6.208   3.620  12.443  0.00  0.00    +0.000 A 
ATOM      4  C   UNL     1       5.482   3.583  13.624  0.00  0.00    +0.000 A 
ATOM      5  C   UNL     1       6.004   4.362  14.652  0.00  0.00    +0.000 A 
ATOM      6  C   UNL     1       7.145   5.146  14.480  0.00  0.00    +0.000 A 
ATOM      7  N   UNL     1       7.461   5.815  15.648  0.00  0.00    +0.000 NA
ATOM      8  C   UNL     1       6.533   5.465  16.508  0.00  0.00    +0.000 A 
ATOM      9  N   UNL     1       5.642   4.586  15.957  0.00  0.00    +0.000 N 
ENDROOT
BRANCH   1  10
ATOM     10  N   UNL     1       8.917   5.924  12.954  0.00  0.00    +0.000 N 
ATOM     11  H   UNL     1       9.415   6.154  13.803  0.00  0.00    +0.000 HD
ATOM     12  H   UNL     1       8.734   6.667  12.290  0.00  0.00    +0.000 HD
ENDBRANCH   1  10
BRANCH   9  13
ATOM     13  C   UNL     1       4.492   4.035  16.634  0.00  0.00    +0.000 C 
BRANCH  13  14
ATOM     14  C   UNL     1       4.742   3.695  18.102  0.00  0.00    +0.000 C 
BRANCH  14  15
ATOM     15  O   UNL     1       3.642   4.221  18.837  0.00  0.00    +0.000 OA
BRANCH  15  16
ATOM     16  C   UNL     1       3.009   3.262  19.697  0.00  0.00    +0.000 C 
BRANCH  16  17
ATOM     17  P   UNL     1       1.407   2.994  18.931  0.00  0.00    +0.000 P 
ATOM     18  O   UNL     1       1.102   3.777  17.698  0.00  0.00    +0.000 OA
BRANCH  17  19
ATOM     19  O   UNL     1       1.361   1.410  18.664  0.00  0.00    +0.000 OA
ATOM     20  H   UNL     1       1.510   1.219  17.715  0.00  0.00    +0.000 HD
ENDBRANCH  17  19
BRANCH  17  21
ATOM     21  O   UNL     1       0.273   3.139  20.052  0.00  0.00    +0.000 OA
ATOM     22  H   UNL     1       0.563   2.695  20.875  0.00  0.00    +0.000 HD
ENDBRANCH  17  21
ENDBRANCH  16  17
ENDBRANCH  15  16
ENDBRANCH  14  15
ENDBRANCH  13  14
ENDBRANCH   9  13
TORSDOF 8
ENDMDL
