MODEL 1
REMARK VINA RESULT:      -7.4      0.000      0.000
REMARK  Name = 
REMARK  3 active torsions:
REMARK  status: ('A' for Active; 'I' for Inactive)
REMARK    1  A    between atoms: N_8  and  C_9
REMARK    2  A    between atoms: C_9  and  C_10
REMARK    3  A    between atoms: C_15  and  N_16
REMARK                            x       y       z     vdW  Elec       q    Type
REMARK                         _______ _______ _______ _____ _____    ______ ____
ROOT
ATOM      1  C   UNL     1       4.236   4.159  17.871  0.00  0.00    +0.000 C 
ENDROOT
BRANCH   1   9
ATOM      2  O   UNL     1       4.339   2.086  19.705  0.00  0.00    +0.000 OA
ATOM      3  C   UNL     1       3.495   2.965  19.874  0.00  0.00    +0.000 C 
ATOM      4  C   UNL     1       2.564   2.890  21.063  0.00  0.00    +0.000 C 
ATOM      5  C   UNL     1       1.270   3.625  20.794  0.00  0.00    +0.000 C 
ATOM      6  C   UNL     1       1.598   5.066  20.476  0.00  0.00    +0.000 C 
ATOM      7  C   UNL     1       2.522   5.168  19.284  0.00  0.00    +0.000 C 
ATOM      8  O   UNL     1       2.529   6.192  18.601  0.00  0.00    +0.000 OA
ATOM      9  N   UNL     1       3.367   4.083  19.049  0.00  0.00    +0.000 N 
ENDBRANCH   1   9
BRANCH   1  10
ATOM     10  C   UNL     1       5.496   5.009  18.048  0.00  0.00    +0.000 A 
ATOM     11  C   UNL     1       6.148   5.067  19.301  0.00  0.00    +0.000 A 
ATOM     12  C   UNL     1       7.328   5.793  19.489  0.00  0.00    +0.000 A 
ATOM     13  C   UNL     1       7.890   6.497  18.435  0.00  0.00    +0.000 A 
ATOM     14  C   UNL     1       7.260   6.495  17.193  0.00  0.00    +0.000 A 
ATOM     15  C   UNL     1       6.067   5.765  16.992  0.00  0.00    +0.000 A 
BRANCH  15  16
ATOM     16  N   UNL     1       5.460   5.855  15.643  0.00  0.00    +0.000 N 
ATOM     17  O   UNL     1       4.992   6.936  15.269  0.00  0.00    +0.000 OA
ATOM     18  O   UNL     1       5.464   4.831  14.941  0.00  0.00    +0.000 OA
ENDBRANCH  15  16
ENDBRANCH   1  10
TORSDOF 3
ENDMDL
MODEL 2
REMARK VINA RESULT:      -7.4      2.215      2.704
REMARK  Name = 
REMARK  3 active torsions:
REMARK  status: ('A' for Active; 'I' for Inactive)
REMARK    1  A    between atoms: N_8  and  C_9
REMARK    2  A    between atoms: C_9  and  C_10
REMARK    3  A    between atoms: C_15  and  N_16
REMARK                            x       y       z     vdW  Elec       q    Type
REMARK                         _______ _______ _______ _____ _____    ______ ____
ROOT
ATOM      1  C   UNL     1       4.777   4.971  18.841  0.00  0.00    +0.000 C 
ENDROOT
BRANCH   1   9
ATOM      2  O   UNL     1       4.837   2.461  20.008  0.00  0.00    +0.000 OA
ATOM      3  C   UNL     1       3.761   2.870  19.573  0.00  0.00    +0.000 C 
ATOM      4  C   UNL     1       2.526   2.006  19.697  0.00  0.00    +0.000 C 
ATOM      5  C   UNL     1       1.513   2.340  18.626  0.00  0.00    +0.000 C 
ATOM      6  C   UNL     1       1.146   3.801  18.756  0.00  0.00    +0.000 C 
ATOM      7  C   UNL     1       2.364   4.687  18.626  0.00  0.00    +0.000 C 
ATOM      8  O   UNL     1       2.237   5.850  18.243  0.00  0.00    +0.000 OA
ATOM      9  N   UNL     1       3.588   4.131  19.002  0.00  0.00    +0.000 N 
ENDBRANCH   1   9
BRANCH   1  10
ATOM     10  C   UNL     1       5.512   4.806  17.509  0.00  0.00    +0.000 A 
ATOM     11  C   UNL     1       4.859   4.218  16.402  0.00  0.00    +0.000 A 
ATOM     12  C   UNL     1       5.480   4.096  15.155  0.00  0.00    +0.000 A 
ATOM     13  C   UNL     1       6.780   4.543  14.975  0.00  0.00    +0.000 A 
ATOM     14  C   UNL     1       7.471   5.096  16.049  0.00  0.00    +0.000 A 
ATOM     15  C   UNL     1       6.854   5.225  17.314  0.00  0.00    +0.000 A 
BRANCH  15  16
ATOM     16  N   UNL     1       7.686   5.797  18.398  0.00  0.00    +0.000 N 
ATOM     17  O   UNL     1       7.913   7.012  18.399  0.00  0.00    +0.000 OA
ATOM     18  O   UNL     1       8.107   5.021  19.270  0.00  0.00    +0.000 OA
ENDBRANCH  15  16
ENDBRANCH   1  10
TORSDOF 3
ENDMDL
MODEL 3
REMARK VINA RESULT:      -7.4      2.060      3.207
REMARK  Name = 
REMARK  3 active torsions:
REMARK  status: ('A' for Active; 'I' for Inactive)
REMARK    1  A    between atoms: N_8  and  C_9
REMARK    2  A    between atoms: C_9  and  C_10
REMARK    3  A    between atoms: C_15  and  N_16
REMARK                            x       y       z     vdW  Elec       q    Type
REMARK                         _______ _______ _______ _____ _____    ______ ____
ROOT
ATOM      1  C   UNL     1       4.884   5.114  19.445  0.00  0.00    +0.000 C 
ENDROOT
BRANCH   1   9
ATOM      2  O   UNL     1       2.391   6.299  19.213  0.00  0.00    +0.000 OA
ATOM      3  C   UNL     1       2.444   5.140  19.623  0.00  0.00    +0.000 C 
ATOM      4  C   UNL     1       1.166   4.412  19.973  0.00  0.00    +0.000 C 
ATOM      5  C   UNL     1       1.416   3.323  20.991  0.00  0.00    +0.000 C 
ATOM      6  C   UNL     1       2.430   2.358  20.420  0.00  0.00    +0.000 C 
ATOM      7  C   UNL     1       3.721   3.063  20.071  0.00  0.00    +0.000 C 
ATOM      8  O   UNL     1       4.776   2.429  20.045  0.00  0.00    +0.000 OA
ATOM      9  N   UNL     1       3.630   4.416  19.745  0.00  0.00    +0.000 N 
ENDBRANCH   1   9
BRANCH   1  10
ATOM     10  C   UNL     1       5.423   4.899  18.029  0.00  0.00    +0.000 A 
ATOM     11  C   UNL     1       4.601   4.329  17.031  0.00  0.00    +0.000 A 
ATOM     12  C   UNL     1       5.041   4.163  15.715  0.00  0.00    +0.000 A 
ATOM     13  C   UNL     1       6.323   4.547  15.353  0.00  0.00    +0.000 A 
ATOM     14  C   UNL     1       7.177   5.082  16.314  0.00  0.00    +0.000 A 
ATOM     15  C   UNL     1       6.743   5.254  17.647  0.00  0.00    +0.000 A 
BRANCH  15  16
ATOM     16  N   UNL     1       7.739   5.800  18.599  0.00  0.00    +0.000 N 
ATOM     17  O   UNL     1       8.028   7.001  18.539  0.00  0.00    +0.000 OA
ATOM     18  O   UNL     1       8.229   5.019  19.429  0.00  0.00    +0.000 OA
ENDBRANCH  15  16
ENDBRANCH   1  10
TORSDOF 3
ENDMDL
MODEL 4
REMARK VINA RESULT:      -7.4      0.502      2.092
REMARK  Name = 
REMARK  3 active torsions:
REMARK  status: ('A' for Active; 'I' for Inactive)
REMARK    1  A    between atoms: N_8  and  C_9
REMARK    2  A    between atoms: C_9  and  C_10
REMARK    3  A    between atoms: C_15  and  N_16
REMARK                            x       y       z     vdW  Elec       q    Type
REMARK                         _______ _______ _______ _____ _____    ______ ____
ROOT
ATOM      1  C   UNL     1       4.617   3.853  17.822  0.00  0.00    +0.000 C 
ENDROOT
BRANCH   1   9
ATOM      2  O   UNL     1       2.347   5.437  17.892  0.00  0.00    +0.000 OA
ATOM      3  C   UNL     1       2.551   4.678  18.839  0.00  0.00    +0.000 C 
ATOM      4  C   UNL     1       1.566   4.630  19.984  0.00  0.00    +0.000 C 
ATOM      5  C   UNL     1       2.232   4.171  21.262  0.00  0.00    +0.000 C 
ATOM      6  C   UNL     1       2.827   2.802  21.025  0.00  0.00    +0.000 C 
ATOM      7  C   UNL     1       3.823   2.827  19.888  0.00  0.00    +0.000 C 
ATOM      8  O   UNL     1       4.722   1.986  19.844  0.00  0.00    +0.000 OA
ATOM      9  N   UNL     1       3.632   3.798  18.905  0.00  0.00    +0.000 N 
ENDBRANCH   1   9
BRANCH   1  10
ATOM     10  C   UNL     1       5.749   4.862  18.025  0.00  0.00    +0.000 A 
ATOM     11  C   UNL     1       6.389   4.974  19.280  0.00  0.00    +0.000 A 
ATOM     12  C   UNL     1       7.459   5.848  19.491  0.00  0.00    +0.000 A 
ATOM     13  C   UNL     1       7.918   6.652  18.459  0.00  0.00    +0.000 A 
ATOM     14  C   UNL     1       7.293   6.598  17.216  0.00  0.00    +0.000 A 
ATOM     15  C   UNL     1       6.211   5.718  16.992  0.00  0.00    +0.000 A 
BRANCH  15  16
ATOM     16  N   UNL     1       5.595   5.761  15.644  0.00  0.00    +0.000 N 
ATOM     17  O   UNL     1       5.669   4.761  14.921  0.00  0.00    +0.000 OA
ATOM     18  O   UNL     1       5.015   6.806  15.311  0.00  0.00    +0.000 OA
ENDBRANCH  15  16
ENDBRANCH   1  10
TORSDOF 3
ENDMDL
MODEL 5
REMARK VINA RESULT:      -7.3      1.555      5.086
REMARK  Name = 
REMARK  3 active torsions:
REMARK  status: ('A' for Active; 'I' for Inactive)
REMARK    1  A    between atoms: N_8  and  C_9
REMARK    2  A    between atoms: C_9  and  C_10
REMARK    3  A    between atoms: C_15  and  N_16
REMARK                            x       y       z     vdW  Elec       q    Type
REMARK                         _______ _______ _______ _____ _____    ______ ____
ROOT
ATOM      1  C   UNL     1       4.273   4.907  17.250  0.00  0.00    +0.000 C 
ENDROOT
BRANCH   1   9
ATOM      2  O   UNL     1       5.989   3.945  19.200  0.00  0.00    +0.000 OA
ATOM      3  C   UNL     1       6.355   4.913  18.534  0.00  0.00    +0.000 C 
ATOM      4  C   UNL     1       7.712   5.529  18.793  0.00  0.00    +0.000 C 
ATOM      5  C   UNL     1       7.742   6.983  18.380  0.00  0.00    +0.000 C 
ATOM      6  C   UNL     1       7.398   7.070  16.911  0.00  0.00    +0.000 C 
ATOM      7  C   UNL     1       6.041   6.468  16.628  0.00  0.00    +0.000 C 
ATOM      8  O   UNL     1       5.399   6.841  15.646  0.00  0.00    +0.000 OA
ATOM      9  N   UNL     1       5.605   5.465  17.495  0.00  0.00    +0.000 N 
ENDBRANCH   1   9
BRANCH   1  10
ATOM     10  C   UNL     1       3.298   5.013  18.425  0.00  0.00    +0.000 A 
ATOM     11  C   UNL     1       3.086   6.255  19.065  0.00  0.00    +0.000 A 
ATOM     12  C   UNL     1       2.167   6.403  20.109  0.00  0.00    +0.000 A 
ATOM     13  C   UNL     1       1.440   5.311  20.559  0.00  0.00    +0.000 A 
ATOM     14  C   UNL     1       1.644   4.063  19.978  0.00  0.00    +0.000 A 
ATOM     15  C   UNL     1       2.570   3.902  18.923  0.00  0.00    +0.000 A 
BRANCH  15  16
ATOM     16  N   UNL     1       2.737   2.526  18.397  0.00  0.00    +0.000 N 
ATOM     17  O   UNL     1       3.519   1.759  18.970  0.00  0.00    +0.000 OA
ATOM     18  O   UNL     1       2.065   2.204  17.405  0.00  0.00    +0.000 OA
ENDBRANCH  15  16
ENDBRANCH   1  10
TORSDOF 3
ENDMDL
MODEL 6
REMARK VINA RESULT:      -7.3      1.433      2.007
REMARK  Name = 
REMARK  3 active torsions:
REMARK  status: ('A' for Active; 'I' for Inactive)
REMARK    1  A    between atoms: N_8  and  C_9
REMARK    2  A    between atoms: C_9  and  C_10
REMARK    3  A    between atoms: C_15  and  N_16
REMARK                            x       y       z     vdW  Elec       q    Type
REMARK                         _______ _______ _______ _____ _____    ______ ____
ROOT
ATOM      1  C   UNL     1       3.298   5.706  17.734  0.00  0.00    +0.000 C 
ENDROOT
BRANCH   1   9
ATOM      2  O   UNL     1       2.154   6.346  20.173  0.00  0.00    +0.000 OA
ATOM      3  C   UNL     1       1.985   5.208  19.737  0.00  0.00    +0.000 C 
ATOM      4  C   UNL     1       1.163   4.218  20.530  0.00  0.00    +0.000 C 
ATOM      5  C   UNL     1       1.559   2.795  20.209  0.00  0.00    +0.000 C 
ATOM      6  C   UNL     1       1.365   2.569  18.726  0.00  0.00    +0.000 C 
ATOM      7  C   UNL     1       2.184   3.543  17.911  0.00  0.00    +0.000 C 
ATOM      8  O   UNL     1       2.528   3.245  16.767  0.00  0.00    +0.000 OA
ATOM      9  N   UNL     1       2.470   4.773  18.504  0.00  0.00    +0.000 N 
ENDBRANCH   1   9
BRANCH   1  10
ATOM     10  C   UNL     1       4.807   5.552  17.936  0.00  0.00    +0.000 A 
ATOM     11  C   UNL     1       5.345   5.434  19.237  0.00  0.00    +0.000 A 
ATOM     12  C   UNL     1       6.711   5.242  19.460  0.00  0.00    +0.000 A 
ATOM     13  C   UNL     1       7.591   5.177  18.390  0.00  0.00    +0.000 A 
ATOM     14  C   UNL     1       7.107   5.324  17.093  0.00  0.00    +0.000 A 
ATOM     15  C   UNL     1       5.728   5.518  16.856  0.00  0.00    +0.000 A 
BRANCH  15  16
ATOM     16  N   UNL     1       5.320   5.697  15.443  0.00  0.00    +0.000 N 
ATOM     17  O   UNL     1       5.135   6.841  15.014  0.00  0.00    +0.000 OA
ATOM     18  O   UNL     1       5.198   4.677  14.746  0.00  0.00    +0.000 OA
ENDBRANCH  15  16
ENDBRANCH   1  10
TORSDOF 3
ENDMDL
MODEL 7
REMARK VINA RESULT:      -7.3      1.984      2.764
REMARK  Name = 
REMARK  3 active torsions:
REMARK  status: ('A' for Active; 'I' for Inactive)
REMARK    1  A    between atoms: N_8  and  C_9
REMARK    2  A    between atoms: C_9  and  C_10
REMARK    3  A    between atoms: C_15  and  N_16
REMARK                            x       y       z     vdW  Elec       q    Type
REMARK                         _______ _______ _______ _____ _____    ______ ____
ROOT
ATOM      1  C   UNL     1       3.900   3.340  17.687  0.00  0.00    +0.000 C 
ENDROOT
BRANCH   1   9
ATOM      2  O   UNL     1       1.132   3.314  17.631  0.00  0.00    +0.000 OA
ATOM      3  C   UNL     1       1.689   3.132  18.713  0.00  0.00    +0.000 C 
ATOM      4  C   UNL     1       0.857   2.894  19.952  0.00  0.00    +0.000 C 
ATOM      5  C   UNL     1       1.605   3.302  21.201  0.00  0.00    +0.000 C 
ATOM      6  C   UNL     1       2.889   2.507  21.271  0.00  0.00    +0.000 C 
ATOM      7  C   UNL     1       3.743   2.735  20.045  0.00  0.00    +0.000 C 
ATOM      8  O   UNL     1       4.962   2.576  20.110  0.00  0.00    +0.000 OA
ATOM      9  N   UNL     1       3.075   3.078  18.868  0.00  0.00    +0.000 N 
ENDBRANCH   1   9
BRANCH   1  10
ATOM     10  C   UNL     1       4.228   4.813  17.438  0.00  0.00    +0.000 A 
ATOM     11  C   UNL     1       3.326   5.823  17.841  0.00  0.00    +0.000 A 
ATOM     12  C   UNL     1       3.612   7.182  17.677  0.00  0.00    +0.000 A 
ATOM     13  C   UNL     1       4.804   7.578  17.089  0.00  0.00    +0.000 A 
ATOM     14  C   UNL     1       5.706   6.614  16.646  0.00  0.00    +0.000 A 
ATOM     15  C   UNL     1       5.427   5.238  16.807  0.00  0.00    +0.000 A 
BRANCH  15  16
ATOM     16  N   UNL     1       6.435   4.294  16.272  0.00  0.00    +0.000 N 
ATOM     17  O   UNL     1       6.126   3.564  15.323  0.00  0.00    +0.000 OA
ATOM     18  O   UNL     1       7.559   4.293  16.798  0.00  0.00    +0.000 OA
ENDBRANCH  15  16
ENDBRANCH   1  10
TORSDOF 3
ENDMDL
MODEL 8
REMARK VINA RESULT:      -7.3      2.139      3.294
REMARK  Name = 
REMARK  3 active torsions:
REMARK  status: ('A' for Active; 'I' for Inactive)
REMARK    1  A    between atoms: N_8  and  C_9
REMARK    2  A    between atoms: C_9  and  C_10
REMARK    3  A    between atoms: C_15  and  N_16
REMARK                            x       y       z     vdW  Elec       q    Type
REMARK                         _______ _______ _______ _____ _____    ______ ____
ROOT
ATOM      1  C   UNL     1       4.644   5.457  18.677  0.00  0.00    +0.000 C 
ENDROOT
BRANCH   1   9
ATOM      2  O   UNL     1       1.965   5.852  18.093  0.00  0.00    +0.000 OA
ATOM      3  C   UNL     1       2.274   4.851  18.739  0.00  0.00    +0.000 C 
ATOM      4  C   UNL     1       1.199   3.882  19.176  0.00  0.00    +0.000 C 
ATOM      5  C   UNL     1       1.621   3.116  20.410  0.00  0.00    +0.000 C 
ATOM      6  C   UNL     1       2.900   2.374  20.097  0.00  0.00    +0.000 C 
ATOM      7  C   UNL     1       3.994   3.323  19.666  0.00  0.00    +0.000 C 
ATOM      8  O   UNL     1       5.174   3.008  19.820  0.00  0.00    +0.000 OA
ATOM      9  N   UNL     1       3.590   4.514  19.061  0.00  0.00    +0.000 N 
ENDBRANCH   1   9
BRANCH   1  10
ATOM     10  C   UNL     1       5.411   5.089  17.405  0.00  0.00    +0.000 A 
ATOM     11  C   UNL     1       4.729   4.556  16.289  0.00  0.00    +0.000 A 
ATOM     12  C   UNL     1       5.386   4.254  15.093  0.00  0.00    +0.000 A 
ATOM     13  C   UNL     1       6.753   4.462  14.976  0.00  0.00    +0.000 A 
ATOM     14  C   UNL     1       7.469   4.953  16.064  0.00  0.00    +0.000 A 
ATOM     15  C   UNL     1       6.814   5.261  17.277  0.00  0.00    +0.000 A 
BRANCH  15  16
ATOM     16  N   UNL     1       7.672   5.747  18.384  0.00  0.00    +0.000 N 
ATOM     17  O   UNL     1       8.081   4.936  19.222  0.00  0.00    +0.000 OA
ATOM     18  O   UNL     1       7.952   6.955  18.406  0.00  0.00    +0.000 OA
ENDBRANCH  15  16
ENDBRANCH   1  10
TORSDOF 3
ENDMDL
MODEL 9
REMARK VINA RESULT:      -7.2      1.159      1.190
REMARK  Name = 
REMARK  3 active torsions:
REMARK  status: ('A' for Active; 'I' for Inactive)
REMARK    1  A    between atoms: N_8  and  C_9
REMARK    2  A    between atoms: C_9  and  C_10
REMARK    3  A    between atoms: C_15  and  N_16
REMARK                            x       y       z     vdW  Elec       q    Type
REMARK                         _______ _______ _______ _____ _____    ______ ____
ROOT
ATOM      1  C   UNL     1       3.421   5.514  17.780  0.00  0.00    +0.000 C 
ENDROOT
BRANCH   1   9
ATOM      2  O   UNL     1       3.437   2.764  17.454  0.00  0.00    +0.000 OA
ATOM      3  C   UNL     1       2.752   3.234  18.361  0.00  0.00    +0.000 C 
ATOM      4  C   UNL     1       1.964   2.308  19.259  0.00  0.00    +0.000 C 
ATOM      5  C   UNL     1       0.766   3.011  19.857  0.00  0.00    +0.000 C 
ATOM      6  C   UNL     1       1.257   4.208  20.639  0.00  0.00    +0.000 C 
ATOM      7  C   UNL     1       2.042   5.154  19.760  0.00  0.00    +0.000 C 
ATOM      8  O   UNL     1       2.116   6.346  20.058  0.00  0.00    +0.000 OA
ATOM      9  N   UNL     1       2.692   4.595  18.658  0.00  0.00    +0.000 N 
ENDBRANCH   1   9
BRANCH   1  10
ATOM     10  C   UNL     1       4.939   5.522  17.967  0.00  0.00    +0.000 A 
ATOM     11  C   UNL     1       5.499   5.451  19.262  0.00  0.00    +0.000 A 
ATOM     12  C   UNL     1       6.881   5.407  19.470  0.00  0.00    +0.000 A 
ATOM     13  C   UNL     1       7.752   5.447  18.391  0.00  0.00    +0.000 A 
ATOM     14  C   UNL     1       7.241   5.552  17.100  0.00  0.00    +0.000 A 
ATOM     15  C   UNL     1       5.847   5.598  16.878  0.00  0.00    +0.000 A 
BRANCH  15  16
ATOM     16  N   UNL     1       5.409   5.744  15.470  0.00  0.00    +0.000 N 
ATOM     17  O   UNL     1       5.094   6.866  15.056  0.00  0.00    +0.000 OA
ATOM     18  O   UNL     1       5.393   4.724  14.764  0.00  0.00    +0.000 OA
ENDBRANCH  15  16
ENDBRANCH   1  10
TORSDOF 3
ENDMDL
