MODEL 1
REMARK VINA RESULT:      -7.8      0.000      0.000
REMARK  Name = 
REMARK  12 active torsions:
REMARK  status: ('A' for Active; 'I' for Inactive)
REMARK    1  A    between atoms: C_1  and  C_2
REMARK    2  A    between atoms: C_2  and  N_3
REMARK    3  A    between atoms: N_3  and  C_4
REMARK    4  A    between atoms: C_4  and  C_5
REMARK    5  A    between atoms: C_6  and  C_8
REMARK    6  A    between atoms: C_8  and  S_9
REMARK    7  A    between atoms: S_9  and  C_10
REMARK    8  A    between atoms: C_12  and  C_13
REMARK    9  A    between atoms: C_16  and  C_17
REMARK   10  A    between atoms: C_25  and  C_26
REMARK   11  A    between atoms: C_26  and  O_27
REMARK   12  A    between atoms: C_30  and  C_31
REMARK                            x       y       z     vdW  Elec       q    Type
REMARK                         _______ _______ _______ _____ _____    ______ ____
ROOT
ATOM      1  C   UNL     1       2.565   6.395  20.087  0.00  0.00    +0.000 A 
ATOM      2  N   UNL     1       3.389   5.901  19.163  0.00  0.00    +0.000 NA
ATOM      3  C   UNL     1       3.605   6.659  18.068  0.00  0.00    +0.000 A 
ATOM      4  N   UNL     1       3.077   7.888  17.866  0.00  0.00    +0.000 NA
ATOM      5  C   UNL     1       2.267   8.363  18.838  0.00  0.00    +0.000 A 
ATOM      6  C   UNL     1       1.992   7.648  19.972  0.00  0.00    +0.000 A 
ATOM      7  C   UNL     1       1.082   8.174  21.016  0.00  0.00    +0.000 C 
ATOM      8  C   UNL     1       0.525   9.521  20.721  0.00  0.00    +0.000 A 
ATOM      9  C   UNL     1      -0.333  10.124  21.660  0.00  0.00    +0.000 A 
ATOM     10  C   UNL     1      -0.854  11.364  21.334  0.00  0.00    +0.000 A 
ATOM     11  N   UNL     1      -0.587  12.008  20.178  0.00  0.00    +0.000 NA
ATOM     12  C   UNL     1       0.253  11.413  19.284  0.00  0.00    +0.000 A 
ATOM     13  C   UNL     1       0.488  12.192  18.027  0.00  0.00    +0.000 C 
ATOM     14  C   UNL     1       0.841  10.163  19.522  0.00  0.00    +0.000 A 
ATOM     15  O   UNL     1       1.702   9.614  18.585  0.00  0.00    +0.000 OA
ENDROOT
BRANCH   3  16
ATOM     16  C   UNL     1       4.400   6.024  16.996  0.00  0.00    +0.000 A 
ATOM     17  C   UNL     1       4.699   4.648  17.040  0.00  0.00    +0.000 A 
ATOM     18  C   UNL     1       5.363   3.997  15.988  0.00  0.00    +0.000 A 
ATOM     19  C   UNL     1       5.755   4.720  14.865  0.00  0.00    +0.000 A 
ATOM     20  C   UNL     1       6.441   4.039  13.719  0.00  0.00    +0.000 C 
ATOM     21  C   UNL     1       5.509   6.096  14.819  0.00  0.00    +0.000 A 
ATOM     22  C   UNL     1       4.842   6.738  15.872  0.00  0.00    +0.000 A 
ENDBRANCH   3  16
BRANCH   1  23
ATOM     23  S   UNL     1       2.190   5.376  21.518  0.00  0.00    +0.000 S 
BRANCH  23  24
ATOM     24  C   UNL     1       1.251   3.996  20.799  0.00  0.00    +0.000 C 
BRANCH  24  26
ATOM     25  N   UNL     1       2.140   2.218  19.233  0.00  0.00    +0.000 N 
ATOM     26  C   UNL     1       2.227   2.854  20.486  0.00  0.00    +0.000 C 
ATOM     27  O   UNL     1       3.063   2.513  21.330  0.00  0.00    +0.000 OA
BRANCH  25  29
ATOM     28  C   UNL     1       4.051   1.240  17.903  0.00  0.00    +0.000 C 
ATOM     29  C   UNL     1       3.011   1.055  19.004  0.00  0.00    +0.000 C 
ENDBRANCH  25  29
BRANCH  25  30
ATOM     30  C   UNL     1       1.116   2.623  18.265  0.00  0.00    +0.000 C 
ATOM     31  C   UNL     1       1.318   3.857  17.406  0.00  0.00    +0.000 C 
ENDBRANCH  25  30
ENDBRANCH  24  26
ENDBRANCH  23  24
ENDBRANCH   1  23
BRANCH   9  32
ATOM     32  C   UNL     1      -0.645   9.491  22.990  0.00  0.00    +0.000 C 
BRANCH  32  33
ATOM     33  O   UNL     1       0.386   9.750  23.933  0.00  0.00    +0.000 OA
ATOM     34  H   UNL     1       0.809   8.900  24.147  0.00  0.00    +0.000 HD
ENDBRANCH  32  33
ENDBRANCH   9  32
TORSDOF 8
ENDMDL
MODEL 2
REMARK VINA RESULT:      -7.8      0.972      1.329
REMARK  Name = 
REMARK  12 active torsions:
REMARK  status: ('A' for Active; 'I' for Inactive)
REMARK    1  A    between atoms: C_1  and  C_2
REMARK    2  A    between atoms: C_2  and  N_3
REMARK    3  A    between atoms: N_3  and  C_4
REMARK    4  A    between atoms: C_4  and  C_5
REMARK    5  A    between atoms: C_6  and  C_8
REMARK    6  A    between atoms: C_8  and  S_9
REMARK    7  A    between atoms: S_9  and  C_10
REMARK    8  A    between atoms: C_12  and  C_13
REMARK    9  A    between atoms: C_16  and  C_17
REMARK   10  A    between atoms: C_25  and  C_26
REMARK   11  A    between atoms: C_26  and  O_27
REMARK   12  A    between atoms: C_30  and  C_31
REMARK                            x       y       z     vdW  Elec       q    Type
REMARK                         _______ _______ _______ _____ _____    ______ ____
ROOT
ATOM      1  C   UNL     1       2.595   6.134  19.780  0.00  0.00    +0.000 A 
ATOM      2  N   UNL     1       3.427   5.650  18.857  0.00  0.00    +0.000 NA
ATOM      3  C   UNL     1       3.748   6.467  17.834  0.00  0.00    +0.000 A 
ATOM      4  N   UNL     1       3.318   7.743  17.702  0.00  0.00    +0.000 NA
ATOM      5  C   UNL     1       2.498   8.205  18.672  0.00  0.00    +0.000 A 
ATOM      6  C   UNL     1       2.119   7.431  19.736  0.00  0.00    +0.000 A 
ATOM      7  C   UNL     1       1.199   7.947  20.776  0.00  0.00    +0.000 C 
ATOM      8  C   UNL     1       0.753   9.349  20.561  0.00  0.00    +0.000 A 
ATOM      9  C   UNL     1      -0.105   9.945  21.504  0.00  0.00    +0.000 A 
ATOM     10  C   UNL     1      -0.521  11.239  21.251  0.00  0.00    +0.000 A 
ATOM     11  N   UNL     1      -0.154  11.944  20.159  0.00  0.00    +0.000 NA
ATOM     12  C   UNL     1       0.685  11.354  19.260  0.00  0.00    +0.000 A 
ATOM     13  C   UNL     1       1.034  12.203  18.077  0.00  0.00    +0.000 C 
ATOM     14  C   UNL     1       1.171  10.051  19.428  0.00  0.00    +0.000 A 
ATOM     15  O   UNL     1       2.036   9.509  18.490  0.00  0.00    +0.000 OA
ENDROOT
BRANCH   3  16
ATOM     16  C   UNL     1       4.548   5.853  16.751  0.00  0.00    +0.000 A 
ATOM     17  C   UNL     1       4.842   4.476  16.766  0.00  0.00    +0.000 A 
ATOM     18  C   UNL     1       5.510   3.847  15.703  0.00  0.00    +0.000 A 
ATOM     19  C   UNL     1       5.910   4.595  14.599  0.00  0.00    +0.000 A 
ATOM     20  C   UNL     1       6.601   3.938  13.442  0.00  0.00    +0.000 C 
ATOM     21  C   UNL     1       5.668   5.972  14.582  0.00  0.00    +0.000 A 
ATOM     22  C   UNL     1       4.997   6.591  15.646  0.00  0.00    +0.000 A 
ENDBRANCH   3  16
BRANCH   1  23
ATOM     23  S   UNL     1       2.081   5.045  21.112  0.00  0.00    +0.000 S 
BRANCH  23  24
ATOM     24  C   UNL     1       0.753   4.069  20.349  0.00  0.00    +0.000 C 
BRANCH  24  26
ATOM     25  N   UNL     1       2.317   2.487  19.140  0.00  0.00    +0.000 N 
ATOM     26  C   UNL     1       1.290   3.447  19.052  0.00  0.00    +0.000 C 
ATOM     27  O   UNL     1       0.820   3.796  17.964  0.00  0.00    +0.000 OA
BRANCH  25  29
ATOM     28  C   UNL     1       4.045   1.010  18.040  0.00  0.00    +0.000 C 
ATOM     29  C   UNL     1       2.888   1.992  17.878  0.00  0.00    +0.000 C 
ENDBRANCH  25  29
BRANCH  25  30
ATOM     30  C   UNL     1       2.876   2.118  20.444  0.00  0.00    +0.000 C 
ATOM     31  C   UNL     1       4.361   2.271  20.713  0.00  0.00    +0.000 C 
ENDBRANCH  25  30
ENDBRANCH  24  26
ENDBRANCH  23  24
ENDBRANCH   1  23
BRANCH   9  32
ATOM     32  C   UNL     1      -0.525   9.242  22.768  0.00  0.00    +0.000 C 
BRANCH  32  33
ATOM     33  O   UNL     1       0.271   9.655  23.870  0.00  0.00    +0.000 OA
ATOM     34  H   UNL     1       0.887   8.930  24.077  0.00  0.00    +0.000 HD
ENDBRANCH  32  33
ENDBRANCH   9  32
TORSDOF 8
ENDMDL
MODEL 3
REMARK VINA RESULT:      -7.6      3.627      6.849
REMARK  Name = 
REMARK  12 active torsions:
REMARK  status: ('A' for Active; 'I' for Inactive)
REMARK    1  A    between atoms: C_1  and  C_2
REMARK    2  A    between atoms: C_2  and  N_3
REMARK    3  A    between atoms: N_3  and  C_4
REMARK    4  A    between atoms: C_4  and  C_5
REMARK    5  A    between atoms: C_6  and  C_8
REMARK    6  A    between atoms: C_8  and  S_9
REMARK    7  A    between atoms: S_9  and  C_10
REMARK    8  A    between atoms: C_12  and  C_13
REMARK    9  A    between atoms: C_16  and  C_17
REMARK   10  A    between atoms: C_25  and  C_26
REMARK   11  A    between atoms: C_26  and  O_27
REMARK   12  A    between atoms: C_30  and  C_31
REMARK                            x       y       z     vdW  Elec       q    Type
REMARK                         _______ _______ _______ _____ _____    ______ ____
ROOT
ATOM      1  C   UNL     1      -0.058  10.286  20.315  0.00  0.00    +0.000 A 
ATOM      2  N   UNL     1       1.025   9.553  20.056  0.00  0.00    +0.000 NA
ATOM      3  C   UNL     1       1.116   9.010  18.825  0.00  0.00    +0.000 A 
ATOM      4  N   UNL     1       0.211   9.188  17.836  0.00  0.00    +0.000 NA
ATOM      5  C   UNL     1      -0.859   9.959  18.130  0.00  0.00    +0.000 A 
ATOM      6  C   UNL     1      -1.026  10.536  19.361  0.00  0.00    +0.000 A 
ATOM      7  C   UNL     1      -2.218  11.357  19.673  0.00  0.00    +0.000 C 
ATOM      8  C   UNL     1      -3.179  11.498  18.546  0.00  0.00    +0.000 A 
ATOM      9  C   UNL     1      -4.335  12.279  18.730  0.00  0.00    +0.000 A 
ATOM     10  C   UNL     1      -5.218  12.359  17.667  0.00  0.00    +0.000 A 
ATOM     11  N   UNL     1      -5.029  11.732  16.487  0.00  0.00    +0.000 NA
ATOM     12  C   UNL     1      -3.898  10.987  16.324  0.00  0.00    +0.000 A 
ATOM     13  C   UNL     1      -3.772  10.320  14.989  0.00  0.00    +0.000 C 
ATOM     14  C   UNL     1      -2.937  10.848  17.334  0.00  0.00    +0.000 A 
ATOM     15  O   UNL     1      -1.798  10.092  17.106  0.00  0.00    +0.000 OA
ENDROOT
BRANCH   3  16
ATOM     16  C   UNL     1       2.248   8.082  18.617  0.00  0.00    +0.000 A 
ATOM     17  C   UNL     1       2.458   6.995  19.489  0.00  0.00    +0.000 A 
ATOM     18  C   UNL     1       3.460   6.040  19.259  0.00  0.00    +0.000 A 
ATOM     19  C   UNL     1       4.289   6.162  18.147  0.00  0.00    +0.000 A 
ATOM     20  C   UNL     1       5.348   5.138  17.868  0.00  0.00    +0.000 C 
ATOM     21  C   UNL     1       4.129   7.257  17.292  0.00  0.00    +0.000 A 
ATOM     22  C   UNL     1       3.122   8.204  17.527  0.00  0.00    +0.000 A 
ENDBRANCH   3  16
BRANCH   1  23
ATOM     23  S   UNL     1      -0.251  10.956  21.971  0.00  0.00    +0.000 S 
BRANCH  23  24
ATOM     24  C   UNL     1      -0.086  12.746  21.707  0.00  0.00    +0.000 C 
BRANCH  24  26
ATOM     25  N   UNL     1       1.086  13.721  19.686  0.00  0.00    +0.000 N 
ATOM     26  C   UNL     1       1.190  13.002  20.892  0.00  0.00    +0.000 C 
ATOM     27  O   UNL     1       2.275  12.575  21.301  0.00  0.00    +0.000 OA
BRANCH  25  29
ATOM     28  C   UNL     1       2.616  12.650  17.987  0.00  0.00    +0.000 C 
ATOM     29  C   UNL     1       2.304  13.853  18.872  0.00  0.00    +0.000 C 
ENDBRANCH  25  29
BRANCH  25  30
ATOM     30  C   UNL     1      -0.221  14.186  19.211  0.00  0.00    +0.000 C 
ATOM     31  C   UNL     1      -0.410  15.625  18.771  0.00  0.00    +0.000 C 
ENDBRANCH  25  30
ENDBRANCH  24  26
ENDBRANCH  23  24
ENDBRANCH   1  23
BRANCH   9  32
ATOM     32  C   UNL     1      -4.597  13.045  19.999  0.00  0.00    +0.000 C 
BRANCH  32  33
ATOM     33  O   UNL     1      -3.814  14.229  20.052  0.00  0.00    +0.000 OA
ATOM     34  H   UNL     1      -4.175  14.851  19.396  0.00  0.00    +0.000 HD
ENDBRANCH  32  33
ENDBRANCH   9  32
TORSDOF 8
ENDMDL
MODEL 4
REMARK VINA RESULT:      -7.6      1.057      1.293
REMARK  Name = 
REMARK  12 active torsions:
REMARK  status: ('A' for Active; 'I' for Inactive)
REMARK    1  A    between atoms: C_1  and  C_2
REMARK    2  A    between atoms: C_2  and  N_3
REMARK    3  A    between atoms: N_3  and  C_4
REMARK    4  A    between atoms: C_4  and  C_5
REMARK    5  A    between atoms: C_6  and  C_8
REMARK    6  A    between atoms: C_8  and  S_9
REMARK    7  A    between atoms: S_9  and  C_10
REMARK    8  A    between atoms: C_12  and  C_13
REMARK    9  A    between atoms: C_16  and  C_17
REMARK   10  A    between atoms: C_25  and  C_26
REMARK   11  A    between atoms: C_26  and  O_27
REMARK   12  A    between atoms: C_30  and  C_31
REMARK                            x       y       z     vdW  Elec       q    Type
REMARK                         _______ _______ _______ _____ _____    ______ ____
ROOT
ATOM      1  C   UNL     1       2.315   6.397  19.684  0.00  0.00    +0.000 A 
ATOM      2  N   UNL     1       3.147   5.851  18.797  0.00  0.00    +0.000 NA
ATOM      3  C   UNL     1       3.614   6.655  17.820  0.00  0.00    +0.000 A 
ATOM      4  N   UNL     1       3.329   7.972  17.704  0.00  0.00    +0.000 NA
ATOM      5  C   UNL     1       2.503   8.494  18.638  0.00  0.00    +0.000 A 
ATOM      6  C   UNL     1       1.980   7.738  19.653  0.00  0.00    +0.000 A 
ATOM      7  C   UNL     1       1.057   8.322  20.654  0.00  0.00    +0.000 C 
ATOM      8  C   UNL     1       0.774   9.768  20.457  0.00  0.00    +0.000 A 
ATOM      9  C   UNL     1      -0.073  10.428  21.367  0.00  0.00    +0.000 A 
ATOM     10  C   UNL     1      -0.335  11.765  21.131  0.00  0.00    +0.000 A 
ATOM     11  N   UNL     1       0.170  12.455  20.086  0.00  0.00    +0.000 NA
ATOM     12  C   UNL     1       0.997  11.802  19.220  0.00  0.00    +0.000 A 
ATOM     13  C   UNL     1       1.505  12.639  18.086  0.00  0.00    +0.000 C 
ATOM     14  C   UNL     1       1.332  10.451  19.373  0.00  0.00    +0.000 A 
ATOM     15  O   UNL     1       2.192   9.844  18.471  0.00  0.00    +0.000 OA
ENDROOT
BRANCH   3  16
ATOM     16  C   UNL     1       4.410   5.987  16.767  0.00  0.00    +0.000 A 
ATOM     17  C   UNL     1       4.531   4.585  16.737  0.00  0.00    +0.000 A 
ATOM     18  C   UNL     1       5.193   3.918  15.694  0.00  0.00    +0.000 A 
ATOM     19  C   UNL     1       5.764   4.651  14.657  0.00  0.00    +0.000 A 
ATOM     20  C   UNL     1       6.452   3.957  13.520  0.00  0.00    +0.000 C 
ATOM     21  C   UNL     1       5.695   6.047  14.689  0.00  0.00    +0.000 A 
ATOM     22  C   UNL     1       5.028   6.705  15.732  0.00  0.00    +0.000 A 
ENDBRANCH   3  16
BRANCH   1  23
ATOM     23  S   UNL     1       1.609   5.335  20.948  0.00  0.00    +0.000 S 
BRANCH  23  24
ATOM     24  C   UNL     1       1.793   3.675  20.234  0.00  0.00    +0.000 C 
BRANCH  24  26
ATOM     25  N   UNL     1       3.841   2.235  20.612  0.00  0.00    +0.000 N 
ATOM     26  C   UNL     1       2.695   2.845  21.158  0.00  0.00    +0.000 C 
ATOM     27  O   UNL     1       2.403   2.725  22.353  0.00  0.00    +0.000 OA
BRANCH  25  29
ATOM     28  C   UNL     1       5.568   0.400  20.772  0.00  0.00    +0.000 C 
ATOM     29  C   UNL     1       4.623   1.355  21.494  0.00  0.00    +0.000 C 
ENDBRANCH  25  29
BRANCH  25  30
ATOM     30  C   UNL     1       4.142   2.370  19.184  0.00  0.00    +0.000 C 
ATOM     31  C   UNL     1       3.427   1.503  18.164  0.00  0.00    +0.000 C 
ENDBRANCH  25  30
ENDBRANCH  24  26
ENDBRANCH  23  24
ENDBRANCH   1  23
BRANCH   9  32
ATOM     32  C   UNL     1      -0.641   9.741  22.581  0.00  0.00    +0.000 C 
BRANCH  32  33
ATOM     33  O   UNL     1       0.218   9.893  23.702  0.00  0.00    +0.000 OA
ATOM     34  H   UNL     1      -0.044   9.232  24.366  0.00  0.00    +0.000 HD
ENDBRANCH  32  33
ENDBRANCH   9  32
TORSDOF 8
ENDMDL
MODEL 5
REMARK VINA RESULT:      -7.5      4.257      8.526
REMARK  Name = 
REMARK  12 active torsions:
REMARK  status: ('A' for Active; 'I' for Inactive)
REMARK    1  A    between atoms: C_1  and  C_2
REMARK    2  A    between atoms: C_2  and  N_3
REMARK    3  A    between atoms: N_3  and  C_4
REMARK    4  A    between atoms: C_4  and  C_5
REMARK    5  A    between atoms: C_6  and  C_8
REMARK    6  A    between atoms: C_8  and  S_9
REMARK    7  A    between atoms: S_9  and  C_10
REMARK    8  A    between atoms: C_12  and  C_13
REMARK    9  A    between atoms: C_16  and  C_17
REMARK   10  A    between atoms: C_25  and  C_26
REMARK   11  A    between atoms: C_26  and  O_27
REMARK   12  A    between atoms: C_30  and  C_31
REMARK                            x       y       z     vdW  Elec       q    Type
REMARK                         _______ _______ _______ _____ _____    ______ ____
ROOT
ATOM      1  C   UNL     1      -0.632  12.146  20.064  0.00  0.00    +0.000 A 
ATOM      2  N   UNL     1      -0.115  10.923  19.944  0.00  0.00    +0.000 NA
ATOM      3  C   UNL     1       1.072  10.820  19.312  0.00  0.00    +0.000 A 
ATOM      4  N   UNL     1       1.783  11.866  18.832  0.00  0.00    +0.000 NA
ATOM      5  C   UNL     1       1.236  13.091  18.997  0.00  0.00    +0.000 A 
ATOM      6  C   UNL     1       0.030  13.274  19.619  0.00  0.00    +0.000 A 
ATOM      7  C   UNL     1      -0.564  14.623  19.768  0.00  0.00    +0.000 C 
ATOM      8  C   UNL     1       0.261  15.723  19.204  0.00  0.00    +0.000 A 
ATOM      9  C   UNL     1      -0.202  17.049  19.314  0.00  0.00    +0.000 A 
ATOM     10  C   UNL     1       0.581  18.040  18.749  0.00  0.00    +0.000 A 
ATOM     11  N   UNL     1       1.743  17.800  18.105  0.00  0.00    +0.000 NA
ATOM     12  C   UNL     1       2.180  16.512  18.016  0.00  0.00    +0.000 A 
ATOM     13  C   UNL     1       3.472  16.337  17.278  0.00  0.00    +0.000 C 
ATOM     14  C   UNL     1       1.467  15.436  18.561  0.00  0.00    +0.000 A 
ATOM     15  O   UNL     1       1.969  14.149  18.455  0.00  0.00    +0.000 OA
ENDROOT
BRANCH   3  16
ATOM     16  C   UNL     1       1.546   9.442  19.061  0.00  0.00    +0.000 A 
ATOM     17  C   UNL     1       2.139   9.098  17.831  0.00  0.00    +0.000 A 
ATOM     18  C   UNL     1       2.690   7.828  17.600  0.00  0.00    +0.000 A 
ATOM     19  C   UNL     1       2.646   6.863  18.603  0.00  0.00    +0.000 A 
ATOM     20  C   UNL     1       3.253   5.509  18.387  0.00  0.00    +0.000 C 
ATOM     21  C   UNL     1       2.022   7.167  19.817  0.00  0.00    +0.000 A 
ATOM     22  C   UNL     1       1.478   8.440  20.040  0.00  0.00    +0.000 A 
ENDBRANCH   3  16
BRANCH   1  23
ATOM     23  S   UNL     1      -2.250  12.310  20.826  0.00  0.00    +0.000 S 
BRANCH  23  24
ATOM     24  C   UNL     1      -1.913  11.952  22.576  0.00  0.00    +0.000 C 
BRANCH  24  26
ATOM     25  N   UNL     1      -2.590  13.994  23.911  0.00  0.00    +0.000 N 
ATOM     26  C   UNL     1      -1.560  13.269  23.282  0.00  0.00    +0.000 C 
ATOM     27  O   UNL     1      -0.390  13.667  23.285  0.00  0.00    +0.000 OA
BRANCH  25  29
ATOM     28  C   UNL     1      -2.030  15.310  25.992  0.00  0.00    +0.000 C 
ATOM     29  C   UNL     1      -2.242  15.305  24.481  0.00  0.00    +0.000 C 
ENDBRANCH  25  29
BRANCH  25  30
ATOM     30  C   UNL     1      -3.973  13.511  23.861  0.00  0.00    +0.000 C 
ATOM     31  C   UNL     1      -4.478  12.523  24.895  0.00  0.00    +0.000 C 
ENDBRANCH  25  30
ENDBRANCH  24  26
ENDBRANCH  23  24
ENDBRANCH   1  23
BRANCH   9  32
ATOM     32  C   UNL     1      -1.464  17.402  20.055  0.00  0.00    +0.000 C 
BRANCH  32  33
ATOM     33  O   UNL     1      -2.578  17.441  19.174  0.00  0.00    +0.000 OA
ATOM     34  H   UNL     1      -2.701  18.365  18.895  0.00  0.00    +0.000 HD
ENDBRANCH  32  33
ENDBRANCH   9  32
TORSDOF 8
ENDMDL
MODEL 6
REMARK VINA RESULT:      -7.5      4.524      9.020
REMARK  Name = 
REMARK  12 active torsions:
REMARK  status: ('A' for Active; 'I' for Inactive)
REMARK    1  A    between atoms: C_1  and  C_2
REMARK    2  A    between atoms: C_2  and  N_3
REMARK    3  A    between atoms: N_3  and  C_4
REMARK    4  A    between atoms: C_4  and  C_5
REMARK    5  A    between atoms: C_6  and  C_8
REMARK    6  A    between atoms: C_8  and  S_9
REMARK    7  A    between atoms: S_9  and  C_10
REMARK    8  A    between atoms: C_12  and  C_13
REMARK    9  A    between atoms: C_16  and  C_17
REMARK   10  A    between atoms: C_25  and  C_26
REMARK   11  A    between atoms: C_26  and  O_27
REMARK   12  A    between atoms: C_30  and  C_31
REMARK                            x       y       z     vdW  Elec       q    Type
REMARK                         _______ _______ _______ _____ _____    ______ ____
ROOT
ATOM      1  C   UNL     1      -0.974  12.296  19.681  0.00  0.00    +0.000 A 
ATOM      2  N   UNL     1      -0.467  11.064  19.704  0.00  0.00    +0.000 NA
ATOM      3  C   UNL     1       0.825  10.926  19.342  0.00  0.00    +0.000 A 
ATOM      4  N   UNL     1       1.642  11.949  18.997  0.00  0.00    +0.000 NA
ATOM      5  C   UNL     1       1.096  13.186  19.012  0.00  0.00    +0.000 A 
ATOM      6  C   UNL     1      -0.210  13.403  19.358  0.00  0.00    +0.000 A 
ATOM      7  C   UNL     1      -0.797  14.763  19.343  0.00  0.00    +0.000 C 
ATOM      8  C   UNL     1       0.150  15.835  18.940  0.00  0.00    +0.000 A 
ATOM      9  C   UNL     1      -0.300  17.169  18.916  0.00  0.00    +0.000 A 
ATOM     10  C   UNL     1       0.604  18.133  18.505  0.00  0.00    +0.000 A 
ATOM     11  N   UNL     1       1.871  17.860  18.129  0.00  0.00    +0.000 NA
ATOM     12  C   UNL     1       2.292  16.563  18.167  0.00  0.00    +0.000 A 
ATOM     13  C   UNL     1       3.708  16.350  17.726  0.00  0.00    +0.000 C 
ATOM     14  C   UNL     1       1.459  15.513  18.576  0.00  0.00    +0.000 A 
ATOM     15  O   UNL     1       1.948  14.217  18.612  0.00  0.00    +0.000 OA
ENDROOT
BRANCH   3  16
ATOM     16  C   UNL     1       1.315   9.536  19.232  0.00  0.00    +0.000 A 
ATOM     17  C   UNL     1       1.899   9.071  18.038  0.00  0.00    +0.000 A 
ATOM     18  C   UNL     1       2.464   7.790  17.936  0.00  0.00    +0.000 A 
ATOM     19  C   UNL     1       2.446   6.937  19.036  0.00  0.00    +0.000 A 
ATOM     20  C   UNL     1       3.068   5.575  18.957  0.00  0.00    +0.000 C 
ATOM     21  C   UNL     1       1.832   7.360  20.219  0.00  0.00    +0.000 A 
ATOM     22  C   UNL     1       1.273   8.642  20.313  0.00  0.00    +0.000 A 
ENDBRANCH   3  16
BRANCH   1  23
ATOM     23  S   UNL     1      -2.713  12.504  20.077  0.00  0.00    +0.000 S 
BRANCH  23  24
ATOM     24  C   UNL     1      -2.699  12.681  21.885  0.00  0.00    +0.000 C 
BRANCH  24  26
ATOM     25  N   UNL     1      -4.337  14.125  23.167  0.00  0.00    +0.000 N 
ATOM     26  C   UNL     1      -4.127  12.994  22.354  0.00  0.00    +0.000 C 
ATOM     27  O   UNL     1      -5.059  12.256  22.016  0.00  0.00    +0.000 OA
BRANCH  25  29
ATOM     28  C   UNL     1      -6.112  15.798  23.822  0.00  0.00    +0.000 C 
ATOM     29  C   UNL     1      -5.695  14.336  23.693  0.00  0.00    +0.000 C 
ENDBRANCH  25  29
BRANCH  25  30
ATOM     30  C   UNL     1      -3.206  14.962  23.578  0.00  0.00    +0.000 C 
ATOM     31  C   UNL     1      -2.666  14.881  24.993  0.00  0.00    +0.000 C 
ENDBRANCH  25  30
ENDBRANCH  24  26
ENDBRANCH  23  24
ENDBRANCH   1  23
BRANCH   9  32
ATOM     32  C   UNL     1      -1.684  17.561  19.362  0.00  0.00    +0.000 C 
BRANCH  32  33
ATOM     33  O   UNL     1      -2.284  18.457  18.437  0.00  0.00    +0.000 OA
ATOM     34  H   UNL     1      -2.794  19.109  18.948  0.00  0.00    +0.000 HD
ENDBRANCH  32  33
ENDBRANCH   9  32
TORSDOF 8
ENDMDL
MODEL 7
REMARK VINA RESULT:      -7.5      4.336      8.537
REMARK  Name = 
REMARK  12 active torsions:
REMARK  status: ('A' for Active; 'I' for Inactive)
REMARK    1  A    between atoms: C_1  and  C_2
REMARK    2  A    between atoms: C_2  and  N_3
REMARK    3  A    between atoms: N_3  and  C_4
REMARK    4  A    between atoms: C_4  and  C_5
REMARK    5  A    between atoms: C_6  and  C_8
REMARK    6  A    between atoms: C_8  and  S_9
REMARK    7  A    between atoms: S_9  and  C_10
REMARK    8  A    between atoms: C_12  and  C_13
REMARK    9  A    between atoms: C_16  and  C_17
REMARK   10  A    between atoms: C_25  and  C_26
REMARK   11  A    between atoms: C_26  and  O_27
REMARK   12  A    between atoms: C_30  and  C_31
REMARK                            x       y       z     vdW  Elec       q    Type
REMARK                         _______ _______ _______ _____ _____    ______ ____
ROOT
ATOM      1  C   UNL     1      -0.624  11.896  19.002  0.00  0.00    +0.000 A 
ATOM      2  N   UNL     1      -0.161  10.649  19.094  0.00  0.00    +0.000 NA
ATOM      3  C   UNL     1       1.176  10.486  19.024  0.00  0.00    +0.000 A 
ATOM      4  N   UNL     1       2.070  11.495  18.905  0.00  0.00    +0.000 NA
ATOM      5  C   UNL     1       1.562  12.745  18.841  0.00  0.00    +0.000 A 
ATOM      6  C   UNL     1       0.216  12.989  18.895  0.00  0.00    +0.000 A 
ATOM      7  C   UNL     1      -0.324  14.365  18.798  0.00  0.00    +0.000 C 
ATOM      8  C   UNL     1       0.711  15.422  18.654  0.00  0.00    +0.000 A 
ATOM      9  C   UNL     1       0.306  16.768  18.577  0.00  0.00    +0.000 A 
ATOM     10  C   UNL     1       1.299  17.717  18.412  0.00  0.00    +0.000 A 
ATOM     11  N   UNL     1       2.613  17.420  18.318  0.00  0.00    +0.000 NA
ATOM     12  C   UNL     1       2.987  16.111  18.403  0.00  0.00    +0.000 A 
ATOM     13  C   UNL     1       4.461  15.871  18.281  0.00  0.00    +0.000 C 
ATOM     14  C   UNL     1       2.062  15.074  18.579  0.00  0.00    +0.000 A 
ATOM     15  O   UNL     1       2.502  13.763  18.677  0.00  0.00    +0.000 OA
ENDROOT
BRANCH   3  16
ATOM     16  C   UNL     1       1.649   9.086  18.976  0.00  0.00    +0.000 A 
ATOM     17  C   UNL     1       2.247   8.567  17.812  0.00  0.00    +0.000 A 
ATOM     18  C   UNL     1       2.797   7.276  17.770  0.00  0.00    +0.000 A 
ATOM     19  C   UNL     1       2.747   6.467  18.902  0.00  0.00    +0.000 A 
ATOM     20  C   UNL     1       3.353   5.095  18.887  0.00  0.00    +0.000 C 
ATOM     21  C   UNL     1       2.119   6.944  20.056  0.00  0.00    +0.000 A 
ATOM     22  C   UNL     1       1.576   8.236  20.090  0.00  0.00    +0.000 A 
ENDBRANCH   3  16
BRANCH   1  23
ATOM     23  S   UNL     1      -2.403  12.141  19.008  0.00  0.00    +0.000 S 
BRANCH  23  24
ATOM     24  C   UNL     1      -2.745  12.590  20.735  0.00  0.00    +0.000 C 
BRANCH  24  26
ATOM     25  N   UNL     1      -4.785  12.885  22.204  0.00  0.00    +0.000 N 
ATOM     26  C   UNL     1      -4.262  12.753  20.903  0.00  0.00    +0.000 C 
ATOM     27  O   UNL     1      -4.992  12.762  19.907  0.00  0.00    +0.000 OA
BRANCH  25  29
ATOM     28  C   UNL     1      -6.833  14.319  22.558  0.00  0.00    +0.000 C 
ATOM     29  C   UNL     1      -6.249  12.926  22.342  0.00  0.00    +0.000 C 
ENDBRANCH  25  29
BRANCH  25  30
ATOM     30  C   UNL     1      -3.896  12.836  23.369  0.00  0.00    +0.000 C 
ATOM     31  C   UNL     1      -4.428  12.409  24.723  0.00  0.00    +0.000 C 
ENDBRANCH  25  30
ENDBRANCH  24  26
ENDBRANCH  23  24
ENDBRANCH   1  23
BRANCH   9  32
ATOM     32  C   UNL     1      -1.133  17.185  18.718  0.00  0.00    +0.000 C 
BRANCH  32  33
ATOM     33  O   UNL     1      -1.437  18.270  17.852  0.00  0.00    +0.000 OA
ATOM     34  H   UNL     1      -1.160  18.018  16.955  0.00  0.00    +0.000 HD
ENDBRANCH  32  33
ENDBRANCH   9  32
TORSDOF 8
ENDMDL
MODEL 8
REMARK VINA RESULT:      -7.4      4.459      8.708
REMARK  Name = 
REMARK  12 active torsions:
REMARK  status: ('A' for Active; 'I' for Inactive)
REMARK    1  A    between atoms: C_1  and  C_2
REMARK    2  A    between atoms: C_2  and  N_3
REMARK    3  A    between atoms: N_3  and  C_4
REMARK    4  A    between atoms: C_4  and  C_5
REMARK    5  A    between atoms: C_6  and  C_8
REMARK    6  A    between atoms: C_8  and  S_9
REMARK    7  A    between atoms: S_9  and  C_10
REMARK    8  A    between atoms: C_12  and  C_13
REMARK    9  A    between atoms: C_16  and  C_17
REMARK   10  A    between atoms: C_25  and  C_26
REMARK   11  A    between atoms: C_26  and  O_27
REMARK   12  A    between atoms: C_30  and  C_31
REMARK                            x       y       z     vdW  Elec       q    Type
REMARK                         _______ _______ _______ _____ _____    ______ ____
ROOT
ATOM      1  C   UNL     1      -0.790  12.334  20.042  0.00  0.00    +0.000 A 
ATOM      2  N   UNL     1      -0.224  11.131  19.944  0.00  0.00    +0.000 NA
ATOM      3  C   UNL     1       0.993  11.073  19.365  0.00  0.00    +0.000 A 
ATOM      4  N   UNL     1       1.685  12.145  18.916  0.00  0.00    +0.000 NA
ATOM      5  C   UNL     1       1.087  13.349  19.057  0.00  0.00    +0.000 A 
ATOM      6  C   UNL     1      -0.151  13.487  19.625  0.00  0.00    +0.000 A 
ATOM      7  C   UNL     1      -0.801  14.812  19.748  0.00  0.00    +0.000 C 
ATOM      8  C   UNL     1       0.007  15.943  19.221  0.00  0.00    +0.000 A 
ATOM      9  C   UNL     1      -0.509  17.250  19.311  0.00  0.00    +0.000 A 
ATOM     10  C   UNL     1       0.261  18.270  18.781  0.00  0.00    +0.000 A 
ATOM     11  N   UNL     1       1.458  18.075  18.188  0.00  0.00    +0.000 NA
ATOM     12  C   UNL     1       1.946  16.803  18.118  0.00  0.00    +0.000 A 
ATOM     13  C   UNL     1       3.274  16.677  17.438  0.00  0.00    +0.000 C 
ATOM     14  C   UNL     1       1.250  15.701  18.632  0.00  0.00    +0.000 A 
ATOM     15  O   UNL     1       1.803  14.434  18.548  0.00  0.00    +0.000 OA
ENDROOT
BRANCH   3  16
ATOM     16  C   UNL     1       1.528   9.713  19.134  0.00  0.00    +0.000 A 
ATOM     17  C   UNL     1       1.513   8.750  20.161  0.00  0.00    +0.000 A 
ATOM     18  C   UNL     1       1.919   7.424  19.943  0.00  0.00    +0.000 A 
ATOM     19  C   UNL     1       2.363   7.036  18.682  0.00  0.00    +0.000 A 
ATOM     20  C   UNL     1       2.775   5.618  18.420  0.00  0.00    +0.000 C 
ATOM     21  C   UNL     1       2.428   7.986  17.658  0.00  0.00    +0.000 A 
ATOM     22  C   UNL     1       2.017   9.307  17.884  0.00  0.00    +0.000 A 
ENDBRANCH   3  16
BRANCH   1  23
ATOM     23  S   UNL     1      -2.445  12.436  20.732  0.00  0.00    +0.000 S 
BRANCH  23  24
ATOM     24  C   UNL     1      -2.203  11.896  22.450  0.00  0.00    +0.000 C 
BRANCH  24  26
ATOM     25  N   UNL     1      -2.574  13.917  23.929  0.00  0.00    +0.000 N 
ATOM     26  C   UNL     1      -3.105  12.743  23.358  0.00  0.00    +0.000 C 
ATOM     27  O   UNL     1      -4.268  12.385  23.573  0.00  0.00    +0.000 OA
BRANCH  25  29
ATOM     28  C   UNL     1      -4.327  15.704  24.256  0.00  0.00    +0.000 C 
ATOM     29  C   UNL     1      -3.424  14.647  24.883  0.00  0.00    +0.000 C 
ENDBRANCH  25  29
BRANCH  25  30
ATOM     30  C   UNL     1      -1.180  14.296  23.680  0.00  0.00    +0.000 C 
ATOM     31  C   UNL     1      -0.830  15.723  23.306  0.00  0.00    +0.000 C 
ENDBRANCH  25  30
ENDBRANCH  24  26
ENDBRANCH  23  24
ENDBRANCH   1  23
BRANCH   9  32
ATOM     32  C   UNL     1      -1.815  17.555  19.995  0.00  0.00    +0.000 C 
BRANCH  32  33
ATOM     33  O   UNL     1      -2.894  17.526  19.072  0.00  0.00    +0.000 OA
ATOM     34  H   UNL     1      -2.516  17.430  18.181  0.00  0.00    +0.000 HD
ENDBRANCH  32  33
ENDBRANCH   9  32
TORSDOF 8
ENDMDL
MODEL 9
REMARK VINA RESULT:      -7.4      2.364      8.551
REMARK  Name = 
REMARK  12 active torsions:
REMARK  status: ('A' for Active; 'I' for Inactive)
REMARK    1  A    between atoms: C_1  and  C_2
REMARK    2  A    between atoms: C_2  and  N_3
REMARK    3  A    between atoms: N_3  and  C_4
REMARK    4  A    between atoms: C_4  and  C_5
REMARK    5  A    between atoms: C_6  and  C_8
REMARK    6  A    between atoms: C_8  and  S_9
REMARK    7  A    between atoms: S_9  and  C_10
REMARK    8  A    between atoms: C_12  and  C_13
REMARK    9  A    between atoms: C_16  and  C_17
REMARK   10  A    between atoms: C_25  and  C_26
REMARK   11  A    between atoms: C_26  and  O_27
REMARK   12  A    between atoms: C_30  and  C_31
REMARK                            x       y       z     vdW  Elec       q    Type
REMARK                         _______ _______ _______ _____ _____    ______ ____
ROOT
ATOM      1  C   UNL     1       0.597   9.602  20.416  0.00  0.00    +0.000 A 
ATOM      2  N   UNL     1       0.524  10.880  20.044  0.00  0.00    +0.000 NA
ATOM      3  C   UNL     1       1.283  11.256  18.995  0.00  0.00    +0.000 A 
ATOM      4  N   UNL     1       2.076  10.424  18.280  0.00  0.00    +0.000 NA
ATOM      5  C   UNL     1       2.102   9.132  18.673  0.00  0.00    +0.000 A 
ATOM      6  C   UNL     1       1.366   8.677  19.735  0.00  0.00    +0.000 A 
ATOM      7  C   UNL     1       1.427   7.262  20.167  0.00  0.00    +0.000 C 
ATOM      8  C   UNL     1       2.328   6.409  19.348  0.00  0.00    +0.000 A 
ATOM      9  C   UNL     1       2.441   5.040  19.659  0.00  0.00    +0.000 A 
ATOM     10  C   UNL     1       3.313   4.288  18.893  0.00  0.00    +0.000 A 
ATOM     11  N   UNL     1       4.052   4.796  17.883  0.00  0.00    +0.000 NA
ATOM     12  C   UNL     1       3.923   6.122  17.591  0.00  0.00    +0.000 A 
ATOM     13  C   UNL     1       4.785   6.602  16.463  0.00  0.00    +0.000 C 
ATOM     14  C   UNL     1       3.062   6.968  18.300  0.00  0.00    +0.000 A 
ATOM     15  O   UNL     1       2.959   8.304  17.946  0.00  0.00    +0.000 OA
ENDROOT
BRANCH   3  16
ATOM     16  C   UNL     1       1.298  12.705  18.702  0.00  0.00    +0.000 A 
ATOM     17  C   UNL     1       0.104  13.452  18.703  0.00  0.00    +0.000 A 
ATOM     18  C   UNL     1       0.098  14.845  18.530  0.00  0.00    +0.000 A 
ATOM     19  C   UNL     1       1.298  15.523  18.338  0.00  0.00    +0.000 A 
ATOM     20  C   UNL     1       1.317  17.014  18.178  0.00  0.00    +0.000 C 
ATOM     21  C   UNL     1       2.493  14.797  18.288  0.00  0.00    +0.000 A 
ATOM     22  C   UNL     1       2.490  13.406  18.467  0.00  0.00    +0.000 A 
ENDBRANCH   3  16
BRANCH   1  23
ATOM     23  S   UNL     1      -0.338   9.086  21.860  0.00  0.00    +0.000 S 
BRANCH  23  24
ATOM     24  C   UNL     1      -0.113  10.477  23.008  0.00  0.00    +0.000 C 
BRANCH  24  26
ATOM     25  N   UNL     1      -1.456  12.599  22.692  0.00  0.00    +0.000 N 
ATOM     26  C   UNL     1      -1.435  11.251  23.100  0.00  0.00    +0.000 C 
ATOM     27  O   UNL     1      -2.448  10.686  23.527  0.00  0.00    +0.000 OA
BRANCH  25  29
ATOM     28  C   UNL     1      -3.595  13.458  21.661  0.00  0.00    +0.000 C 
ATOM     29  C   UNL     1      -2.707  13.346  22.897  0.00  0.00    +0.000 C 
ENDBRANCH  25  29
BRANCH  25  30
ATOM     30  C   UNL     1      -0.230  13.250  22.221  0.00  0.00    +0.000 C 
ATOM     31  C   UNL     1      -0.088  14.758  22.288  0.00  0.00    +0.000 C 
ENDBRANCH  25  30
ENDBRANCH  24  26
ENDBRANCH  23  24
ENDBRANCH   1  23
BRANCH   9  32
ATOM     32  C   UNL     1       1.619   4.390  20.740  0.00  0.00    +0.000 C 
BRANCH  32  33
ATOM     33  O   UNL     1       0.523   3.675  20.188  0.00  0.00    +0.000 OA
ATOM     34  H   UNL     1      -0.214   4.301  20.082  0.00  0.00    +0.000 HD
ENDBRANCH  32  33
ENDBRANCH   9  32
TORSDOF 8
ENDMDL
