MODEL 1
REMARK VINA RESULT:      -4.2      0.000      0.000
REMARK  Name = 
REMARK  1 active torsions:
REMARK  status: ('A' for Active; 'I' for Inactive)
REMARK    1  A    between atoms: C_1  and  C_2
REMARK                            x       y       z     vdW  Elec       q    Type
REMARK                         _______ _______ _______ _____ _____    ______ ____
ROOT
ATOM      1  C   UNL     1       5.671   4.355  14.659  0.00  0.00    +0.000 C 
ATOM      2  C   UNL     1       5.552   4.789  16.106  0.00  0.00    +0.000 C 
ATOM      3  C   UNL     1       4.436   4.070  16.870  0.00  0.00    +0.000 C 
ATOM      4  C   UNL     1       4.901   4.160  18.312  0.00  0.00    +0.000 C 
ATOM      5  N   UNL     1       6.325   4.088  18.197  0.00  0.00    +0.000 N 
ATOM      6  C   UNL     1       6.772   4.445  16.938  0.00  0.00    +0.000 C 
ATOM      7  O   UNL     1       7.940   4.519  16.602  0.00  0.00    +0.000 OA
ATOM      8  H   UNL     1       6.979   3.897  18.946  0.00  0.00    +0.000 HD
ENDROOT
TORSDOF 0
ENDMDL
MODEL 2
REMARK VINA RESULT:      -4.2      2.298      3.097
REMARK  Name = 
REMARK  1 active torsions:
REMARK  status: ('A' for Active; 'I' for Inactive)
REMARK    1  A    between atoms: C_1  and  C_2
REMARK                            x       y       z     vdW  Elec       q    Type
REMARK                         _______ _______ _______ _____ _____    ______ ____
ROOT
ATOM      1  C   UNL     1       7.829   7.815  17.798  0.00  0.00    +0.000 C 
ATOM      2  C   UNL     1       7.030   6.529  17.720  0.00  0.00    +0.000 C 
ATOM      3  C   UNL     1       7.025   5.896  16.326  0.00  0.00    +0.000 C 
ATOM      4  C   UNL     1       6.764   4.430  16.620  0.00  0.00    +0.000 C 
ATOM      5  N   UNL     1       7.423   4.230  17.874  0.00  0.00    +0.000 N 
ATOM      6  C   UNL     1       7.607   5.412  18.568  0.00  0.00    +0.000 C 
ATOM      7  O   UNL     1       8.092   5.505  19.681  0.00  0.00    +0.000 OA
ATOM      8  H   UNL     1       7.661   3.339  18.292  0.00  0.00    +0.000 HD
ENDROOT
TORSDOF 0
ENDMDL
MODEL 3
REMARK VINA RESULT:      -4.2      1.569      2.358
REMARK  Name = 
REMARK  1 active torsions:
REMARK  status: ('A' for Active; 'I' for Inactive)
REMARK    1  A    between atoms: C_1  and  C_2
REMARK                            x       y       z     vdW  Elec       q    Type
REMARK                         _______ _______ _______ _____ _____    ______ ____
ROOT
ATOM      1  C   UNL     1       7.552   7.090  17.529  0.00  0.00    +0.000 C 
ATOM      2  C   UNL     1       6.559   5.946  17.486  0.00  0.00    +0.000 C 
ATOM      3  C   UNL     1       5.561   6.045  16.329  0.00  0.00    +0.000 C 
ATOM      4  C   UNL     1       5.151   4.600  16.112  0.00  0.00    +0.000 C 
ATOM      5  N   UNL     1       6.343   3.874  16.426  0.00  0.00    +0.000 N 
ATOM      6  C   UNL     1       7.205   4.599  17.227  0.00  0.00    +0.000 C 
ATOM      7  O   UNL     1       8.260   4.187  17.677  0.00  0.00    +0.000 OA
ATOM      8  H   UNL     1       6.537   2.908  16.193  0.00  0.00    +0.000 HD
ENDROOT
TORSDOF 0
ENDMDL
MODEL 4
REMARK VINA RESULT:      -4.1      1.905      2.258
REMARK  Name = 
REMARK  1 active torsions:
REMARK  status: ('A' for Active; 'I' for Inactive)
REMARK    1  A    between atoms: C_1  and  C_2
REMARK                            x       y       z     vdW  Elec       q    Type
REMARK                         _______ _______ _______ _____ _____    ______ ____
ROOT
ATOM      1  C   UNL     1       5.794   3.642  13.140  0.00  0.00    +0.000 C 
ATOM      2  C   UNL     1       5.876   4.467  14.408  0.00  0.00    +0.000 C 
ATOM      3  C   UNL     1       5.672   3.648  15.685  0.00  0.00    +0.000 C 
ATOM      4  C   UNL     1       6.396   4.471  16.735  0.00  0.00    +0.000 C 
ATOM      5  N   UNL     1       7.484   5.043  16.003  0.00  0.00    +0.000 N 
ATOM      6  C   UNL     1       7.245   5.075  14.642  0.00  0.00    +0.000 C 
ATOM      7  O   UNL     1       7.990   5.561  13.809  0.00  0.00    +0.000 OA
ATOM      8  H   UNL     1       8.311   5.475  16.397  0.00  0.00    +0.000 HD
ENDROOT
TORSDOF 0
ENDMDL
MODEL 5
REMARK VINA RESULT:      -4.1      1.615      2.746
REMARK  Name = 
REMARK  1 active torsions:
REMARK  status: ('A' for Active; 'I' for Inactive)
REMARK    1  A    between atoms: C_1  and  C_2
REMARK                            x       y       z     vdW  Elec       q    Type
REMARK                         _______ _______ _______ _____ _____    ______ ____
ROOT
ATOM      1  C   UNL     1       4.825   3.882  16.839  0.00  0.00    +0.000 C 
ATOM      2  C   UNL     1       5.920   3.809  15.794  0.00  0.00    +0.000 C 
ATOM      3  C   UNL     1       5.527   4.431  14.451  0.00  0.00    +0.000 C 
ATOM      4  C   UNL     1       6.867   4.811  13.848  0.00  0.00    +0.000 C 
ATOM      5  N   UNL     1       7.648   5.165  14.993  0.00  0.00    +0.000 N 
ATOM      6  C   UNL     1       7.154   4.611  16.160  0.00  0.00    +0.000 C 
ATOM      7  O   UNL     1       7.668   4.716  17.259  0.00  0.00    +0.000 OA
ATOM      8  H   UNL     1       8.521   5.677  14.989  0.00  0.00    +0.000 HD
ENDROOT
TORSDOF 0
ENDMDL
MODEL 6
REMARK VINA RESULT:      -4.1      5.575      6.116
REMARK  Name = 
REMARK  1 active torsions:
REMARK  status: ('A' for Active; 'I' for Inactive)
REMARK    1  A    between atoms: C_1  and  C_2
REMARK                            x       y       z     vdW  Elec       q    Type
REMARK                         _______ _______ _______ _____ _____    ______ ____
ROOT
ATOM      1  C   UNL     1       1.791   5.559  20.672  0.00  0.00    +0.000 C 
ATOM      2  C   UNL     1       1.128   4.263  20.251  0.00  0.00    +0.000 C 
ATOM      3  C   UNL     1       1.376   3.897  18.785  0.00  0.00    +0.000 C 
ATOM      4  C   UNL     1       1.206   2.389  18.778  0.00  0.00    +0.000 C 
ATOM      5  N   UNL     1       1.697   2.003  20.066  0.00  0.00    +0.000 N 
ATOM      6  C   UNL     1       1.675   3.047  20.972  0.00  0.00    +0.000 C 
ATOM      7  O   UNL     1       1.988   2.963  22.147  0.00  0.00    +0.000 OA
ATOM      8  H   UNL     1       1.951   1.067  20.356  0.00  0.00    +0.000 HD
ENDROOT
TORSDOF 0
ENDMDL
MODEL 7
REMARK VINA RESULT:      -4.1      5.188      5.743
REMARK  Name = 
REMARK  1 active torsions:
REMARK  status: ('A' for Active; 'I' for Inactive)
REMARK    1  A    between atoms: C_1  and  C_2
REMARK                            x       y       z     vdW  Elec       q    Type
REMARK                         _______ _______ _______ _____ _____    ______ ____
ROOT
ATOM      1  C   UNL     1       1.867   4.643  17.802  0.00  0.00    +0.000 C 
ATOM      2  C   UNL     1       2.105   3.794  19.035  0.00  0.00    +0.000 C 
ATOM      3  C   UNL     1       2.241   4.609  20.323  0.00  0.00    +0.000 C 
ATOM      4  C   UNL     1       1.835   3.617  21.397  0.00  0.00    +0.000 C 
ATOM      5  N   UNL     1       0.840   2.823  20.744  0.00  0.00    +0.000 N 
ATOM      6  C   UNL     1       0.943   2.878  19.366  0.00  0.00    +0.000 C 
ATOM      7  O   UNL     1       0.251   2.249  18.585  0.00  0.00    +0.000 OA
ATOM      8  H   UNL     1       0.179   2.201  21.192  0.00  0.00    +0.000 HD
ENDROOT
TORSDOF 0
ENDMDL
MODEL 8
REMARK VINA RESULT:      -4.1      4.776      5.884
REMARK  Name = 
REMARK  1 active torsions:
REMARK  status: ('A' for Active; 'I' for Inactive)
REMARK    1  A    between atoms: C_1  and  C_2
REMARK                            x       y       z     vdW  Elec       q    Type
REMARK                         _______ _______ _______ _____ _____    ______ ____
ROOT
ATOM      1  C   UNL     1       1.474   2.842  21.344  0.00  0.00    +0.000 C 
ATOM      2  C   UNL     1       2.100   3.022  19.976  0.00  0.00    +0.000 C 
ATOM      3  C   UNL     1       3.511   2.436  19.868  0.00  0.00    +0.000 C 
ATOM      4  C   UNL     1       3.649   2.159  18.382  0.00  0.00    +0.000 C 
ATOM      5  N   UNL     1       2.319   1.802  17.994  0.00  0.00    +0.000 N 
ATOM      6  C   UNL     1       1.367   2.276  18.878  0.00  0.00    +0.000 C 
ATOM      7  O   UNL     1       0.163   2.154  18.744  0.00  0.00    +0.000 OA
ATOM      8  H   UNL     1       2.047   1.340  17.135  0.00  0.00    +0.000 HD
ENDROOT
TORSDOF 0
ENDMDL
MODEL 9
REMARK VINA RESULT:      -4.1      3.423      4.767
REMARK  Name = 
REMARK  1 active torsions:
REMARK  status: ('A' for Active; 'I' for Inactive)
REMARK    1  A    between atoms: C_1  and  C_2
REMARK                            x       y       z     vdW  Elec       q    Type
REMARK                         _______ _______ _______ _____ _____    ______ ____
ROOT
ATOM      1  C   UNL     1       2.325   2.837  21.533  0.00  0.00    +0.000 C 
ATOM      2  C   UNL     1       2.975   2.610  20.183  0.00  0.00    +0.000 C 
ATOM      3  C   UNL     1       2.922   3.834  19.265  0.00  0.00    +0.000 C 
ATOM      4  C   UNL     1       4.103   3.614  18.337  0.00  0.00    +0.000 C 
ATOM      5  N   UNL     1       5.057   2.959  19.178  0.00  0.00    +0.000 N 
ATOM      6  C   UNL     1       4.467   2.350  20.270  0.00  0.00    +0.000 C 
ATOM      7  O   UNL     1       5.053   1.683  21.104  0.00  0.00    +0.000 OA
ATOM      8  H   UNL     1       6.045   2.844  18.990  0.00  0.00    +0.000 HD
ENDROOT
TORSDOF 0
ENDMDL
