MODEL 1
REMARK VINA RESULT:      -8.5      0.000      0.000
REMARK  Name = 
REMARK  12 active torsions:
REMARK  status: ('A' for Active; 'I' for Inactive)
REMARK    1  A    between atoms: C_1  and  C_2
REMARK    2  A    between atoms: C_2  and  C_3
REMARK    3  A    between atoms: C_2  and  C_29
REMARK    4  A    between atoms: C_3  and  C_4
REMARK    5  A    between atoms: C_4  and  C_5
REMARK    6  A    between atoms: C_4  and  N_18
REMARK    7  A    between atoms: C_5  and  C_6
REMARK    8  A    between atoms: C_9  and  C_10
REMARK    9  A    between atoms: C_19  and  C_21
REMARK   10  A    between atoms: C_24  and  C_25
REMARK   11  A    between atoms: C_25  and  O_27
REMARK   12  A    between atoms: C_29  and  O_31
REMARK                            x       y       z     vdW  Elec       q    Type
REMARK                         _______ _______ _______ _____ _____    ______ ____
ROOT
ATOM      1  C   UNL     1       3.167   5.095  18.603  0.00  0.00    +0.000 C 
ENDROOT
BRANCH   1   2
ATOM      2  N   UNL     1       4.055   5.039  17.438  0.00  0.00    +0.000 N 
ATOM      3  C   UNL     1       5.334   4.529  17.451  0.00  0.00    +0.000 C 
ATOM      4  O   UNL     1       5.865   4.090  18.464  0.00  0.00    +0.000 OA
ATOM      5  H   UNL     1       3.771   5.484  16.565  0.00  0.00    +0.000 HD
BRANCH   3   6
ATOM      6  C   UNL     1       6.013   4.574  16.153  0.00  0.00    +0.000 A 
ATOM      7  C   UNL     1       7.114   5.358  15.873  0.00  0.00    +0.000 A 
ATOM      8  N   UNL     1       7.408   5.137  14.561  0.00  0.00    +0.000 N 
ATOM      9  C   UNL     1       6.497   4.246  14.068  0.00  0.00    +0.000 A 
ATOM     10  N   UNL     1       5.647   3.854  15.011  0.00  0.00    +0.000 NA
ATOM     11  H   UNL     1       8.146   5.569  14.018  0.00  0.00    +0.000 HD
BRANCH   9  12
ATOM     12  C   UNL     1       6.473   3.805  12.690  0.00  0.00    +0.000 C 
ATOM     13  O   UNL     1       5.720   2.963  12.234  0.00  0.00    +0.000 OA
BRANCH  12  14
ATOM     14  O   UNL     1       7.412   4.453  11.960  0.00  0.00    +0.000 OA
ATOM     15  H   UNL     1       6.975   5.191  11.476  0.00  0.00    +0.000 HD
ENDBRANCH  12  14
ENDBRANCH   9  12
ENDBRANCH   3   6
ENDBRANCH   1   2
BRANCH   1  16
ATOM     16  C   UNL     1       1.705   4.893  18.179  0.00  0.00    +0.000 C 
BRANCH  16  18
ATOM     17  C   UNL     1       1.025   3.518  20.264  0.00  0.00    +0.000 C 
ATOM     18  C   UNL     1       1.098   3.570  18.731  0.00  0.00    +0.000 C 
BRANCH  18  19
ATOM     19  C   UNL     1       1.844   2.332  18.241  0.00  0.00    +0.000 C 
ATOM     20  O   UNL     1       2.397   2.241  17.155  0.00  0.00    +0.000 OA
BRANCH  19  21
ATOM     21  O   UNL     1       1.817   1.308  19.121  0.00  0.00    +0.000 OA
ATOM     22  H   UNL     1       2.693   1.054  19.469  0.00  0.00    +0.000 HD
ENDBRANCH  19  21
ENDBRANCH  18  19
ENDBRANCH  16  18
ENDBRANCH   1  16
BRANCH   1  23
ATOM     23  C   UNL     1       3.487   6.302  19.539  0.00  0.00    +0.000 C 
BRANCH  23  24
ATOM     24  C   UNL     1       2.389   7.367  19.496  0.00  0.00    +0.000 A 
ATOM     25  C   UNL     1       1.587   7.596  20.618  0.00  0.00    +0.000 A 
ATOM     26  C   UNL     1       0.787   8.712  20.721  0.00  0.00    +0.000 A 
ATOM     27  C   UNL     1       0.670   9.623  19.670  0.00  0.00    +0.000 A 
ATOM     28  C   UNL     1       1.327   9.313  18.471  0.00  0.00    +0.000 A 
ATOM     29  C   UNL     1       2.191   8.199  18.386  0.00  0.00    +0.000 A 
BRANCH  27  30
ATOM     30  C   UNL     1      -0.184  10.794  19.919  0.00  0.00    +0.000 A 
ATOM     31  C   UNL     1      -0.339  11.272  21.242  0.00  0.00    +0.000 A 
ATOM     32  C   UNL     1      -1.371  12.142  21.583  0.00  0.00    +0.000 A 
ATOM     33  C   UNL     1      -2.231  12.599  20.594  0.00  0.00    +0.000 A 
ATOM     34  C   UNL     1      -2.028  12.222  19.265  0.00  0.00    +0.000 A 
ATOM     35  C   UNL     1      -1.009  11.328  18.926  0.00  0.00    +0.000 A 
ENDBRANCH  27  30
ENDBRANCH  23  24
ENDBRANCH   1  23
TORSDOF 11
ENDMDL
MODEL 2
REMARK VINA RESULT:      -8.3      3.905      9.088
REMARK  Name = 
REMARK  12 active torsions:
REMARK  status: ('A' for Active; 'I' for Inactive)
REMARK    1  A    between atoms: C_1  and  C_2
REMARK    2  A    between atoms: C_2  and  C_3
REMARK    3  A    between atoms: C_2  and  C_29
REMARK    4  A    between atoms: C_3  and  C_4
REMARK    5  A    between atoms: C_4  and  C_5
REMARK    6  A    between atoms: C_4  and  N_18
REMARK    7  A    between atoms: C_5  and  C_6
REMARK    8  A    between atoms: C_9  and  C_10
REMARK    9  A    between atoms: C_19  and  C_21
REMARK   10  A    between atoms: C_24  and  C_25
REMARK   11  A    between atoms: C_25  and  O_27
REMARK   12  A    between atoms: C_29  and  O_31
REMARK                            x       y       z     vdW  Elec       q    Type
REMARK                         _______ _______ _______ _____ _____    ______ ____
ROOT
ATOM      1  C   UNL     1       2.338   6.211  19.576  0.00  0.00    +0.000 C 
ENDROOT
BRANCH   1   2
ATOM      2  N   UNL     1       1.834   7.542  19.931  0.00  0.00    +0.000 N 
ATOM      3  C   UNL     1       1.570   8.546  19.027  0.00  0.00    +0.000 C 
ATOM      4  O   UNL     1       1.760   8.425  17.823  0.00  0.00    +0.000 OA
ATOM      5  H   UNL     1       1.750   7.805  20.912  0.00  0.00    +0.000 HD
BRANCH   3   6
ATOM      6  C   UNL     1       1.060   9.780  19.631  0.00  0.00    +0.000 A 
ATOM      7  C   UNL     1       1.235  11.042  19.098  0.00  0.00    +0.000 A 
ATOM      8  N   UNL     1       0.648  11.904  19.976  0.00  0.00    +0.000 N 
ATOM      9  C   UNL     1       0.140  11.171  21.011  0.00  0.00    +0.000 A 
ATOM     10  N   UNL     1       0.342   9.871  20.828  0.00  0.00    +0.000 NA
ATOM     11  H   UNL     1       0.610  12.914  19.909  0.00  0.00    +0.000 HD
BRANCH   9  12
ATOM     12  C   UNL     1      -0.523  11.758  22.157  0.00  0.00    +0.000 C 
ATOM     13  O   UNL     1      -1.079  12.842  22.167  0.00  0.00    +0.000 OA
BRANCH  12  14
ATOM     14  O   UNL     1      -0.442  10.940  23.233  0.00  0.00    +0.000 OA
ATOM     15  H   UNL     1      -1.059  11.273  23.923  0.00  0.00    +0.000 HD
ENDBRANCH  12  14
ENDBRANCH   9  12
ENDBRANCH   3   6
ENDBRANCH   1   2
BRANCH   1  16
ATOM     16  C   UNL     1       1.727   5.140  20.490  0.00  0.00    +0.000 C 
BRANCH  16  18
ATOM     17  C   UNL     1       0.700   2.894  19.716  0.00  0.00    +0.000 C 
ATOM     18  C   UNL     1       1.985   3.694  19.975  0.00  0.00    +0.000 C 
BRANCH  18  19
ATOM     19  C   UNL     1       2.876   2.886  20.913  0.00  0.00    +0.000 C 
ATOM     20  O   UNL     1       3.881   2.282  20.566  0.00  0.00    +0.000 OA
BRANCH  19  21
ATOM     21  O   UNL     1       2.434   2.869  22.189  0.00  0.00    +0.000 OA
ATOM     22  H   UNL     1       3.061   3.244  22.836  0.00  0.00    +0.000 HD
ENDBRANCH  19  21
ENDBRANCH  18  19
ENDBRANCH  16  18
ENDBRANCH   1  16
BRANCH   1  23
ATOM     23  C   UNL     1       3.886   6.194  19.378  0.00  0.00    +0.000 C 
BRANCH  23  24
ATOM     24  C   UNL     1       4.282   5.677  17.993  0.00  0.00    +0.000 A 
ATOM     25  C   UNL     1       4.713   6.568  17.007  0.00  0.00    +0.000 A 
ATOM     26  C   UNL     1       5.333   6.130  15.857  0.00  0.00    +0.000 A 
ATOM     27  C   UNL     1       5.479   4.771  15.581  0.00  0.00    +0.000 A 
ATOM     28  C   UNL     1       4.891   3.864  16.474  0.00  0.00    +0.000 A 
ATOM     29  C   UNL     1       4.305   4.311  17.679  0.00  0.00    +0.000 A 
BRANCH  27  30
ATOM     30  C   UNL     1       6.195   4.433  14.342  0.00  0.00    +0.000 A 
ATOM     31  C   UNL     1       7.324   5.197  13.962  0.00  0.00    +0.000 A 
ATOM     32  C   UNL     1       7.829   5.150  12.665  0.00  0.00    +0.000 A 
ATOM     33  C   UNL     1       7.252   4.291  11.741  0.00  0.00    +0.000 A 
ATOM     34  C   UNL     1       6.206   3.452  12.127  0.00  0.00    +0.000 A 
ATOM     35  C   UNL     1       5.680   3.518  13.420  0.00  0.00    +0.000 A 
ENDBRANCH  27  30
ENDBRANCH  23  24
ENDBRANCH   1  23
TORSDOF 11
ENDMDL
MODEL 3
REMARK VINA RESULT:      -8.3      3.561      9.077
REMARK  Name = 
REMARK  12 active torsions:
REMARK  status: ('A' for Active; 'I' for Inactive)
REMARK    1  A    between atoms: C_1  and  C_2
REMARK    2  A    between atoms: C_2  and  C_3
REMARK    3  A    between atoms: C_2  and  C_29
REMARK    4  A    between atoms: C_3  and  C_4
REMARK    5  A    between atoms: C_4  and  C_5
REMARK    6  A    between atoms: C_4  and  N_18
REMARK    7  A    between atoms: C_5  and  C_6
REMARK    8  A    between atoms: C_9  and  C_10
REMARK    9  A    between atoms: C_19  and  C_21
REMARK   10  A    between atoms: C_24  and  C_25
REMARK   11  A    between atoms: C_25  and  O_27
REMARK   12  A    between atoms: C_29  and  O_31
REMARK                            x       y       z     vdW  Elec       q    Type
REMARK                         _______ _______ _______ _____ _____    ______ ____
ROOT
ATOM      1  C   UNL     1       3.264   5.617  19.239  0.00  0.00    +0.000 C 
ENDROOT
BRANCH   1   2
ATOM      2  N   UNL     1       2.558   6.760  19.827  0.00  0.00    +0.000 N 
ATOM      3  C   UNL     1       2.040   7.814  19.109  0.00  0.00    +0.000 C 
ATOM      4  O   UNL     1       2.147   7.907  17.892  0.00  0.00    +0.000 OA
ATOM      5  H   UNL     1       2.511   6.857  20.841  0.00  0.00    +0.000 HD
BRANCH   3   6
ATOM      6  C   UNL     1       1.366   8.826  19.928  0.00  0.00    +0.000 A 
ATOM      7  C   UNL     1       1.039  10.094  19.491  0.00  0.00    +0.000 A 
ATOM      8  N   UNL     1       0.467  10.722  20.557  0.00  0.00    +0.000 N 
ATOM      9  C   UNL     1       0.460   9.848  21.607  0.00  0.00    +0.000 A 
ATOM     10  N   UNL     1       0.971   8.672  21.260  0.00  0.00    +0.000 NA
ATOM     11  H   UNL     1       0.130  11.676  20.596  0.00  0.00    +0.000 HD
BRANCH   9  12
ATOM     12  C   UNL     1      -0.037  10.185  22.924  0.00  0.00    +0.000 C 
ATOM     13  O   UNL     1      -0.039   9.437  23.887  0.00  0.00    +0.000 OA
BRANCH  12  14
ATOM     14  O   UNL     1      -0.512  11.453  22.952  0.00  0.00    +0.000 OA
ATOM     15  H   UNL     1      -1.468  11.432  22.718  0.00  0.00    +0.000 HD
ENDBRANCH  12  14
ENDBRANCH   9  12
ENDBRANCH   3   6
ENDBRANCH   1   2
BRANCH   1  16
ATOM     16  C   UNL     1       2.862   4.313  19.943  0.00  0.00    +0.000 C 
BRANCH  16  18
ATOM     17  C   UNL     1       2.280   3.715  17.493  0.00  0.00    +0.000 C 
ATOM     18  C   UNL     1       2.316   3.242  18.954  0.00  0.00    +0.000 C 
BRANCH  18  19
ATOM     19  C   UNL     1       0.925   2.745  19.335  0.00  0.00    +0.000 C 
ATOM     20  O   UNL     1       0.133   2.235  18.554  0.00  0.00    +0.000 OA
BRANCH  19  21
ATOM     21  O   UNL     1       0.622   2.944  20.636  0.00  0.00    +0.000 OA
ATOM     22  H   UNL     1       0.339   3.854  20.847  0.00  0.00    +0.000 HD
ENDBRANCH  19  21
ENDBRANCH  18  19
ENDBRANCH  16  18
ENDBRANCH   1  16
BRANCH   1  23
ATOM     23  C   UNL     1       4.788   5.893  19.047  0.00  0.00    +0.000 C 
BRANCH  23  24
ATOM     24  C   UNL     1       5.246   5.609  17.615  0.00  0.00    +0.000 A 
ATOM     25  C   UNL     1       5.829   4.380  17.293  0.00  0.00    +0.000 A 
ATOM     26  C   UNL     1       5.999   3.979  15.986  0.00  0.00    +0.000 A 
ATOM     27  C   UNL     1       5.680   4.820  14.920  0.00  0.00    +0.000 A 
ATOM     28  C   UNL     1       5.264   6.123  15.227  0.00  0.00    +0.000 A 
ATOM     29  C   UNL     1       5.037   6.514  16.565  0.00  0.00    +0.000 A 
BRANCH  27  30
ATOM     30  C   UNL     1       5.870   4.260  13.573  0.00  0.00    +0.000 A 
ATOM     31  C   UNL     1       4.768   3.679  12.902  0.00  0.00    +0.000 A 
ATOM     32  C   UNL     1       4.946   2.850  11.798  0.00  0.00    +0.000 A 
ATOM     33  C   UNL     1       6.226   2.636  11.306  0.00  0.00    +0.000 A 
ATOM     34  C   UNL     1       7.315   3.285  11.891  0.00  0.00    +0.000 A 
ATOM     35  C   UNL     1       7.140   4.096  13.016  0.00  0.00    +0.000 A 
ENDBRANCH  27  30
ENDBRANCH  23  24
ENDBRANCH   1  23
TORSDOF 11
ENDMDL
MODEL 4
REMARK VINA RESULT:      -8.3      3.625      9.020
REMARK  Name = 
REMARK  12 active torsions:
REMARK  status: ('A' for Active; 'I' for Inactive)
REMARK    1  A    between atoms: C_1  and  C_2
REMARK    2  A    between atoms: C_2  and  C_3
REMARK    3  A    between atoms: C_2  and  C_29
REMARK    4  A    between atoms: C_3  and  C_4
REMARK    5  A    between atoms: C_4  and  C_5
REMARK    6  A    between atoms: C_4  and  N_18
REMARK    7  A    between atoms: C_5  and  C_6
REMARK    8  A    between atoms: C_9  and  C_10
REMARK    9  A    between atoms: C_19  and  C_21
REMARK   10  A    between atoms: C_24  and  C_25
REMARK   11  A    between atoms: C_25  and  O_27
REMARK   12  A    between atoms: C_29  and  O_31
REMARK                            x       y       z     vdW  Elec       q    Type
REMARK                         _______ _______ _______ _____ _____    ______ ____
ROOT
ATOM      1  C   UNL     1       2.822   5.726  19.441  0.00  0.00    +0.000 C 
ENDROOT
BRANCH   1   2
ATOM      2  N   UNL     1       2.062   6.877  19.937  0.00  0.00    +0.000 N 
ATOM      3  C   UNL     1       1.929   8.074  19.270  0.00  0.00    +0.000 C 
ATOM      4  O   UNL     1       2.467   8.299  18.193  0.00  0.00    +0.000 OA
ATOM      5  H   UNL     1       1.668   6.855  20.878  0.00  0.00    +0.000 HD
BRANCH   3   6
ATOM      6  C   UNL     1       1.105   9.064  19.970  0.00  0.00    +0.000 A 
ATOM      7  C   UNL     1       0.576  10.196  19.383  0.00  0.00    +0.000 A 
ATOM      8  N   UNL     1      -0.085  10.859  20.374  0.00  0.00    +0.000 N 
ATOM      9  C   UNL     1       0.054  10.139  21.527  0.00  0.00    +0.000 A 
ATOM     10  N   UNL     1       0.745   9.024  21.320  0.00  0.00    +0.000 NA
ATOM     11  H   UNL     1      -0.571  11.744  20.300  0.00  0.00    +0.000 HD
BRANCH   9  12
ATOM     12  C   UNL     1      -0.486  10.560  22.802  0.00  0.00    +0.000 C 
ATOM     13  O   UNL     1      -0.505  11.708  23.213  0.00  0.00    +0.000 OA
BRANCH  12  14
ATOM     14  O   UNL     1      -0.971   9.502  23.495  0.00  0.00    +0.000 OA
ATOM     15  H   UNL     1      -1.831   9.238  23.096  0.00  0.00    +0.000 HD
ENDBRANCH  12  14
ENDBRANCH   9  12
ENDBRANCH   3   6
ENDBRANCH   1   2
BRANCH   1  16
ATOM     16  C   UNL     1       2.265   4.418  20.022  0.00  0.00    +0.000 C 
BRANCH  16  18
ATOM     17  C   UNL     1       0.904   2.526  18.896  0.00  0.00    +0.000 C 
ATOM     18  C   UNL     1       2.251   3.259  18.983  0.00  0.00    +0.000 C 
BRANCH  18  19
ATOM     19  C   UNL     1       3.346   2.228  19.239  0.00  0.00    +0.000 C 
ATOM     20  O   UNL     1       4.257   2.368  20.042  0.00  0.00    +0.000 OA
BRANCH  19  21
ATOM     21  O   UNL     1       3.237   1.127  18.463  0.00  0.00    +0.000 OA
ATOM     22  H   UNL     1       4.073   0.640  18.337  0.00  0.00    +0.000 HD
ENDBRANCH  19  21
ENDBRANCH  18  19
ENDBRANCH  16  18
ENDBRANCH   1  16
BRANCH   1  23
ATOM     23  C   UNL     1       4.364   5.951  19.522  0.00  0.00    +0.000 C 
BRANCH  23  24
ATOM     24  C   UNL     1       5.043   5.762  18.163  0.00  0.00    +0.000 A 
ATOM     25  C   UNL     1       5.912   4.687  17.955  0.00  0.00    +0.000 A 
ATOM     26  C   UNL     1       6.323   4.322  16.691  0.00  0.00    +0.000 A 
ATOM     27  C   UNL     1       5.962   5.064  15.566  0.00  0.00    +0.000 A 
ATOM     28  C   UNL     1       5.241   6.248  15.778  0.00  0.00    +0.000 A 
ATOM     29  C   UNL     1       4.774   6.591  17.066  0.00  0.00    +0.000 A 
BRANCH  27  30
ATOM     30  C   UNL     1       6.430   4.548  14.272  0.00  0.00    +0.000 A 
ATOM     31  C   UNL     1       7.514   5.184  13.621  0.00  0.00    +0.000 A 
ATOM     32  C   UNL     1       7.780   4.965  12.273  0.00  0.00    +0.000 A 
ATOM     33  C   UNL     1       7.006   4.058  11.564  0.00  0.00    +0.000 A 
ATOM     34  C   UNL     1       6.000   3.342  12.215  0.00  0.00    +0.000 A 
ATOM     35  C   UNL     1       5.714   3.581  13.562  0.00  0.00    +0.000 A 
ENDBRANCH  27  30
ENDBRANCH  23  24
ENDBRANCH   1  23
TORSDOF 11
ENDMDL
MODEL 5
REMARK VINA RESULT:      -8.3      1.177      1.487
REMARK  Name = 
REMARK  12 active torsions:
REMARK  status: ('A' for Active; 'I' for Inactive)
REMARK    1  A    between atoms: C_1  and  C_2
REMARK    2  A    between atoms: C_2  and  C_3
REMARK    3  A    between atoms: C_2  and  C_29
REMARK    4  A    between atoms: C_3  and  C_4
REMARK    5  A    between atoms: C_4  and  C_5
REMARK    6  A    between atoms: C_4  and  N_18
REMARK    7  A    between atoms: C_5  and  C_6
REMARK    8  A    between atoms: C_9  and  C_10
REMARK    9  A    between atoms: C_19  and  C_21
REMARK   10  A    between atoms: C_24  and  C_25
REMARK   11  A    between atoms: C_25  and  O_27
REMARK   12  A    between atoms: C_29  and  O_31
REMARK                            x       y       z     vdW  Elec       q    Type
REMARK                         _______ _______ _______ _____ _____    ______ ____
ROOT
ATOM      1  C   UNL     1       2.853   5.060  19.420  0.00  0.00    +0.000 C 
ENDROOT
BRANCH   1   2
ATOM      2  N   UNL     1       3.928   5.000  18.424  0.00  0.00    +0.000 N 
ATOM      3  C   UNL     1       5.057   4.220  18.535  0.00  0.00    +0.000 C 
ATOM      4  O   UNL     1       5.282   3.510  19.509  0.00  0.00    +0.000 OA
ATOM      5  H   UNL     1       3.914   5.636  17.627  0.00  0.00    +0.000 HD
BRANCH   3   6
ATOM      6  C   UNL     1       5.976   4.326  17.399  0.00  0.00    +0.000 A 
ATOM      7  C   UNL     1       7.330   4.576  17.509  0.00  0.00    +0.000 A 
ATOM      8  N   UNL     1       7.805   4.634  16.233  0.00  0.00    +0.000 N 
ATOM      9  C   UNL     1       6.755   4.430  15.382  0.00  0.00    +0.000 A 
ATOM     10  N   UNL     1       5.628   4.209  16.050  0.00  0.00    +0.000 NA
ATOM     11  H   UNL     1       8.756   4.824  15.942  0.00  0.00    +0.000 HD
BRANCH   9  12
ATOM     12  C   UNL     1       6.876   4.462  13.940  0.00  0.00    +0.000 C 
ATOM     13  O   UNL     1       7.421   5.345  13.301  0.00  0.00    +0.000 OA
BRANCH  12  14
ATOM     14  O   UNL     1       6.295   3.374  13.381  0.00  0.00    +0.000 OA
ATOM     15  H   UNL     1       6.009   2.769  14.104  0.00  0.00    +0.000 HD
ENDBRANCH  12  14
ENDBRANCH   9  12
ENDBRANCH   3   6
ENDBRANCH   1   2
BRANCH   1  16
ATOM     16  C   UNL     1       1.492   4.796  18.762  0.00  0.00    +0.000 C 
BRANCH  16  18
ATOM     17  C   UNL     1       0.976   2.773  20.293  0.00  0.00    +0.000 C 
ATOM     18  C   UNL     1       1.061   3.303  18.854  0.00  0.00    +0.000 C 
BRANCH  18  19
ATOM     19  C   UNL     1       1.971   2.378  18.052  0.00  0.00    +0.000 C 
ATOM     20  O   UNL     1       2.383   2.616  16.925  0.00  0.00    +0.000 OA
BRANCH  19  21
ATOM     21  O   UNL     1       2.271   1.229  18.697  0.00  0.00    +0.000 OA
ATOM     22  H   UNL     1       3.185   0.918  18.559  0.00  0.00    +0.000 HD
ENDBRANCH  19  21
ENDBRANCH  18  19
ENDBRANCH  16  18
ENDBRANCH   1  16
BRANCH   1  23
ATOM     23  C   UNL     1       2.975   6.304  20.354  0.00  0.00    +0.000 C 
BRANCH  23  24
ATOM     24  C   UNL     1       2.126   7.478  19.858  0.00  0.00    +0.000 A 
ATOM     25  C   UNL     1       1.219   8.102  20.719  0.00  0.00    +0.000 A 
ATOM     26  C   UNL     1       0.646   9.316  20.410  0.00  0.00    +0.000 A 
ATOM     27  C   UNL     1       0.875   9.937  19.182  0.00  0.00    +0.000 A 
ATOM     28  C   UNL     1       1.639   9.238  18.237  0.00  0.00    +0.000 A 
ATOM     29  C   UNL     1       2.271   8.021  18.575  0.00  0.00    +0.000 A 
BRANCH  27  30
ATOM     30  C   UNL     1       0.238  11.249  18.990  0.00  0.00    +0.000 A 
ATOM     31  C   UNL     1       1.034  12.359  18.620  0.00  0.00    +0.000 A 
ATOM     32  C   UNL     1       0.564  13.663  18.750  0.00  0.00    +0.000 A 
ATOM     33  C   UNL     1      -0.733  13.879  19.193  0.00  0.00    +0.000 A 
ATOM     34  C   UNL     1      -1.568  12.793  19.461  0.00  0.00    +0.000 A 
ATOM     35  C   UNL     1      -1.089  11.484  19.357  0.00  0.00    +0.000 A 
ENDBRANCH  27  30
ENDBRANCH  23  24
ENDBRANCH   1  23
TORSDOF 11
ENDMDL
MODEL 6
REMARK VINA RESULT:      -8.3      0.887      1.614
REMARK  Name = 
REMARK  12 active torsions:
REMARK  status: ('A' for Active; 'I' for Inactive)
REMARK    1  A    between atoms: C_1  and  C_2
REMARK    2  A    between atoms: C_2  and  C_3
REMARK    3  A    between atoms: C_2  and  C_29
REMARK    4  A    between atoms: C_3  and  C_4
REMARK    5  A    between atoms: C_4  and  C_5
REMARK    6  A    between atoms: C_4  and  N_18
REMARK    7  A    between atoms: C_5  and  C_6
REMARK    8  A    between atoms: C_9  and  C_10
REMARK    9  A    between atoms: C_19  and  C_21
REMARK   10  A    between atoms: C_24  and  C_25
REMARK   11  A    between atoms: C_25  and  O_27
REMARK   12  A    between atoms: C_29  and  O_31
REMARK                            x       y       z     vdW  Elec       q    Type
REMARK                         _______ _______ _______ _____ _____    ______ ____
ROOT
ATOM      1  C   UNL     1       3.265   5.044  18.478  0.00  0.00    +0.000 C 
ENDROOT
BRANCH   1   2
ATOM      2  N   UNL     1       4.077   4.965  17.260  0.00  0.00    +0.000 N 
ATOM      3  C   UNL     1       5.354   4.454  17.201  0.00  0.00    +0.000 C 
ATOM      4  O   UNL     1       5.948   4.034  18.186  0.00  0.00    +0.000 OA
ATOM      5  H   UNL     1       3.738   5.394  16.398  0.00  0.00    +0.000 HD
BRANCH   3   6
ATOM      6  C   UNL     1       5.949   4.474  15.861  0.00  0.00    +0.000 A 
ATOM      7  C   UNL     1       6.952   5.335  15.464  0.00  0.00    +0.000 A 
ATOM      8  N   UNL     1       7.189   5.055  14.151  0.00  0.00    +0.000 N 
ATOM      9  C   UNL     1       6.340   4.052  13.774  0.00  0.00    +0.000 A 
ATOM     10  N   UNL     1       5.588   3.648  14.792  0.00  0.00    +0.000 NA
ATOM     11  H   UNL     1       7.849   5.515  13.537  0.00  0.00    +0.000 HD
BRANCH   9  12
ATOM     12  C   UNL     1       6.279   3.519  12.430  0.00  0.00    +0.000 C 
ATOM     13  O   UNL     1       7.244   3.225  11.747  0.00  0.00    +0.000 OA
BRANCH  12  14
ATOM     14  O   UNL     1       4.995   3.391  12.019  0.00  0.00    +0.000 OA
ATOM     15  H   UNL     1       4.515   2.830  12.670  0.00  0.00    +0.000 HD
ENDBRANCH  12  14
ENDBRANCH   9  12
ENDBRANCH   3   6
ENDBRANCH   1   2
BRANCH   1  16
ATOM     16  C   UNL     1       1.776   4.871  18.147  0.00  0.00    +0.000 C 
BRANCH  16  18
ATOM     17  C   UNL     1       0.841   3.777  20.299  0.00  0.00    +0.000 C 
ATOM     18  C   UNL     1       1.159   3.602  18.807  0.00  0.00    +0.000 C 
BRANCH  18  19
ATOM     19  C   UNL     1       2.039   2.367  18.642  0.00  0.00    +0.000 C 
ATOM     20  O   UNL     1       2.712   1.871  19.535  0.00  0.00    +0.000 OA
BRANCH  19  21
ATOM     21  O   UNL     1       2.033   1.869  17.387  0.00  0.00    +0.000 OA
ATOM     22  H   UNL     1       1.793   2.517  16.698  0.00  0.00    +0.000 HD
ENDBRANCH  19  21
ENDBRANCH  18  19
ENDBRANCH  16  18
ENDBRANCH   1  16
BRANCH   1  23
ATOM     23  C   UNL     1       3.668   6.248  19.385  0.00  0.00    +0.000 C 
BRANCH  23  24
ATOM     24  C   UNL     1       2.700   7.425  19.239  0.00  0.00    +0.000 A 
ATOM     25  C   UNL     1       2.576   8.084  18.012  0.00  0.00    +0.000 A 
ATOM     26  C   UNL     1       1.536   8.952  17.759  0.00  0.00    +0.000 A 
ATOM     27  C   UNL     1       0.608   9.283  18.746  0.00  0.00    +0.000 A 
ATOM     28  C   UNL     1       0.823   8.771  20.033  0.00  0.00    +0.000 A 
ATOM     29  C   UNL     1       1.856   7.839  20.278  0.00  0.00    +0.000 A 
BRANCH  27  30
ATOM     30  C   UNL     1      -0.477  10.188  18.339  0.00  0.00    +0.000 A 
ATOM     31  C   UNL     1      -0.758  11.333  19.123  0.00  0.00    +0.000 A 
ATOM     32  C   UNL     1      -1.956  12.027  18.988  0.00  0.00    +0.000 A 
ATOM     33  C   UNL     1      -2.871  11.628  18.024  0.00  0.00    +0.000 A 
ATOM     34  C   UNL     1      -2.565  10.567  17.170  0.00  0.00    +0.000 A 
ATOM     35  C   UNL     1      -1.374   9.852  17.322  0.00  0.00    +0.000 A 
ENDBRANCH  27  30
ENDBRANCH  23  24
ENDBRANCH   1  23
TORSDOF 11
ENDMDL
MODEL 7
REMARK VINA RESULT:      -8.2      3.651      8.616
REMARK  Name = 
REMARK  12 active torsions:
REMARK  status: ('A' for Active; 'I' for Inactive)
REMARK    1  A    between atoms: C_1  and  C_2
REMARK    2  A    between atoms: C_2  and  C_3
REMARK    3  A    between atoms: C_2  and  C_29
REMARK    4  A    between atoms: C_3  and  C_4
REMARK    5  A    between atoms: C_4  and  C_5
REMARK    6  A    between atoms: C_4  and  N_18
REMARK    7  A    between atoms: C_5  and  C_6
REMARK    8  A    between atoms: C_9  and  C_10
REMARK    9  A    between atoms: C_19  and  C_21
REMARK   10  A    between atoms: C_24  and  C_25
REMARK   11  A    between atoms: C_25  and  O_27
REMARK   12  A    between atoms: C_29  and  O_31
REMARK                            x       y       z     vdW  Elec       q    Type
REMARK                         _______ _______ _______ _____ _____    ______ ____
ROOT
ATOM      1  C   UNL     1       2.616   6.022  19.164  0.00  0.00    +0.000 C 
ENDROOT
BRANCH   1   2
ATOM      2  N   UNL     1       2.077   7.382  19.070  0.00  0.00    +0.000 N 
ATOM      3  C   UNL     1       2.252   8.222  17.993  0.00  0.00    +0.000 C 
ATOM      4  O   UNL     1       2.910   7.911  17.007  0.00  0.00    +0.000 OA
ATOM      5  H   UNL     1       1.614   7.800  19.877  0.00  0.00    +0.000 HD
BRANCH   3   6
ATOM      6  C   UNL     1       1.601   9.528  18.135  0.00  0.00    +0.000 A 
ATOM      7  C   UNL     1       2.273  10.729  18.237  0.00  0.00    +0.000 A 
ATOM      8  N   UNL     1       1.312  11.684  18.391  0.00  0.00    +0.000 N 
ATOM      9  C   UNL     1       0.095  11.062  18.387  0.00  0.00    +0.000 A 
ATOM     10  N   UNL     1       0.223   9.753  18.204  0.00  0.00    +0.000 NA
ATOM     11  H   UNL     1       1.453  12.679  18.519  0.00  0.00    +0.000 HD
BRANCH   9  12
ATOM     12  C   UNL     1      -1.160  11.760  18.569  0.00  0.00    +0.000 C 
ATOM     13  O   UNL     1      -1.822  11.759  19.592  0.00  0.00    +0.000 OA
BRANCH  12  14
ATOM     14  O   UNL     1      -1.513  12.421  17.441  0.00  0.00    +0.000 OA
ATOM     15  H   UNL     1      -0.753  12.977  17.156  0.00  0.00    +0.000 HD
ENDBRANCH  12  14
ENDBRANCH   9  12
ENDBRANCH   3   6
ENDBRANCH   1   2
BRANCH   1  16
ATOM     16  C   UNL     1       1.725   5.148  20.057  0.00  0.00    +0.000 C 
BRANCH  16  18
ATOM     17  C   UNL     1       1.146   2.884  18.943  0.00  0.00    +0.000 C 
ATOM     18  C   UNL     1       2.054   3.631  19.931  0.00  0.00    +0.000 C 
BRANCH  18  19
ATOM     19  C   UNL     1       2.008   2.906  21.272  0.00  0.00    +0.000 C 
ATOM     20  O   UNL     1       2.994   2.525  21.888  0.00  0.00    +0.000 OA
BRANCH  19  21
ATOM     21  O   UNL     1       0.753   2.691  21.723  0.00  0.00    +0.000 OA
ATOM     22  H   UNL     1       0.706   2.373  22.644  0.00  0.00    +0.000 HD
ENDBRANCH  19  21
ENDBRANCH  18  19
ENDBRANCH  16  18
ENDBRANCH   1  16
BRANCH   1  23
ATOM     23  C   UNL     1       4.152   6.008  19.443  0.00  0.00    +0.000 C 
BRANCH  23  24
ATOM     24  C   UNL     1       4.948   5.495  18.240  0.00  0.00    +0.000 A 
ATOM     25  C   UNL     1       4.384   4.554  17.373  0.00  0.00    +0.000 A 
ATOM     26  C   UNL     1       4.943   4.276  16.145  0.00  0.00    +0.000 A 
ATOM     27  C   UNL     1       6.148   4.853  15.746  0.00  0.00    +0.000 A 
ATOM     28  C   UNL     1       6.818   5.659  16.678  0.00  0.00    +0.000 A 
ATOM     29  C   UNL     1       6.218   5.988  17.914  0.00  0.00    +0.000 A 
BRANCH  27  30
ATOM     30  C   UNL     1       6.619   4.506  14.397  0.00  0.00    +0.000 A 
ATOM     31  C   UNL     1       7.626   5.293  13.789  0.00  0.00    +0.000 A 
ATOM     32  C   UNL     1       7.869   5.228  12.420  0.00  0.00    +0.000 A 
ATOM     33  C   UNL     1       7.152   4.330  11.643  0.00  0.00    +0.000 A 
ATOM     34  C   UNL     1       6.230   3.471  12.242  0.00  0.00    +0.000 A 
ATOM     35  C   UNL     1       5.965   3.554  13.612  0.00  0.00    +0.000 A 
ENDBRANCH  27  30
ENDBRANCH  23  24
ENDBRANCH   1  23
TORSDOF 11
ENDMDL
MODEL 8
REMARK VINA RESULT:      -8.2      3.645      9.075
REMARK  Name = 
REMARK  12 active torsions:
REMARK  status: ('A' for Active; 'I' for Inactive)
REMARK    1  A    between atoms: C_1  and  C_2
REMARK    2  A    between atoms: C_2  and  C_3
REMARK    3  A    between atoms: C_2  and  C_29
REMARK    4  A    between atoms: C_3  and  C_4
REMARK    5  A    between atoms: C_4  and  C_5
REMARK    6  A    between atoms: C_4  and  N_18
REMARK    7  A    between atoms: C_5  and  C_6
REMARK    8  A    between atoms: C_9  and  C_10
REMARK    9  A    between atoms: C_19  and  C_21
REMARK   10  A    between atoms: C_24  and  C_25
REMARK   11  A    between atoms: C_25  and  O_27
REMARK   12  A    between atoms: C_29  and  O_31
REMARK                            x       y       z     vdW  Elec       q    Type
REMARK                         _______ _______ _______ _____ _____    ______ ____
ROOT
ATOM      1  C   UNL     1       2.604   5.685  19.122  0.00  0.00    +0.000 C 
ENDROOT
BRANCH   1   2
ATOM      2  N   UNL     1       2.021   6.867  19.765  0.00  0.00    +0.000 N 
ATOM      3  C   UNL     1       1.784   8.066  19.131  0.00  0.00    +0.000 C 
ATOM      4  O   UNL     1       2.069   8.265  17.956  0.00  0.00    +0.000 OA
ATOM      5  H   UNL     1       1.854   6.865  20.771  0.00  0.00    +0.000 HD
BRANCH   3   6
ATOM      6  C   UNL     1       1.180   9.090  19.988  0.00  0.00    +0.000 A 
ATOM      7  C   UNL     1       1.173  10.442  19.705  0.00  0.00    +0.000 A 
ATOM      8  N   UNL     1       0.554  11.042  20.761  0.00  0.00    +0.000 N 
ATOM      9  C   UNL     1       0.207  10.069  21.655  0.00  0.00    +0.000 A 
ATOM     10  N   UNL     1       0.543   8.863  21.212  0.00  0.00    +0.000 NA
ATOM     11  H   UNL     1       0.397  12.034  20.894  0.00  0.00    +0.000 HD
BRANCH   9  12
ATOM     12  C   UNL     1      -0.436  10.342  22.923  0.00  0.00    +0.000 C 
ATOM     13  O   UNL     1      -0.977  11.391  23.225  0.00  0.00    +0.000 OA
BRANCH  12  14
ATOM     14  O   UNL     1      -0.357   9.269  23.745  0.00  0.00    +0.000 OA
ATOM     15  H   UNL     1       0.391   9.410  24.369  0.00  0.00    +0.000 HD
ENDBRANCH  12  14
ENDBRANCH   9  12
ENDBRANCH   3   6
ENDBRANCH   1   2
BRANCH   1  16
ATOM     16  C   UNL     1       1.667   4.477  19.261  0.00  0.00    +0.000 C 
BRANCH  16  18
ATOM     17  C   UNL     1       2.209   1.990  18.789  0.00  0.00    +0.000 C 
ATOM     18  C   UNL     1       2.412   3.191  19.725  0.00  0.00    +0.000 C 
BRANCH  18  19
ATOM     19  C   UNL     1       2.031   2.769  21.141  0.00  0.00    +0.000 C 
ATOM     20  O   UNL     1       0.891   2.771  21.582  0.00  0.00    +0.000 OA
BRANCH  19  21
ATOM     21  O   UNL     1       3.092   2.410  21.896  0.00  0.00    +0.000 OA
ATOM     22  H   UNL     1       2.924   2.422  22.857  0.00  0.00    +0.000 HD
ENDBRANCH  19  21
ENDBRANCH  18  19
ENDBRANCH  16  18
ENDBRANCH   1  16
BRANCH   1  23
ATOM     23  C   UNL     1       4.105   5.481  19.499  0.00  0.00    +0.000 C 
BRANCH  23  24
ATOM     24  C   UNL     1       4.977   5.231  18.267  0.00  0.00    +0.000 A 
ATOM     25  C   UNL     1       4.937   3.994  17.616  0.00  0.00    +0.000 A 
ATOM     26  C   UNL     1       5.483   3.817  16.364  0.00  0.00    +0.000 A 
ATOM     27  C   UNL     1       6.181   4.841  15.723  0.00  0.00    +0.000 A 
ATOM     28  C   UNL     1       6.385   6.030  16.438  0.00  0.00    +0.000 A 
ATOM     29  C   UNL     1       5.778   6.230  17.697  0.00  0.00    +0.000 A 
BRANCH  27  30
ATOM     30  C   UNL     1       6.680   4.539  14.373  0.00  0.00    +0.000 A 
ATOM     31  C   UNL     1       7.621   5.408  13.770  0.00  0.00    +0.000 A 
ATOM     32  C   UNL     1       7.871   5.369  12.402  0.00  0.00    +0.000 A 
ATOM     33  C   UNL     1       7.230   4.420  11.618  0.00  0.00    +0.000 A 
ATOM     34  C   UNL     1       6.379   3.486  12.212  0.00  0.00    +0.000 A 
ATOM     35  C   UNL     1       6.107   3.541  13.582  0.00  0.00    +0.000 A 
ENDBRANCH  27  30
ENDBRANCH  23  24
ENDBRANCH   1  23
TORSDOF 11
ENDMDL
MODEL 9
REMARK VINA RESULT:      -8.1      1.435      2.122
REMARK  Name = 
REMARK  12 active torsions:
REMARK  status: ('A' for Active; 'I' for Inactive)
REMARK    1  A    between atoms: C_1  and  C_2
REMARK    2  A    between atoms: C_2  and  C_3
REMARK    3  A    between atoms: C_2  and  C_29
REMARK    4  A    between atoms: C_3  and  C_4
REMARK    5  A    between atoms: C_4  and  C_5
REMARK    6  A    between atoms: C_4  and  N_18
REMARK    7  A    between atoms: C_5  and  C_6
REMARK    8  A    between atoms: C_9  and  C_10
REMARK    9  A    between atoms: C_19  and  C_21
REMARK   10  A    between atoms: C_24  and  C_25
REMARK   11  A    between atoms: C_25  and  O_27
REMARK   12  A    between atoms: C_29  and  O_31
REMARK                            x       y       z     vdW  Elec       q    Type
REMARK                         _______ _______ _______ _____ _____    ______ ____
ROOT
ATOM      1  C   UNL     1       3.121   6.057  19.472  0.00  0.00    +0.000 C 
ENDROOT
BRANCH   1   2
ATOM      2  N   UNL     1       4.125   5.669  18.477  0.00  0.00    +0.000 N 
ATOM      3  C   UNL     1       5.434   5.356  18.766  0.00  0.00    +0.000 C 
ATOM      4  O   UNL     1       5.893   5.400  19.901  0.00  0.00    +0.000 OA
ATOM      5  H   UNL     1       3.896   5.712  17.484  0.00  0.00    +0.000 HD
BRANCH   3   6
ATOM      6  C   UNL     1       6.237   4.985  17.597  0.00  0.00    +0.000 A 
ATOM      7  C   UNL     1       7.556   4.581  17.651  0.00  0.00    +0.000 A 
ATOM      8  N   UNL     1       7.936   4.369  16.358  0.00  0.00    +0.000 N 
ATOM      9  C   UNL     1       6.867   4.647  15.554  0.00  0.00    +0.000 A 
ATOM     10  N   UNL     1       5.803   4.997  16.268  0.00  0.00    +0.000 NA
ATOM     11  H   UNL     1       8.850   4.086  16.028  0.00  0.00    +0.000 HD
BRANCH   9  12
ATOM     12  C   UNL     1       6.912   4.571  14.109  0.00  0.00    +0.000 C 
ATOM     13  O   UNL     1       7.461   5.379  13.380  0.00  0.00    +0.000 OA
BRANCH  12  14
ATOM     14  O   UNL     1       6.254   3.475  13.662  0.00  0.00    +0.000 OA
ATOM     15  H   UNL     1       6.046   3.605  12.708  0.00  0.00    +0.000 HD
ENDBRANCH  12  14
ENDBRANCH   9  12
ENDBRANCH   3   6
ENDBRANCH   1   2
BRANCH   1  16
ATOM     16  C   UNL     1       2.709   4.849  20.325  0.00  0.00    +0.000 C 
BRANCH  16  18
ATOM     17  C   UNL     1       0.716   3.225  20.023  0.00  0.00    +0.000 C 
ATOM     18  C   UNL     1       2.069   3.709  19.480  0.00  0.00    +0.000 C 
BRANCH  18  19
ATOM     19  C   UNL     1       2.988   2.501  19.329  0.00  0.00    +0.000 C 
ATOM     20  O   UNL     1       4.020   2.332  19.962  0.00  0.00    +0.000 OA
BRANCH  19  21
ATOM     21  O   UNL     1       2.569   1.622  18.392  0.00  0.00    +0.000 OA
ATOM     22  H   UNL     1       2.816   0.695  18.571  0.00  0.00    +0.000 HD
ENDBRANCH  19  21
ENDBRANCH  18  19
ENDBRANCH  16  18
ENDBRANCH   1  16
BRANCH   1  23
ATOM     23  C   UNL     1       1.981   6.929  18.859  0.00  0.00    +0.000 C 
BRANCH  23  24
ATOM     24  C   UNL     1       1.599   8.098  19.770  0.00  0.00    +0.000 A 
ATOM     25  C   UNL     1       1.271   9.340  19.220  0.00  0.00    +0.000 A 
ATOM     26  C   UNL     1       0.663  10.325  19.967  0.00  0.00    +0.000 A 
ATOM     27  C   UNL     1       0.428  10.162  21.333  0.00  0.00    +0.000 A 
ATOM     28  C   UNL     1       0.915   8.994  21.937  0.00  0.00    +0.000 A 
ATOM     29  C   UNL     1       1.488   7.962  21.160  0.00  0.00    +0.000 A 
BRANCH  27  30
ATOM     30  C   UNL     1      -0.264  11.269  22.009  0.00  0.00    +0.000 A 
ATOM     31  C   UNL     1      -1.279  10.981  22.951  0.00  0.00    +0.000 A 
ATOM     32  C   UNL     1      -2.183  11.955  23.365  0.00  0.00    +0.000 A 
ATOM     33  C   UNL     1      -2.050  13.253  22.890  0.00  0.00    +0.000 A 
ATOM     34  C   UNL     1      -0.991  13.580  22.043  0.00  0.00    +0.000 A 
ATOM     35  C   UNL     1      -0.099  12.597  21.606  0.00  0.00    +0.000 A 
ENDBRANCH  27  30
ENDBRANCH  23  24
ENDBRANCH   1  23
TORSDOF 11
ENDMDL
