MODEL 1
REMARK VINA RESULT:      -8.1      0.000      0.000
REMARK  Name = 
REMARK  8 active torsions:
REMARK  status: ('A' for Active; 'I' for Inactive)
REMARK    1  A    between atoms: C_2  and  O_3
REMARK    2  A    between atoms: C_2  and  C_4
REMARK    3  A    between atoms: C_4  and  C_5
REMARK    4  A    between atoms: C_5  and  N_6
REMARK    5  A    between atoms: C_5  and  C_27
REMARK    6  A    between atoms: C_7  and  C_9
REMARK    7  A    between atoms: C_11  and  C_12
REMARK    8  A    between atoms: C_15  and  C_16
REMARK                            x       y       z     vdW  Elec       q    Type
REMARK                         _______ _______ _______ _____ _____    ______ ____
ROOT
ATOM      1  C   UNL     1       1.821   8.599  18.513  0.00  0.00    +0.000 A 
ATOM      2  C   UNL     1       0.795   9.405  18.048  0.00  0.00    +0.000 A 
ATOM      3  C   UNL     1      -0.136   9.783  19.076  0.00  0.00    +0.000 A 
ATOM      4  C   UNL     1       0.282   9.280  20.290  0.00  0.00    +0.000 A 
ATOM      5  F   UNL     1      -0.379   9.418  21.411  0.00  0.00    +0.000 F 
ATOM      6  S   UNL     1       1.739   8.427  20.215  0.00  0.00    +0.000 S 
ENDROOT
BRANCH   3   7
ATOM      7  C   UNL     1      -1.396  10.507  18.904  0.00  0.00    +0.000 A 
ATOM      8  C   UNL     1      -2.353  10.044  17.994  0.00  0.00    +0.000 A 
ATOM      9  C   UNL     1      -3.587  10.695  17.857  0.00  0.00    +0.000 A 
ATOM     10  C   UNL     1      -3.914  11.820  18.632  0.00  0.00    +0.000 A 
ATOM     11  C   UNL     1      -2.936  12.283  19.527  0.00  0.00    +0.000 A 
ATOM     12  C   UNL     1      -1.695  11.649  19.652  0.00  0.00    +0.000 A 
BRANCH  10  13
ATOM     13  C   UNL     1      -5.233  12.485  18.523  0.00  0.00    +0.000 A 
ATOM     14  C   UNL     1      -5.974  12.459  17.333  0.00  0.00    +0.000 A 
ATOM     15  C   UNL     1      -7.208  13.091  17.283  0.00  0.00    +0.000 A 
ATOM     16  N   UNL     1      -7.766  13.735  18.326  0.00  0.00    +0.000 NA
ATOM     17  C   UNL     1      -7.053  13.752  19.470  0.00  0.00    +0.000 A 
ATOM     18  C   UNL     1      -5.806  13.160  19.612  0.00  0.00    +0.000 A 
ENDBRANCH  10  13
ENDBRANCH   3   7
BRANCH   1  20
ATOM     19  N   UNL     1       3.059   6.606  18.055  0.00  0.00    +0.000 N 
ATOM     20  C   UNL     1       2.834   7.927  17.717  0.00  0.00    +0.000 C 
ATOM     21  O   UNL     1       3.414   8.467  16.786  0.00  0.00    +0.000 OA
ATOM     22  H   UNL     1       2.565   6.239  18.857  0.00  0.00    +0.000 HD
BRANCH  19  23
ATOM     23  C   UNL     1       3.978   5.736  17.341  0.00  0.00    +0.000 C 
BRANCH  23  24
ATOM     24  C   UNL     1       5.378   5.965  17.865  0.00  0.00    +0.000 A 
ATOM     25  C   UNL     1       5.790   5.330  19.045  0.00  0.00    +0.000 A 
ATOM     26  C   UNL     1       7.074   5.536  19.550  0.00  0.00    +0.000 A 
ATOM     27  C   UNL     1       7.960   6.372  18.871  0.00  0.00    +0.000 A 
ATOM     28  C   UNL     1       7.572   6.994  17.687  0.00  0.00    +0.000 A 
ATOM     29  C   UNL     1       6.289   6.792  17.183  0.00  0.00    +0.000 A 
ENDBRANCH  23  24
BRANCH  23  30
ATOM     30  C   UNL     1       3.568   4.263  17.455  0.00  0.00    +0.000 C 
BRANCH  30  32
ATOM     31  O   UNL     1       1.151   4.142  17.353  0.00  0.00    +0.000 OA
ATOM     32  C   UNL     1       2.178   4.208  18.007  0.00  0.00    +0.000 C 
BRANCH  32  33
ATOM     33  O   UNL     1       2.174   4.128  19.351  0.00  0.00    +0.000 OA
ATOM     34  H   UNL     1       1.691   4.931  19.651  0.00  0.00    +0.000 HD
ENDBRANCH  32  33
ENDBRANCH  30  32
ENDBRANCH  23  30
ENDBRANCH  19  23
ENDBRANCH   1  20
TORSDOF 8
ENDMDL
MODEL 2
REMARK VINA RESULT:      -8.0      0.186      1.323
REMARK  Name = 
REMARK  8 active torsions:
REMARK  status: ('A' for Active; 'I' for Inactive)
REMARK    1  A    between atoms: C_2  and  O_3
REMARK    2  A    between atoms: C_2  and  C_4
REMARK    3  A    between atoms: C_4  and  C_5
REMARK    4  A    between atoms: C_5  and  N_6
REMARK    5  A    between atoms: C_5  and  C_27
REMARK    6  A    between atoms: C_7  and  C_9
REMARK    7  A    between atoms: C_11  and  C_12
REMARK    8  A    between atoms: C_15  and  C_16
REMARK                            x       y       z     vdW  Elec       q    Type
REMARK                         _______ _______ _______ _____ _____    ______ ____
ROOT
ATOM      1  C   UNL     1       1.745   8.600  18.574  0.00  0.00    +0.000 A 
ATOM      2  C   UNL     1       0.720   9.406  18.110  0.00  0.00    +0.000 A 
ATOM      3  C   UNL     1      -0.174   9.838  19.149  0.00  0.00    +0.000 A 
ATOM      4  C   UNL     1       0.272   9.373  20.369  0.00  0.00    +0.000 A 
ATOM      5  F   UNL     1      -0.353   9.563  21.503  0.00  0.00    +0.000 F 
ATOM      6  S   UNL     1       1.711   8.492  20.283  0.00  0.00    +0.000 S 
ENDROOT
BRANCH   3   7
ATOM      7  C   UNL     1      -1.426  10.577  18.988  0.00  0.00    +0.000 A 
ATOM      8  C   UNL     1      -2.384  10.143  18.064  0.00  0.00    +0.000 A 
ATOM      9  C   UNL     1      -3.611  10.809  17.936  0.00  0.00    +0.000 A 
ATOM     10  C   UNL     1      -3.931  11.921  18.733  0.00  0.00    +0.000 A 
ATOM     11  C   UNL     1      -2.952  12.355  19.642  0.00  0.00    +0.000 A 
ATOM     12  C   UNL     1      -1.718  11.706  19.759  0.00  0.00    +0.000 A 
BRANCH  10  13
ATOM     13  C   UNL     1      -5.243  12.599  18.633  0.00  0.00    +0.000 A 
ATOM     14  C   UNL     1      -5.752  13.375  19.685  0.00  0.00    +0.000 A 
ATOM     15  C   UNL     1      -6.983  13.996  19.541  0.00  0.00    +0.000 A 
ATOM     16  N   UNL     1      -7.741  13.917  18.430  0.00  0.00    +0.000 NA
ATOM     17  C   UNL     1      -7.244  13.176  17.419  0.00  0.00    +0.000 A 
ATOM     18  C   UNL     1      -6.030  12.507  17.475  0.00  0.00    +0.000 A 
ENDBRANCH  10  13
ENDBRANCH   3   7
BRANCH   1  20
ATOM     19  N   UNL     1       2.978   6.589  18.190  0.00  0.00    +0.000 N 
ATOM     20  C   UNL     1       2.723   7.881  17.774  0.00  0.00    +0.000 C 
ATOM     21  O   UNL     1       3.248   8.359  16.779  0.00  0.00    +0.000 OA
ATOM     22  H   UNL     1       2.530   6.275  19.041  0.00  0.00    +0.000 HD
BRANCH  19  23
ATOM     23  C   UNL     1       3.868   5.678  17.491  0.00  0.00    +0.000 C 
BRANCH  23  24
ATOM     24  C   UNL     1       5.292   5.953  17.923  0.00  0.00    +0.000 A 
ATOM     25  C   UNL     1       6.082   6.844  17.184  0.00  0.00    +0.000 A 
ATOM     26  C   UNL     1       7.400   7.102  17.561  0.00  0.00    +0.000 A 
ATOM     27  C   UNL     1       7.934   6.478  18.688  0.00  0.00    +0.000 A 
ATOM     28  C   UNL     1       7.155   5.605  19.443  0.00  0.00    +0.000 A 
ATOM     29  C   UNL     1       5.839   5.343  19.066  0.00  0.00    +0.000 A 
ENDBRANCH  23  24
BRANCH  23  30
ATOM     30  C   UNL     1       3.481   4.213  17.728  0.00  0.00    +0.000 C 
BRANCH  30  32
ATOM     31  O   UNL     1       1.750   4.182  19.422  0.00  0.00    +0.000 OA
ATOM     32  C   UNL     1       2.078   4.181  18.248  0.00  0.00    +0.000 C 
BRANCH  32  33
ATOM     33  O   UNL     1       1.173   4.264  17.255  0.00  0.00    +0.000 OA
ATOM     34  H   UNL     1       1.461   3.596  16.593  0.00  0.00    +0.000 HD
ENDBRANCH  32  33
ENDBRANCH  30  32
ENDBRANCH  23  30
ENDBRANCH  19  23
ENDBRANCH   1  20
TORSDOF 8
ENDMDL
MODEL 3
REMARK VINA RESULT:      -7.9      1.700      2.187
REMARK  Name = 
REMARK  8 active torsions:
REMARK  status: ('A' for Active; 'I' for Inactive)
REMARK    1  A    between atoms: C_2  and  O_3
REMARK    2  A    between atoms: C_2  and  C_4
REMARK    3  A    between atoms: C_4  and  C_5
REMARK    4  A    between atoms: C_5  and  N_6
REMARK    5  A    between atoms: C_5  and  C_27
REMARK    6  A    between atoms: C_7  and  C_9
REMARK    7  A    between atoms: C_11  and  C_12
REMARK    8  A    between atoms: C_15  and  C_16
REMARK                            x       y       z     vdW  Elec       q    Type
REMARK                         _______ _______ _______ _____ _____    ______ ____
ROOT
ATOM      1  C   UNL     1       1.661   8.497  19.318  0.00  0.00    +0.000 A 
ATOM      2  C   UNL     1       0.983   9.704  19.271  0.00  0.00    +0.000 A 
ATOM      3  C   UNL     1       0.103   9.901  20.390  0.00  0.00    +0.000 A 
ATOM      4  C   UNL     1       0.214   8.838  21.263  0.00  0.00    +0.000 A 
ATOM      5  F   UNL     1      -0.493   8.706  22.356  0.00  0.00    +0.000 F 
ATOM      6  S   UNL     1       1.345   7.676  20.788  0.00  0.00    +0.000 S 
ENDROOT
BRANCH   3   7
ATOM      7  C   UNL     1      -0.853  10.992  20.581  0.00  0.00    +0.000 A 
ATOM      8  C   UNL     1      -1.697  11.377  19.534  0.00  0.00    +0.000 A 
ATOM      9  C   UNL     1      -2.656  12.384  19.717  0.00  0.00    +0.000 A 
ATOM     10  C   UNL     1      -2.814  13.031  20.954  0.00  0.00    +0.000 A 
ATOM     11  C   UNL     1      -1.947  12.646  21.990  0.00  0.00    +0.000 A 
ATOM     12  C   UNL     1      -0.975  11.656  21.805  0.00  0.00    +0.000 A 
BRANCH  10  13
ATOM     13  C   UNL     1      -3.855  14.063  21.166  0.00  0.00    +0.000 A 
ATOM     14  C   UNL     1      -5.213  13.795  20.945  0.00  0.00    +0.000 A 
ATOM     15  C   UNL     1      -6.151  14.793  21.163  0.00  0.00    +0.000 A 
ATOM     16  N   UNL     1      -5.844  16.032  21.596  0.00  0.00    +0.000 NA
ATOM     17  C   UNL     1      -4.538  16.283  21.813  0.00  0.00    +0.000 A 
ATOM     18  C   UNL     1      -3.528  15.354  21.610  0.00  0.00    +0.000 A 
ENDBRANCH  10  13
ENDBRANCH   3   7
BRANCH   1  20
ATOM     19  N   UNL     1       2.984   6.660  18.551  0.00  0.00    +0.000 N 
ATOM     20  C   UNL     1       2.504   7.927  18.281  0.00  0.00    +0.000 C 
ATOM     21  O   UNL     1       2.737   8.499  17.226  0.00  0.00    +0.000 OA
ATOM     22  H   UNL     1       2.775   6.266  19.459  0.00  0.00    +0.000 HD
BRANCH  19  23
ATOM     23  C   UNL     1       3.786   5.886  17.619  0.00  0.00    +0.000 C 
BRANCH  23  24
ATOM     24  C   UNL     1       5.249   6.083  17.949  0.00  0.00    +0.000 A 
ATOM     25  C   UNL     1       5.821   5.380  19.018  0.00  0.00    +0.000 A 
ATOM     26  C   UNL     1       7.166   5.556  19.343  0.00  0.00    +0.000 A 
ATOM     27  C   UNL     1       7.952   6.430  18.593  0.00  0.00    +0.000 A 
ATOM     28  C   UNL     1       7.403   7.121  17.516  0.00  0.00    +0.000 A 
ATOM     29  C   UNL     1       6.059   6.949  17.192  0.00  0.00    +0.000 A 
ENDBRANCH  23  24
BRANCH  23  30
ATOM     30  C   UNL     1       3.400   4.401  17.637  0.00  0.00    +0.000 C 
BRANCH  30  32
ATOM     31  O   UNL     1       1.773   4.265  19.425  0.00  0.00    +0.000 OA
ATOM     32  C   UNL     1       2.033   4.283  18.235  0.00  0.00    +0.000 C 
BRANCH  32  33
ATOM     33  O   UNL     1       1.070   4.309  17.294  0.00  0.00    +0.000 OA
ATOM     34  H   UNL     1       0.706   3.395  17.279  0.00  0.00    +0.000 HD
ENDBRANCH  32  33
ENDBRANCH  30  32
ENDBRANCH  23  30
ENDBRANCH  19  23
ENDBRANCH   1  20
TORSDOF 8
ENDMDL
MODEL 4
REMARK VINA RESULT:      -7.8      3.658     10.800
REMARK  Name = 
REMARK  8 active torsions:
REMARK  status: ('A' for Active; 'I' for Inactive)
REMARK    1  A    between atoms: C_2  and  O_3
REMARK    2  A    between atoms: C_2  and  C_4
REMARK    3  A    between atoms: C_4  and  C_5
REMARK    4  A    between atoms: C_5  and  N_6
REMARK    5  A    between atoms: C_5  and  C_27
REMARK    6  A    between atoms: C_7  and  C_9
REMARK    7  A    between atoms: C_11  and  C_12
REMARK    8  A    between atoms: C_15  and  C_16
REMARK                            x       y       z     vdW  Elec       q    Type
REMARK                         _______ _______ _______ _____ _____    ______ ____
ROOT
ATOM      1  C   UNL     1      -0.844  11.136  20.597  0.00  0.00    +0.000 A 
ATOM      2  C   UNL     1      -0.250  10.324  19.647  0.00  0.00    +0.000 A 
ATOM      3  C   UNL     1       0.748   9.448  20.197  0.00  0.00    +0.000 A 
ATOM      4  C   UNL     1       0.807   9.612  21.566  0.00  0.00    +0.000 A 
ATOM      5  F   UNL     1       1.650   8.985  22.347  0.00  0.00    +0.000 F 
ATOM      6  S   UNL     1      -0.303  10.733  22.171  0.00  0.00    +0.000 S 
ENDROOT
BRANCH   3   7
ATOM      7  C   UNL     1       1.654   8.567  19.460  0.00  0.00    +0.000 A 
ATOM      8  C   UNL     1       2.028   7.332  20.001  0.00  0.00    +0.000 A 
ATOM      9  C   UNL     1       2.852   6.454  19.283  0.00  0.00    +0.000 A 
ATOM     10  C   UNL     1       3.320   6.771  17.997  0.00  0.00    +0.000 A 
ATOM     11  C   UNL     1       2.952   8.022  17.476  0.00  0.00    +0.000 A 
ATOM     12  C   UNL     1       2.146   8.910  18.198  0.00  0.00    +0.000 A 
BRANCH  10  13
ATOM     13  C   UNL     1       4.154   5.828  17.217  0.00  0.00    +0.000 A 
ATOM     14  C   UNL     1       5.054   6.277  16.240  0.00  0.00    +0.000 A 
ATOM     15  C   UNL     1       5.817   5.355  15.539  0.00  0.00    +0.000 A 
ATOM     16  N   UNL     1       5.765   4.024  15.744  0.00  0.00    +0.000 NA
ATOM     17  C   UNL     1       4.903   3.598  16.689  0.00  0.00    +0.000 A 
ATOM     18  C   UNL     1       4.090   4.442  17.430  0.00  0.00    +0.000 A 
ENDBRANCH  10  13
ENDBRANCH   3   7
BRANCH   1  20
ATOM     19  N   UNL     1      -2.895  12.227  21.164  0.00  0.00    +0.000 N 
ATOM     20  C   UNL     1      -1.774  12.228  20.356  0.00  0.00    +0.000 C 
ATOM     21  O   UNL     1      -1.565  13.110  19.536  0.00  0.00    +0.000 OA
ATOM     22  H   UNL     1      -3.014  11.447  21.796  0.00  0.00    +0.000 HD
BRANCH  19  23
ATOM     23  C   UNL     1      -3.911  13.265  21.133  0.00  0.00    +0.000 C 
BRANCH  23  24
ATOM     24  C   UNL     1      -5.160  12.710  20.485  0.00  0.00    +0.000 A 
ATOM     25  C   UNL     1      -5.173  12.456  19.107  0.00  0.00    +0.000 A 
ATOM     26  C   UNL     1      -6.319  11.953  18.489  0.00  0.00    +0.000 A 
ATOM     27  C   UNL     1      -7.458  11.691  19.250  0.00  0.00    +0.000 A 
ATOM     28  C   UNL     1      -7.454  11.920  20.623  0.00  0.00    +0.000 A 
ATOM     29  C   UNL     1      -6.312  12.424  21.241  0.00  0.00    +0.000 A 
ENDBRANCH  23  24
BRANCH  23  30
ATOM     30  C   UNL     1      -4.202  13.816  22.534  0.00  0.00    +0.000 C 
BRANCH  30  32
ATOM     31  O   UNL     1      -2.186  13.483  23.834  0.00  0.00    +0.000 OA
ATOM     32  C   UNL     1      -3.301  13.118  23.504  0.00  0.00    +0.000 C 
BRANCH  32  33
ATOM     33  O   UNL     1      -3.906  12.063  24.083  0.00  0.00    +0.000 OA
ATOM     34  H   UNL     1      -3.496  11.274  23.662  0.00  0.00    +0.000 HD
ENDBRANCH  32  33
ENDBRANCH  30  32
ENDBRANCH  23  30
ENDBRANCH  19  23
ENDBRANCH   1  20
TORSDOF 8
ENDMDL
MODEL 5
REMARK VINA RESULT:      -7.8      1.842      2.636
REMARK  Name = 
REMARK  8 active torsions:
REMARK  status: ('A' for Active; 'I' for Inactive)
REMARK    1  A    between atoms: C_2  and  O_3
REMARK    2  A    between atoms: C_2  and  C_4
REMARK    3  A    between atoms: C_4  and  C_5
REMARK    4  A    between atoms: C_5  and  N_6
REMARK    5  A    between atoms: C_5  and  C_27
REMARK    6  A    between atoms: C_7  and  C_9
REMARK    7  A    between atoms: C_11  and  C_12
REMARK    8  A    between atoms: C_15  and  C_16
REMARK                            x       y       z     vdW  Elec       q    Type
REMARK                         _______ _______ _______ _____ _____    ______ ____
ROOT
ATOM      1  C   UNL     1       1.663   8.494  19.346  0.00  0.00    +0.000 A 
ATOM      2  C   UNL     1       0.989   9.703  19.304  0.00  0.00    +0.000 A 
ATOM      3  C   UNL     1       0.120   9.905  20.431  0.00  0.00    +0.000 A 
ATOM      4  C   UNL     1       0.236   8.843  21.303  0.00  0.00    +0.000 A 
ATOM      5  F   UNL     1      -0.462   8.714  22.403  0.00  0.00    +0.000 F 
ATOM      6  S   UNL     1       1.358   7.675  20.819  0.00  0.00    +0.000 S 
ENDROOT
BRANCH   3   7
ATOM      7  C   UNL     1      -0.830  10.999  20.629  0.00  0.00    +0.000 A 
ATOM      8  C   UNL     1      -0.887  11.667  21.857  0.00  0.00    +0.000 A 
ATOM      9  C   UNL     1      -1.753  12.753  22.045  0.00  0.00    +0.000 A 
ATOM     10  C   UNL     1      -2.583  13.218  21.011  0.00  0.00    +0.000 A 
ATOM     11  C   UNL     1      -2.528  12.527  19.790  0.00  0.00    +0.000 A 
ATOM     12  C   UNL     1      -1.679  11.429  19.605  0.00  0.00    +0.000 A 
BRANCH  10  13
ATOM     13  C   UNL     1      -3.467  14.392  21.191  0.00  0.00    +0.000 A 
ATOM     14  C   UNL     1      -4.772  14.416  20.677  0.00  0.00    +0.000 A 
ATOM     15  C   UNL     1      -5.564  15.537  20.877  0.00  0.00    +0.000 A 
ATOM     16  N   UNL     1      -5.165  16.629  21.557  0.00  0.00    +0.000 NA
ATOM     17  C   UNL     1      -3.912  16.599  22.053  0.00  0.00    +0.000 A 
ATOM     18  C   UNL     1      -3.043  15.530  21.894  0.00  0.00    +0.000 A 
ENDBRANCH  10  13
ENDBRANCH   3   7
BRANCH   1  20
ATOM     19  N   UNL     1       2.990   6.661  18.577  0.00  0.00    +0.000 N 
ATOM     20  C   UNL     1       2.495   7.921  18.301  0.00  0.00    +0.000 C 
ATOM     21  O   UNL     1       2.706   8.483  17.237  0.00  0.00    +0.000 OA
ATOM     22  H   UNL     1       2.799   6.274  19.492  0.00  0.00    +0.000 HD
BRANCH  19  23
ATOM     23  C   UNL     1       3.784   5.883  17.641  0.00  0.00    +0.000 C 
BRANCH  23  24
ATOM     24  C   UNL     1       5.250   6.073  17.964  0.00  0.00    +0.000 A 
ATOM     25  C   UNL     1       6.022   6.953  17.193  0.00  0.00    +0.000 A 
ATOM     26  C   UNL     1       7.377   7.134  17.469  0.00  0.00    +0.000 A 
ATOM     27  C   UNL     1       7.968   6.442  18.526  0.00  0.00    +0.000 A 
ATOM     28  C   UNL     1       7.209   5.580  19.312  0.00  0.00    +0.000 A 
ATOM     29  C   UNL     1       5.856   5.395  19.037  0.00  0.00    +0.000 A 
ENDBRANCH  23  24
BRANCH  23  30
ATOM     30  C   UNL     1       3.392   4.401  17.659  0.00  0.00    +0.000 C 
BRANCH  30  32
ATOM     31  O   UNL     1       1.740   4.247  19.424  0.00  0.00    +0.000 OA
ATOM     32  C   UNL     1       2.015   4.291  18.238  0.00  0.00    +0.000 C 
BRANCH  32  33
ATOM     33  O   UNL     1       1.065   4.357  17.287  0.00  0.00    +0.000 OA
ATOM     34  H   UNL     1       0.606   3.487  17.326  0.00  0.00    +0.000 HD
ENDBRANCH  32  33
ENDBRANCH  30  32
ENDBRANCH  23  30
ENDBRANCH  19  23
ENDBRANCH   1  20
TORSDOF 8
ENDMDL
MODEL 6
REMARK VINA RESULT:      -7.8      3.835     10.876
REMARK  Name = 
REMARK  8 active torsions:
REMARK  status: ('A' for Active; 'I' for Inactive)
REMARK    1  A    between atoms: C_2  and  O_3
REMARK    2  A    between atoms: C_2  and  C_4
REMARK    3  A    between atoms: C_4  and  C_5
REMARK    4  A    between atoms: C_5  and  N_6
REMARK    5  A    between atoms: C_5  and  C_27
REMARK    6  A    between atoms: C_7  and  C_9
REMARK    7  A    between atoms: C_11  and  C_12
REMARK    8  A    between atoms: C_15  and  C_16
REMARK                            x       y       z     vdW  Elec       q    Type
REMARK                         _______ _______ _______ _____ _____    ______ ____
ROOT
ATOM      1  C   UNL     1      -1.320  11.604  21.153  0.00  0.00    +0.000 A 
ATOM      2  C   UNL     1      -0.729  10.824  20.174  0.00  0.00    +0.000 A 
ATOM      3  C   UNL     1       0.214   9.876  20.700  0.00  0.00    +0.000 A 
ATOM      4  C   UNL     1       0.238   9.958  22.077  0.00  0.00    +0.000 A 
ATOM      5  F   UNL     1       1.030   9.253  22.843  0.00  0.00    +0.000 F 
ATOM      6  S   UNL     1      -0.844  11.089  22.715  0.00  0.00    +0.000 S 
ENDROOT
BRANCH   3   7
ATOM      7  C   UNL     1       1.107   9.002  19.939  0.00  0.00    +0.000 A 
ATOM      8  C   UNL     1       1.567   7.806  20.501  0.00  0.00    +0.000 A 
ATOM      9  C   UNL     1       2.378   6.932  19.764  0.00  0.00    +0.000 A 
ATOM     10  C   UNL     1       2.748   7.213  18.438  0.00  0.00    +0.000 A 
ATOM     11  C   UNL     1       2.294   8.426  17.895  0.00  0.00    +0.000 A 
ATOM     12  C   UNL     1       1.501   9.311  18.634  0.00  0.00    +0.000 A 
BRANCH  10  13
ATOM     13  C   UNL     1       3.568   6.273  17.641  0.00  0.00    +0.000 A 
ATOM     14  C   UNL     1       4.616   6.720  16.824  0.00  0.00    +0.000 A 
ATOM     15  C   UNL     1       5.359   5.799  16.101  0.00  0.00    +0.000 A 
ATOM     16  N   UNL     1       5.150   4.469  16.137  0.00  0.00    +0.000 NA
ATOM     17  C   UNL     1       4.146   4.043  16.929  0.00  0.00    +0.000 A 
ATOM     18  C   UNL     1       3.341   4.888  17.678  0.00  0.00    +0.000 A 
ENDBRANCH  10  13
ENDBRANCH   3   7
BRANCH   1  20
ATOM     19  N   UNL     1      -3.430  12.650  21.567  0.00  0.00    +0.000 N 
ATOM     20  C   UNL     1      -2.197  12.746  20.950  0.00  0.00    +0.000 C 
ATOM     21  O   UNL     1      -1.859  13.739  20.323  0.00  0.00    +0.000 OA
ATOM     22  H   UNL     1      -3.648  11.784  22.040  0.00  0.00    +0.000 HD
BRANCH  19  23
ATOM     23  C   UNL     1      -4.425  13.708  21.547  0.00  0.00    +0.000 C 
BRANCH  23  24
ATOM     24  C   UNL     1      -5.518  13.335  20.570  0.00  0.00    +0.000 A 
ATOM     25  C   UNL     1      -6.531  14.259  20.275  0.00  0.00    +0.000 A 
ATOM     26  C   UNL     1      -7.553  13.930  19.384  0.00  0.00    +0.000 A 
ATOM     27  C   UNL     1      -7.563  12.676  18.774  0.00  0.00    +0.000 A 
ATOM     28  C   UNL     1      -6.554  11.756  19.041  0.00  0.00    +0.000 A 
ATOM     29  C   UNL     1      -5.534  12.081  19.933  0.00  0.00    +0.000 A 
ENDBRANCH  23  24
BRANCH  23  30
ATOM     30  C   UNL     1      -4.991  13.981  22.946  0.00  0.00    +0.000 C 
BRANCH  30  32
ATOM     31  O   UNL     1      -4.478  12.031  24.288  0.00  0.00    +0.000 OA
ATOM     32  C   UNL     1      -4.211  13.165  23.930  0.00  0.00    +0.000 C 
BRANCH  32  33
ATOM     33  O   UNL     1      -3.081  13.787  24.314  0.00  0.00    +0.000 OA
ATOM     34  H   UNL     1      -2.822  14.341  23.543  0.00  0.00    +0.000 HD
ENDBRANCH  32  33
ENDBRANCH  30  32
ENDBRANCH  23  30
ENDBRANCH  19  23
ENDBRANCH   1  20
TORSDOF 8
ENDMDL
MODEL 7
REMARK VINA RESULT:      -7.7      1.975      2.514
REMARK  Name = 
REMARK  8 active torsions:
REMARK  status: ('A' for Active; 'I' for Inactive)
REMARK    1  A    between atoms: C_2  and  O_3
REMARK    2  A    between atoms: C_2  and  C_4
REMARK    3  A    between atoms: C_4  and  C_5
REMARK    4  A    between atoms: C_5  and  N_6
REMARK    5  A    between atoms: C_5  and  C_27
REMARK    6  A    between atoms: C_7  and  C_9
REMARK    7  A    between atoms: C_11  and  C_12
REMARK    8  A    between atoms: C_15  and  C_16
REMARK                            x       y       z     vdW  Elec       q    Type
REMARK                         _______ _______ _______ _____ _____    ______ ____
ROOT
ATOM      1  C   UNL     1       1.660   8.485  19.359  0.00  0.00    +0.000 A 
ATOM      2  C   UNL     1       1.013   9.708  19.320  0.00  0.00    +0.000 A 
ATOM      3  C   UNL     1       0.134   9.918  20.437  0.00  0.00    +0.000 A 
ATOM      4  C   UNL     1       0.215   8.846  21.301  0.00  0.00    +0.000 A 
ATOM      5  F   UNL     1      -0.500   8.722  22.390  0.00  0.00    +0.000 F 
ATOM      6  S   UNL     1       1.318   7.659  20.820  0.00  0.00    +0.000 S 
ENDROOT
BRANCH   3   7
ATOM      7  C   UNL     1      -0.795  11.031  20.634  0.00  0.00    +0.000 A 
ATOM      8  C   UNL     1      -0.776  11.761  21.828  0.00  0.00    +0.000 A 
ATOM      9  C   UNL     1      -1.622  12.863  22.009  0.00  0.00    +0.000 A 
ATOM     10  C   UNL     1      -2.506  13.285  21.003  0.00  0.00    +0.000 A 
ATOM     11  C   UNL     1      -2.527  12.532  19.818  0.00  0.00    +0.000 A 
ATOM     12  C   UNL     1      -1.699  11.418  19.640  0.00  0.00    +0.000 A 
BRANCH  10  13
ATOM     13  C   UNL     1      -3.370  14.476  21.173  0.00  0.00    +0.000 A 
ATOM     14  C   UNL     1      -2.904  15.768  20.894  0.00  0.00    +0.000 A 
ATOM     15  C   UNL     1      -3.753  16.852  21.063  0.00  0.00    +0.000 A 
ATOM     16  N   UNL     1      -5.031  16.748  21.475  0.00  0.00    +0.000 NA
ATOM     17  C   UNL     1      -5.477  15.503  21.735  0.00  0.00    +0.000 A 
ATOM     18  C   UNL     1      -4.699  14.362  21.608  0.00  0.00    +0.000 A 
ENDBRANCH  10  13
ENDBRANCH   3   7
BRANCH   1  20
ATOM     19  N   UNL     1       2.970   6.636  18.596  0.00  0.00    +0.000 N 
ATOM     20  C   UNL     1       2.493   7.903  18.319  0.00  0.00    +0.000 C 
ATOM     21  O   UNL     1       2.719   8.464  17.258  0.00  0.00    +0.000 OA
ATOM     22  H   UNL     1       2.766   6.250  19.509  0.00  0.00    +0.000 HD
BRANCH  19  23
ATOM     23  C   UNL     1       3.761   5.851  17.665  0.00  0.00    +0.000 C 
BRANCH  23  24
ATOM     24  C   UNL     1       5.228   6.072  17.959  0.00  0.00    +0.000 A 
ATOM     25  C   UNL     1       5.834   5.387  19.020  0.00  0.00    +0.000 A 
ATOM     26  C   UNL     1       7.184   5.585  19.313  0.00  0.00    +0.000 A 
ATOM     27  C   UNL     1       7.940   6.464  18.538  0.00  0.00    +0.000 A 
ATOM     28  C   UNL     1       7.356   7.136  17.468  0.00  0.00    +0.000 A 
ATOM     29  C   UNL     1       6.008   6.942  17.175  0.00  0.00    +0.000 A 
ENDBRANCH  23  24
BRANCH  23  30
ATOM     30  C   UNL     1       3.393   4.363  17.722  0.00  0.00    +0.000 C 
BRANCH  30  32
ATOM     31  O   UNL     1       1.016   4.337  17.259  0.00  0.00    +0.000 OA
ATOM     32  C   UNL     1       1.937   4.256  18.053  0.00  0.00    +0.000 C 
BRANCH  32  33
ATOM     33  O   UNL     1       1.738   3.942  19.347  0.00  0.00    +0.000 OA
ATOM     34  H   UNL     1       1.213   4.691  19.711  0.00  0.00    +0.000 HD
ENDBRANCH  32  33
ENDBRANCH  30  32
ENDBRANCH  23  30
ENDBRANCH  19  23
ENDBRANCH   1  20
TORSDOF 8
ENDMDL
MODEL 8
REMARK VINA RESULT:      -7.7      3.423      5.087
REMARK  Name = 
REMARK  8 active torsions:
REMARK  status: ('A' for Active; 'I' for Inactive)
REMARK    1  A    between atoms: C_2  and  O_3
REMARK    2  A    between atoms: C_2  and  C_4
REMARK    3  A    between atoms: C_4  and  C_5
REMARK    4  A    between atoms: C_5  and  N_6
REMARK    5  A    between atoms: C_5  and  C_27
REMARK    6  A    between atoms: C_7  and  C_9
REMARK    7  A    between atoms: C_11  and  C_12
REMARK    8  A    between atoms: C_15  and  C_16
REMARK                            x       y       z     vdW  Elec       q    Type
REMARK                         _______ _______ _______ _____ _____    ______ ____
ROOT
ATOM      1  C   UNL     1       3.716   4.723  19.522  0.00  0.00    +0.000 A 
ATOM      2  C   UNL     1       3.577   6.100  19.498  0.00  0.00    +0.000 A 
ATOM      3  C   UNL     1       2.304   6.548  19.993  0.00  0.00    +0.000 A 
ATOM      4  C   UNL     1       1.565   5.465  20.424  0.00  0.00    +0.000 A 
ATOM      5  F   UNL     1       0.344   5.545  20.887  0.00  0.00    +0.000 F 
ATOM      6  S   UNL     1       2.368   3.986  20.280  0.00  0.00    +0.000 S 
ENDROOT
BRANCH   3   7
ATOM      7  C   UNL     1       1.781   7.914  19.978  0.00  0.00    +0.000 A 
ATOM      8  C   UNL     1       1.741   8.639  18.782  0.00  0.00    +0.000 A 
ATOM      9  C   UNL     1       1.193   9.929  18.742  0.00  0.00    +0.000 A 
ATOM     10  C   UNL     1       0.655  10.535  19.889  0.00  0.00    +0.000 A 
ATOM     11  C   UNL     1       0.719   9.802  21.085  0.00  0.00    +0.000 A 
ATOM     12  C   UNL     1       1.284   8.523  21.134  0.00  0.00    +0.000 A 
BRANCH  10  13
ATOM     13  C   UNL     1       0.035  11.879  19.842  0.00  0.00    +0.000 A 
ATOM     14  C   UNL     1       0.487  12.867  18.956  0.00  0.00    +0.000 A 
ATOM     15  C   UNL     1      -0.130  14.109  18.946  0.00  0.00    +0.000 A 
ATOM     16  N   UNL     1      -1.169  14.439  19.737  0.00  0.00    +0.000 NA
ATOM     17  C   UNL     1      -1.604  13.484  20.582  0.00  0.00    +0.000 A 
ATOM     18  C   UNL     1      -1.043  12.219  20.674  0.00  0.00    +0.000 A 
ENDBRANCH  10  13
ENDBRANCH   3   7
BRANCH   1  20
ATOM     19  N   UNL     1       5.602   4.623  18.056  0.00  0.00    +0.000 N 
ATOM     20  C   UNL     1       4.808   3.945  18.961  0.00  0.00    +0.000 C 
ATOM     21  O   UNL     1       5.042   2.792  19.294  0.00  0.00    +0.000 OA
ATOM     22  H   UNL     1       5.325   5.563  17.806  0.00  0.00    +0.000 HD
BRANCH  19  23
ATOM     23  C   UNL     1       6.783   4.051  17.433  0.00  0.00    +0.000 C 
BRANCH  23  24
ATOM     24  C   UNL     1       6.675   4.215  15.933  0.00  0.00    +0.000 A 
ATOM     25  C   UNL     1       7.595   5.026  15.255  0.00  0.00    +0.000 A 
ATOM     26  C   UNL     1       7.505   5.197  13.873  0.00  0.00    +0.000 A 
ATOM     27  C   UNL     1       6.498   4.548  13.158  0.00  0.00    +0.000 A 
ATOM     28  C   UNL     1       5.589   3.724  13.815  0.00  0.00    +0.000 A 
ATOM     29  C   UNL     1       5.675   3.554  15.195  0.00  0.00    +0.000 A 
ENDBRANCH  23  24
BRANCH  23  30
ATOM     30  C   UNL     1       8.072   4.681  17.976  0.00  0.00    +0.000 C 
BRANCH  30  32
ATOM     31  O   UNL     1       7.372   6.969  18.353  0.00  0.00    +0.000 OA
ATOM     32  C   UNL     1       7.696   5.879  18.791  0.00  0.00    +0.000 C 
BRANCH  32  33
ATOM     33  O   UNL     1       7.642   5.594  20.106  0.00  0.00    +0.000 OA
ATOM     34  H   UNL     1       8.033   4.694  20.187  0.00  0.00    +0.000 HD
ENDBRANCH  32  33
ENDBRANCH  30  32
ENDBRANCH  23  30
ENDBRANCH  19  23
ENDBRANCH   1  20
TORSDOF 8
ENDMDL
MODEL 9
REMARK VINA RESULT:      -7.7      1.669      2.381
REMARK  Name = 
REMARK  8 active torsions:
REMARK  status: ('A' for Active; 'I' for Inactive)
REMARK    1  A    between atoms: C_2  and  O_3
REMARK    2  A    between atoms: C_2  and  C_4
REMARK    3  A    between atoms: C_4  and  C_5
REMARK    4  A    between atoms: C_5  and  N_6
REMARK    5  A    between atoms: C_5  and  C_27
REMARK    6  A    between atoms: C_7  and  C_9
REMARK    7  A    between atoms: C_11  and  C_12
REMARK    8  A    between atoms: C_15  and  C_16
REMARK                            x       y       z     vdW  Elec       q    Type
REMARK                         _______ _______ _______ _____ _____    ______ ____
ROOT
ATOM      1  C   UNL     1       1.693   8.474  19.318  0.00  0.00    +0.000 A 
ATOM      2  C   UNL     1       1.002   9.673  19.282  0.00  0.00    +0.000 A 
ATOM      3  C   UNL     1       0.130   9.856  20.410  0.00  0.00    +0.000 A 
ATOM      4  C   UNL     1       0.261   8.790  21.277  0.00  0.00    +0.000 A 
ATOM      5  F   UNL     1      -0.435   8.645  22.375  0.00  0.00    +0.000 F 
ATOM      6  S   UNL     1       1.400   7.642  20.786  0.00  0.00    +0.000 S 
ENDROOT
BRANCH   3   7
ATOM      7  C   UNL     1      -0.836  10.935  20.615  0.00  0.00    +0.000 A 
ATOM      8  C   UNL     1      -1.574  11.432  19.534  0.00  0.00    +0.000 A 
ATOM      9  C   UNL     1      -2.542  12.428  19.723  0.00  0.00    +0.000 A 
ATOM     10  C   UNL     1      -2.818  12.953  20.997  0.00  0.00    +0.000 A 
ATOM     11  C   UNL     1      -2.057  12.456  22.068  0.00  0.00    +0.000 A 
ATOM     12  C   UNL     1      -1.075  11.477  21.881  0.00  0.00    +0.000 A 
BRANCH  10  13
ATOM     13  C   UNL     1      -3.870  13.972  21.208  0.00  0.00    +0.000 A 
ATOM     14  C   UNL     1      -3.655  15.093  22.023  0.00  0.00    +0.000 A 
ATOM     15  C   UNL     1      -4.671  16.024  22.185  0.00  0.00    +0.000 A 
ATOM     16  N   UNL     1      -5.877  15.933  21.591  0.00  0.00    +0.000 NA
ATOM     17  C   UNL     1      -6.076  14.858  20.804  0.00  0.00    +0.000 A 
ATOM     18  C   UNL     1      -5.127  13.869  20.592  0.00  0.00    +0.000 A 
ENDBRANCH  10  13
ENDBRANCH   3   7
BRANCH   1  20
ATOM     19  N   UNL     1       3.067   6.675  18.549  0.00  0.00    +0.000 N 
ATOM     20  C   UNL     1       2.534   7.919  18.270  0.00  0.00    +0.000 C 
ATOM     21  O   UNL     1       2.721   8.481  17.201  0.00  0.00    +0.000 OA
ATOM     22  H   UNL     1       2.893   6.288  19.467  0.00  0.00    +0.000 HD
BRANCH  19  23
ATOM     23  C   UNL     1       3.875   5.915  17.611  0.00  0.00    +0.000 C 
BRANCH  23  24
ATOM     24  C   UNL     1       5.336   6.109  17.953  0.00  0.00    +0.000 A 
ATOM     25  C   UNL     1       6.114   6.998  17.199  0.00  0.00    +0.000 A 
ATOM     26  C   UNL     1       7.465   7.183  17.493  0.00  0.00    +0.000 A 
ATOM     27  C   UNL     1       8.046   6.484  18.552  0.00  0.00    +0.000 A 
ATOM     28  C   UNL     1       7.281   5.612  19.321  0.00  0.00    +0.000 A 
ATOM     29  C   UNL     1       5.933   5.424  19.028  0.00  0.00    +0.000 A 
ENDBRANCH  23  24
BRANCH  23  30
ATOM     30  C   UNL     1       3.492   4.431  17.603  0.00  0.00    +0.000 C 
BRANCH  30  32
ATOM     31  O   UNL     1       1.208   4.134  18.354  0.00  0.00    +0.000 OA
ATOM     32  C   UNL     1       2.397   4.229  18.604  0.00  0.00    +0.000 C 
BRANCH  32  33
ATOM     33  O   UNL     1       2.881   4.047  19.848  0.00  0.00    +0.000 OA
ATOM     34  H   UNL     1       3.776   4.456  19.833  0.00  0.00    +0.000 HD
ENDBRANCH  32  33
ENDBRANCH  30  32
ENDBRANCH  23  30
ENDBRANCH  19  23
ENDBRANCH   1  20
TORSDOF 8
ENDMDL
