MODEL 1
REMARK VINA RESULT:      -9.0      0.000      0.000
REMARK  Name = 
REMARK  5 active torsions:
REMARK  status: ('A' for Active; 'I' for Inactive)
REMARK    1  A    between atoms: C_2  and  C_12
REMARK    2  A    between atoms: N_3  and  C_4
REMARK    3  A    between atoms: N_16  and  C_17
REMARK    4  A    between atoms: C_17  and  C_18
REMARK    5  A    between atoms: C_25  and  C_26
REMARK                            x       y       z     vdW  Elec       q    Type
REMARK                         _______ _______ _______ _____ _____    ______ ____
ROOT
ATOM      1  C   UNL     1       2.979   6.069  18.896  0.00  0.00    +0.000 A 
ATOM      2  C   UNL     1       3.907   6.658  18.062  0.00  0.00    +0.000 A 
ATOM      3  N   UNL     1       4.765   5.971  17.290  0.00  0.00    +0.000 NA
ATOM      4  C   UNL     1       4.689   4.640  17.333  0.00  0.00    +0.000 A 
ATOM      5  N   UNL     1       5.581   3.861  16.634  0.00  0.00    +0.000 N 
ATOM      6  N   UNL     1       3.791   3.982  18.073  0.00  0.00    +0.000 NA
ATOM      7  C   UNL     1       2.962   4.688  18.905  0.00  0.00    +0.000 A 
ATOM      8  H   UNL     1       5.087   3.272  15.983  0.00  0.00    +0.000 HD
ENDROOT
BRANCH   1  10
ATOM      9  O   UNL     1       1.865   6.518  20.855  0.00  0.00    +0.000 OA
ATOM     10  C   UNL     1       2.154   6.934  19.744  0.00  0.00    +0.000 C 
ATOM     11  N   UNL     1       1.822   8.155  19.177  0.00  0.00    +0.000 N 
ATOM     12  H   UNL     1       2.118   8.331  18.223  0.00  0.00    +0.000 HD
BRANCH  11  13
ATOM     13  C   UNL     1       1.013   9.161  19.753  0.00  0.00    +0.000 A 
ATOM     14  C   UNL     1       0.625   9.172  21.094  0.00  0.00    +0.000 A 
ATOM     15  C   UNL     1      -0.227  10.172  21.569  0.00  0.00    +0.000 A 
ATOM     16 CL   UNL     1      -0.711  10.161  23.222  0.00  0.00    +0.000 Cl
ATOM     17  C   UNL     1      -0.697  11.172  20.724  0.00  0.00    +0.000 A 
ATOM     18  C   UNL     1      -0.290  11.176  19.396  0.00  0.00    +0.000 A 
ATOM     19 CL   UNL     1      -0.862  12.404  18.333  0.00  0.00    +0.000 Cl
ATOM     20  C   UNL     1       0.567  10.187  18.908  0.00  0.00    +0.000 A 
ENDBRANCH  11  13
ENDBRANCH   1  10
BRANCH   7  21
ATOM     21  C   UNL     1       2.068   3.856  19.808  0.00  0.00    +0.000 C 
ATOM     22  F   UNL     1       0.741   4.147  19.772  0.00  0.00    +0.000 F 
ATOM     23  F   UNL     1       2.128   2.529  19.486  0.00  0.00    +0.000 F 
ATOM     24  F   UNL     1       2.439   3.926  21.121  0.00  0.00    +0.000 F 
ENDBRANCH   7  21
BRANCH   5  25
ATOM     25  C   UNL     1       6.753   4.528  16.108  0.00  0.00    +0.000 C 
BRANCH  25  26
ATOM     26  C   UNL     1       6.770   4.446  14.593  0.00  0.00    +0.000 A 
ATOM     27  C   UNL     1       7.684   5.225  13.869  0.00  0.00    +0.000 A 
ATOM     28  C   UNL     1       7.752   5.127  12.478  0.00  0.00    +0.000 A 
ATOM     29  C   UNL     1       6.920   4.240  11.796  0.00  0.00    +0.000 A 
ATOM     30  C   UNL     1       6.028   3.441  12.505  0.00  0.00    +0.000 A 
ATOM     31  C   UNL     1       5.962   3.535  13.895  0.00  0.00    +0.000 A 
ENDBRANCH  25  26
ENDBRANCH   5  25
TORSDOF 5
ENDMDL
MODEL 2
REMARK VINA RESULT:      -9.0      1.423      1.526
REMARK  Name = 
REMARK  5 active torsions:
REMARK  status: ('A' for Active; 'I' for Inactive)
REMARK    1  A    between atoms: C_2  and  C_12
REMARK    2  A    between atoms: N_3  and  C_4
REMARK    3  A    between atoms: N_16  and  C_17
REMARK    4  A    between atoms: C_17  and  C_18
REMARK    5  A    between atoms: C_25  and  C_26
REMARK                            x       y       z     vdW  Elec       q    Type
REMARK                         _______ _______ _______ _____ _____    ______ ____
ROOT
ATOM      1  C   UNL     1       3.116   6.721  18.350  0.00  0.00    +0.000 A 
ATOM      2  C   UNL     1       4.058   7.124  17.426  0.00  0.00    +0.000 A 
ATOM      3  N   UNL     1       4.962   6.302  16.867  0.00  0.00    +0.000 NA
ATOM      4  C   UNL     1       4.919   5.018  17.227  0.00  0.00    +0.000 A 
ATOM      5  N   UNL     1       5.856   4.126  16.762  0.00  0.00    +0.000 N 
ATOM      6  N   UNL     1       4.012   4.527  18.078  0.00  0.00    +0.000 NA
ATOM      7  C   UNL     1       3.135   5.383  18.690  0.00  0.00    +0.000 A 
ATOM      8  H   UNL     1       5.402   3.381  16.258  0.00  0.00    +0.000 HD
ENDROOT
BRANCH   1  10
ATOM      9  O   UNL     1       2.082   7.704  20.151  0.00  0.00    +0.000 OA
ATOM     10  C   UNL     1       2.239   7.735  18.941  0.00  0.00    +0.000 C 
ATOM     11  N   UNL     1       1.706   8.639  18.034  0.00  0.00    +0.000 N 
ATOM     12  H   UNL     1       1.912   8.502  17.050  0.00  0.00    +0.000 HD
BRANCH  11  13
ATOM     13  C   UNL     1       0.807   9.692  18.321  0.00  0.00    +0.000 A 
ATOM     14  C   UNL     1       1.143  10.815  19.080  0.00  0.00    +0.000 A 
ATOM     15  C   UNL     1       0.177  11.781  19.369  0.00  0.00    +0.000 A 
ATOM     16 CL   UNL     1       0.602  13.151  20.322  0.00  0.00    +0.000 Cl
ATOM     17  C   UNL     1      -1.128  11.648  18.905  0.00  0.00    +0.000 A 
ATOM     18  C   UNL     1      -1.455  10.545  18.127  0.00  0.00    +0.000 A 
ATOM     19 CL   UNL     1      -3.065  10.361  17.544  0.00  0.00    +0.000 Cl
ATOM     20  C   UNL     1      -0.498   9.574  17.825  0.00  0.00    +0.000 A 
ENDBRANCH  11  13
ENDBRANCH   1  10
BRANCH   7  21
ATOM     21  C   UNL     1       2.231   4.762  19.741  0.00  0.00    +0.000 C 
ATOM     22  F   UNL     1       0.899   4.984  19.593  0.00  0.00    +0.000 F 
ATOM     23  F   UNL     1       2.343   3.399  19.754  0.00  0.00    +0.000 F 
ATOM     24  F   UNL     1       2.547   5.162  21.007  0.00  0.00    +0.000 F 
ENDBRANCH   7  21
BRANCH   5  25
ATOM     25  C   UNL     1       7.028   4.687  16.126  0.00  0.00    +0.000 C 
BRANCH  25  26
ATOM     26  C   UNL     1       6.929   4.544  14.619  0.00  0.00    +0.000 A 
ATOM     27  C   UNL     1       7.780   5.295  13.795  0.00  0.00    +0.000 A 
ATOM     28  C   UNL     1       7.740   5.141  12.408  0.00  0.00    +0.000 A 
ATOM     29  C   UNL     1       6.862   4.226  11.829  0.00  0.00    +0.000 A 
ATOM     30  C   UNL     1       6.032   3.455  12.636  0.00  0.00    +0.000 A 
ATOM     31  C   UNL     1       6.073   3.604  14.022  0.00  0.00    +0.000 A 
ENDBRANCH  25  26
ENDBRANCH   5  25
TORSDOF 5
ENDMDL
MODEL 3
REMARK VINA RESULT:      -8.9      1.662      1.755
REMARK  Name = 
REMARK  5 active torsions:
REMARK  status: ('A' for Active; 'I' for Inactive)
REMARK    1  A    between atoms: C_2  and  C_12
REMARK    2  A    between atoms: N_3  and  C_4
REMARK    3  A    between atoms: N_16  and  C_17
REMARK    4  A    between atoms: C_17  and  C_18
REMARK    5  A    between atoms: C_25  and  C_26
REMARK                            x       y       z     vdW  Elec       q    Type
REMARK                         _______ _______ _______ _____ _____    ______ ____
ROOT
ATOM      1  C   UNL     1       3.131   6.732  18.290  0.00  0.00    +0.000 A 
ATOM      2  C   UNL     1       4.080   7.113  17.364  0.00  0.00    +0.000 A 
ATOM      3  N   UNL     1       4.983   6.276  16.827  0.00  0.00    +0.000 NA
ATOM      4  C   UNL     1       4.933   5.000  17.212  0.00  0.00    +0.000 A 
ATOM      5  N   UNL     1       5.868   4.094  16.771  0.00  0.00    +0.000 N 
ATOM      6  N   UNL     1       4.019   4.529  18.067  0.00  0.00    +0.000 NA
ATOM      7  C   UNL     1       3.142   5.401  18.657  0.00  0.00    +0.000 A 
ATOM      8  H   UNL     1       5.414   3.341  16.280  0.00  0.00    +0.000 HD
ENDROOT
BRANCH   1  10
ATOM      9  O   UNL     1       2.071   7.741  20.062  0.00  0.00    +0.000 OA
ATOM     10  C   UNL     1       2.255   7.762  18.855  0.00  0.00    +0.000 C 
ATOM     11  N   UNL     1       1.755   8.668  17.932  0.00  0.00    +0.000 N 
ATOM     12  H   UNL     1       1.980   8.521  16.953  0.00  0.00    +0.000 HD
BRANCH  11  13
ATOM     13  C   UNL     1       0.864   9.734  18.192  0.00  0.00    +0.000 A 
ATOM     14  C   UNL     1      -0.514   9.665  17.978  0.00  0.00    +0.000 A 
ATOM     15  C   UNL     1      -1.316  10.786  18.203  0.00  0.00    +0.000 A 
ATOM     16 CL   UNL     1      -3.011  10.689  17.916  0.00  0.00    +0.000 Cl
ATOM     17  C   UNL     1      -0.763  11.982  18.646  0.00  0.00    +0.000 A 
ATOM     18  C   UNL     1       0.603  12.044  18.885  0.00  0.00    +0.000 A 
ATOM     19 CL   UNL     1       1.308  13.517  19.433  0.00  0.00    +0.000 Cl
ATOM     20  C   UNL     1       1.417  10.930  18.671  0.00  0.00    +0.000 A 
ENDBRANCH  11  13
ENDBRANCH   1  10
BRANCH   7  21
ATOM     21  C   UNL     1       2.230   4.805  19.715  0.00  0.00    +0.000 C 
ATOM     22  F   UNL     1       0.897   5.009  19.541  0.00  0.00    +0.000 F 
ATOM     23  F   UNL     1       2.355   3.445  19.774  0.00  0.00    +0.000 F 
ATOM     24  F   UNL     1       2.523   5.250  20.972  0.00  0.00    +0.000 F 
ENDBRANCH   7  21
BRANCH   5  25
ATOM     25  C   UNL     1       7.047   4.637  16.130  0.00  0.00    +0.000 C 
BRANCH  25  26
ATOM     26  C   UNL     1       6.935   4.505  14.623  0.00  0.00    +0.000 A 
ATOM     27  C   UNL     1       7.774   5.267  13.798  0.00  0.00    +0.000 A 
ATOM     28  C   UNL     1       7.724   5.124  12.410  0.00  0.00    +0.000 A 
ATOM     29  C   UNL     1       6.846   4.208  11.832  0.00  0.00    +0.000 A 
ATOM     30  C   UNL     1       6.027   3.425  12.640  0.00  0.00    +0.000 A 
ATOM     31  C   UNL     1       6.080   3.565  14.027  0.00  0.00    +0.000 A 
ENDBRANCH  25  26
ENDBRANCH   5  25
TORSDOF 5
ENDMDL
MODEL 4
REMARK VINA RESULT:      -8.8      0.255      1.689
REMARK  Name = 
REMARK  5 active torsions:
REMARK  status: ('A' for Active; 'I' for Inactive)
REMARK    1  A    between atoms: C_2  and  C_12
REMARK    2  A    between atoms: N_3  and  C_4
REMARK    3  A    between atoms: N_16  and  C_17
REMARK    4  A    between atoms: C_17  and  C_18
REMARK    5  A    between atoms: C_25  and  C_26
REMARK                            x       y       z     vdW  Elec       q    Type
REMARK                         _______ _______ _______ _____ _____    ______ ____
ROOT
ATOM      1  C   UNL     1       3.002   6.255  18.804  0.00  0.00    +0.000 A 
ATOM      2  C   UNL     1       3.906   6.811  17.922  0.00  0.00    +0.000 A 
ATOM      3  N   UNL     1       4.796   6.101  17.211  0.00  0.00    +0.000 NA
ATOM      4  C   UNL     1       4.780   4.776  17.367  0.00  0.00    +0.000 A 
ATOM      5  N   UNL     1       5.707   3.982  16.737  0.00  0.00    +0.000 N 
ATOM      6  N   UNL     1       3.910   4.144  18.163  0.00  0.00    +0.000 NA
ATOM      7  C   UNL     1       3.047   4.881  18.931  0.00  0.00    +0.000 A 
ATOM      8  H   UNL     1       5.243   3.317  16.140  0.00  0.00    +0.000 HD
ENDROOT
BRANCH   1  10
ATOM      9  O   UNL     1       1.804   6.785  20.693  0.00  0.00    +0.000 OA
ATOM     10  C   UNL     1       2.137   7.151  19.576  0.00  0.00    +0.000 C 
ATOM     11  N   UNL     1       1.821   8.341  18.940  0.00  0.00    +0.000 N 
ATOM     12  H   UNL     1       2.156   8.476  17.991  0.00  0.00    +0.000 HD
BRANCH  11  13
ATOM     13  C   UNL     1       0.982   9.366  19.434  0.00  0.00    +0.000 A 
ATOM     14  C   UNL     1       0.529  10.438  18.662  0.00  0.00    +0.000 A 
ATOM     15  C   UNL     1      -0.248  11.443  19.244  0.00  0.00    +0.000 A 
ATOM     16 CL   UNL     1      -0.783  12.768  18.283  0.00  0.00    +0.000 Cl
ATOM     17  C   UNL     1      -0.587  11.393  20.592  0.00  0.00    +0.000 A 
ATOM     18  C   UNL     1      -0.159  10.313  21.353  0.00  0.00    +0.000 A 
ATOM     19 CL   UNL     1      -0.567  10.233  23.025  0.00  0.00    +0.000 Cl
ATOM     20  C   UNL     1       0.612   9.298  20.784  0.00  0.00    +0.000 A 
ENDBRANCH  11  13
ENDBRANCH   1  10
BRANCH   7  21
ATOM     21  C   UNL     1       2.190   4.090  19.904  0.00  0.00    +0.000 C 
ATOM     22  F   UNL     1       0.848   4.281  19.812  0.00  0.00    +0.000 F 
ATOM     23  F   UNL     1       2.349   2.742  19.729  0.00  0.00    +0.000 F 
ATOM     24  F   UNL     1       2.522   4.325  21.207  0.00  0.00    +0.000 F 
ENDBRANCH   7  21
BRANCH   5  25
ATOM     25  C   UNL     1       6.850   4.653  16.155  0.00  0.00    +0.000 C 
BRANCH  25  26
ATOM     26  C   UNL     1       6.824   4.522  14.643  0.00  0.00    +0.000 A 
ATOM     27  C   UNL     1       7.722   5.271  13.869  0.00  0.00    +0.000 A 
ATOM     28  C   UNL     1       7.749   5.128  12.480  0.00  0.00    +0.000 A 
ATOM     29  C   UNL     1       6.892   4.226  11.851  0.00  0.00    +0.000 A 
ATOM     30  C   UNL     1       6.014   3.458  12.610  0.00  0.00    +0.000 A 
ATOM     31  C   UNL     1       5.989   3.596  13.998  0.00  0.00    +0.000 A 
ENDBRANCH  25  26
ENDBRANCH   5  25
TORSDOF 5
ENDMDL
MODEL 5
REMARK VINA RESULT:      -8.7      3.707      5.137
REMARK  Name = 
REMARK  5 active torsions:
REMARK  status: ('A' for Active; 'I' for Inactive)
REMARK    1  A    between atoms: C_2  and  C_12
REMARK    2  A    between atoms: N_3  and  C_4
REMARK    3  A    between atoms: N_16  and  C_17
REMARK    4  A    between atoms: C_17  and  C_18
REMARK    5  A    between atoms: C_25  and  C_26
REMARK                            x       y       z     vdW  Elec       q    Type
REMARK                         _______ _______ _______ _____ _____    ______ ____
ROOT
ATOM      1  C   UNL     1       1.309   9.576  18.815  0.00  0.00    +0.000 A 
ATOM      2  C   UNL     1       1.855   9.072  17.652  0.00  0.00    +0.000 A 
ATOM      3  N   UNL     1       2.458   7.875  17.563  0.00  0.00    +0.000 NA
ATOM      4  C   UNL     1       2.508   7.136  18.673  0.00  0.00    +0.000 A 
ATOM      5  N   UNL     1       3.174   5.934  18.688  0.00  0.00    +0.000 N 
ATOM      6  N   UNL     1       1.965   7.521  19.833  0.00  0.00    +0.000 NA
ATOM      7  C   UNL     1       1.407   8.769  19.930  0.00  0.00    +0.000 A 
ATOM      8  H   UNL     1       2.541   5.192  18.938  0.00  0.00    +0.000 HD
ENDROOT
BRANCH   1  10
ATOM      9  O   UNL     1      -0.454  11.037  18.612  0.00  0.00    +0.000 OA
ATOM     10  C   UNL     1       0.749  10.930  18.793  0.00  0.00    +0.000 C 
ATOM     11  N   UNL     1       1.671  11.942  19.013  0.00  0.00    +0.000 N 
ATOM     12  H   UNL     1       2.646  11.681  19.114  0.00  0.00    +0.000 HD
BRANCH  11  13
ATOM     13  C   UNL     1       1.416  13.332  19.011  0.00  0.00    +0.000 A 
ATOM     14  C   UNL     1       0.278  13.914  19.574  0.00  0.00    +0.000 A 
ATOM     15  C   UNL     1       0.072  15.292  19.475  0.00  0.00    +0.000 A 
ATOM     16 CL   UNL     1      -1.346  15.991  20.159  0.00  0.00    +0.000 Cl
ATOM     17  C   UNL     1       0.992  16.107  18.824  0.00  0.00    +0.000 A 
ATOM     18  C   UNL     1       2.136  15.532  18.287  0.00  0.00    +0.000 A 
ATOM     19 CL   UNL     1       3.287  16.524  17.475  0.00  0.00    +0.000 Cl
ATOM     20  C   UNL     1       2.359  14.157  18.384  0.00  0.00    +0.000 A 
ENDBRANCH  11  13
ENDBRANCH   1  10
BRANCH   7  21
ATOM     21  C   UNL     1       0.937   9.175  21.316  0.00  0.00    +0.000 C 
ATOM     22  F   UNL     1       1.361   8.395  22.345  0.00  0.00    +0.000 F 
ATOM     23  F   UNL     1       1.374  10.428  21.645  0.00  0.00    +0.000 F 
ATOM     24  F   UNL     1      -0.424   9.229  21.414  0.00  0.00    +0.000 F 
ENDBRANCH   7  21
BRANCH   5  25
ATOM     25  C   UNL     1       4.046   5.660  17.565  0.00  0.00    +0.000 C 
BRANCH  25  26
ATOM     26  C   UNL     1       5.484   5.986  17.924  0.00  0.00    +0.000 A 
ATOM     27  C   UNL     1       6.158   7.000  17.227  0.00  0.00    +0.000 A 
ATOM     28  C   UNL     1       7.463   7.350  17.575  0.00  0.00    +0.000 A 
ATOM     29  C   UNL     1       8.106   6.704  18.630  0.00  0.00    +0.000 A 
ATOM     30  C   UNL     1       7.439   5.715  19.347  0.00  0.00    +0.000 A 
ATOM     31  C   UNL     1       6.133   5.367  19.004  0.00  0.00    +0.000 A 
ENDBRANCH  25  26
ENDBRANCH   5  25
TORSDOF 5
ENDMDL
MODEL 6
REMARK VINA RESULT:      -8.6      3.653      5.184
REMARK  Name = 
REMARK  5 active torsions:
REMARK  status: ('A' for Active; 'I' for Inactive)
REMARK    1  A    between atoms: C_2  and  C_12
REMARK    2  A    between atoms: N_3  and  C_4
REMARK    3  A    between atoms: N_16  and  C_17
REMARK    4  A    between atoms: C_17  and  C_18
REMARK    5  A    between atoms: C_25  and  C_26
REMARK                            x       y       z     vdW  Elec       q    Type
REMARK                         _______ _______ _______ _____ _____    ______ ____
ROOT
ATOM      1  C   UNL     1       1.372   9.513  18.775  0.00  0.00    +0.000 A 
ATOM      2  C   UNL     1       1.923   8.982  17.627  0.00  0.00    +0.000 A 
ATOM      3  N   UNL     1       2.508   7.775  17.563  0.00  0.00    +0.000 NA
ATOM      4  C   UNL     1       2.535   7.053  18.685  0.00  0.00    +0.000 A 
ATOM      5  N   UNL     1       3.183   5.842  18.726  0.00  0.00    +0.000 N 
ATOM      6  N   UNL     1       1.986   7.464  19.833  0.00  0.00    +0.000 NA
ATOM      7  C   UNL     1       1.446   8.722  19.904  0.00  0.00    +0.000 A 
ATOM      8  H   UNL     1       2.535   5.113  18.982  0.00  0.00    +0.000 HD
ENDROOT
BRANCH   1  10
ATOM      9  O   UNL     1      -0.374  10.996  18.590  0.00  0.00    +0.000 OA
ATOM     10  C   UNL     1       0.834  10.875  18.726  0.00  0.00    +0.000 C 
ATOM     11  N   UNL     1       1.780  11.878  18.871  0.00  0.00    +0.000 N 
ATOM     12  H   UNL     1       2.754  11.604  18.941  0.00  0.00    +0.000 HD
BRANCH  11  13
ATOM     13  C   UNL     1       1.547  13.271  18.827  0.00  0.00    +0.000 A 
ATOM     14  C   UNL     1       2.431  14.189  18.257  0.00  0.00    +0.000 A 
ATOM     15  C   UNL     1       2.154  15.557  18.310  0.00  0.00    +0.000 A 
ATOM     16 CL   UNL     1       3.264  16.677  17.618  0.00  0.00    +0.000 Cl
ATOM     17  C   UNL     1       0.998  16.028  18.923  0.00  0.00    +0.000 A 
ATOM     18  C   UNL     1       0.105  15.114  19.467  0.00  0.00    +0.000 A 
ATOM     19 CL   UNL     1      -1.331  15.678  20.233  0.00  0.00    +0.000 Cl
ATOM     20  C   UNL     1       0.365  13.743  19.415  0.00  0.00    +0.000 A 
ENDBRANCH  11  13
ENDBRANCH   1  10
BRANCH   7  21
ATOM     21  C   UNL     1       0.968   9.158  21.278  0.00  0.00    +0.000 C 
ATOM     22  F   UNL     1      -0.378   9.195  21.460  0.00  0.00    +0.000 F 
ATOM     23  F   UNL     1       1.413   8.310  22.255  0.00  0.00    +0.000 F 
ATOM     24  F   UNL     1       1.436  10.391  21.630  0.00  0.00    +0.000 F 
ENDBRANCH   7  21
BRANCH   5  25
ATOM     25  C   UNL     1       4.062   5.536  17.618  0.00  0.00    +0.000 C 
BRANCH  25  26
ATOM     26  C   UNL     1       5.491   5.912  17.961  0.00  0.00    +0.000 A 
ATOM     27  C   UNL     1       6.129   6.934  17.244  0.00  0.00    +0.000 A 
ATOM     28  C   UNL     1       7.425   7.331  17.576  0.00  0.00    +0.000 A 
ATOM     29  C   UNL     1       8.094   6.722  18.637  0.00  0.00    +0.000 A 
ATOM     30  C   UNL     1       7.463   5.725  19.375  0.00  0.00    +0.000 A 
ATOM     31  C   UNL     1       6.166   5.331  19.047  0.00  0.00    +0.000 A 
ENDBRANCH  25  26
ENDBRANCH   5  25
TORSDOF 5
ENDMDL
MODEL 7
REMARK VINA RESULT:      -8.6      3.692      5.268
REMARK  Name = 
REMARK  5 active torsions:
REMARK  status: ('A' for Active; 'I' for Inactive)
REMARK    1  A    between atoms: C_2  and  C_12
REMARK    2  A    between atoms: N_3  and  C_4
REMARK    3  A    between atoms: N_16  and  C_17
REMARK    4  A    between atoms: C_17  and  C_18
REMARK    5  A    between atoms: C_25  and  C_26
REMARK                            x       y       z     vdW  Elec       q    Type
REMARK                         _______ _______ _______ _____ _____    ______ ____
ROOT
ATOM      1  C   UNL     1       1.388   9.488  18.810  0.00  0.00    +0.000 A 
ATOM      2  C   UNL     1       1.953   8.940  17.677  0.00  0.00    +0.000 A 
ATOM      3  N   UNL     1       2.535   7.730  17.638  0.00  0.00    +0.000 NA
ATOM      4  C   UNL     1       2.543   7.023  18.769  0.00  0.00    +0.000 A 
ATOM      5  N   UNL     1       3.185   5.810  18.836  0.00  0.00    +0.000 N 
ATOM      6  N   UNL     1       1.978   7.451  19.903  0.00  0.00    +0.000 NA
ATOM      7  C   UNL     1       1.442   8.712  19.950  0.00  0.00    +0.000 A 
ATOM      8  H   UNL     1       2.531   5.087  19.092  0.00  0.00    +0.000 HD
ENDROOT
BRANCH   1  10
ATOM      9  O   UNL     1      -0.347  10.974  18.553  0.00  0.00    +0.000 OA
ATOM     10  C   UNL     1       0.855  10.851  18.735  0.00  0.00    +0.000 C 
ATOM     11  N   UNL     1       1.797  11.852  18.911  0.00  0.00    +0.000 N 
ATOM     12  H   UNL     1       2.768  11.576  19.019  0.00  0.00    +0.000 HD
BRANCH  11  13
ATOM     13  C   UNL     1       1.570  13.246  18.853  0.00  0.00    +0.000 A 
ATOM     14  C   UNL     1       2.448  14.152  18.254  0.00  0.00    +0.000 A 
ATOM     15  C   UNL     1       2.178  15.522  18.294  0.00  0.00    +0.000 A 
ATOM     16 CL   UNL     1       3.280  16.627  17.567  0.00  0.00    +0.000 Cl
ATOM     17  C   UNL     1       1.035  16.006  18.921  0.00  0.00    +0.000 A 
ATOM     18  C   UNL     1       0.148  15.104  19.493  0.00  0.00    +0.000 A 
ATOM     19 CL   UNL     1      -1.272  15.684  20.277  0.00  0.00    +0.000 Cl
ATOM     20  C   UNL     1       0.401  13.731  19.455  0.00  0.00    +0.000 A 
ENDBRANCH  11  13
ENDBRANCH   1  10
BRANCH   7  21
ATOM     21  C   UNL     1       0.945   9.167  21.311  0.00  0.00    +0.000 C 
ATOM     22  F   UNL     1       1.365   8.437  22.377  0.00  0.00    +0.000 F 
ATOM     23  F   UNL     1       1.357  10.440  21.594  0.00  0.00    +0.000 F 
ATOM     24  F   UNL     1      -0.418   9.204  21.387  0.00  0.00    +0.000 F 
ENDBRANCH   7  21
BRANCH   5  25
ATOM     25  C   UNL     1       4.079   5.487  17.745  0.00  0.00    +0.000 C 
BRANCH  25  26
ATOM     26  C   UNL     1       5.485   5.962  18.059  0.00  0.00    +0.000 A 
ATOM     27  C   UNL     1       6.212   5.343  19.087  0.00  0.00    +0.000 A 
ATOM     28  C   UNL     1       7.525   5.730  19.359  0.00  0.00    +0.000 A 
ATOM     29  C   UNL     1       8.133   6.730  18.599  0.00  0.00    +0.000 A 
ATOM     30  C   UNL     1       7.432   7.333  17.559  0.00  0.00    +0.000 A 
ATOM     31  C   UNL     1       6.122   6.944  17.283  0.00  0.00    +0.000 A 
ENDBRANCH  25  26
ENDBRANCH   5  25
TORSDOF 5
ENDMDL
MODEL 8
REMARK VINA RESULT:      -8.6      0.249      2.024
REMARK  Name = 
REMARK  5 active torsions:
REMARK  status: ('A' for Active; 'I' for Inactive)
REMARK    1  A    between atoms: C_2  and  C_12
REMARK    2  A    between atoms: N_3  and  C_4
REMARK    3  A    between atoms: N_16  and  C_17
REMARK    4  A    between atoms: C_17  and  C_18
REMARK    5  A    between atoms: C_25  and  C_26
REMARK                            x       y       z     vdW  Elec       q    Type
REMARK                         _______ _______ _______ _____ _____    ______ ____
ROOT
ATOM      1  C   UNL     1       3.045   6.282  18.828  0.00  0.00    +0.000 A 
ATOM      2  C   UNL     1       3.964   6.841  17.964  0.00  0.00    +0.000 A 
ATOM      3  N   UNL     1       4.844   6.131  17.239  0.00  0.00    +0.000 NA
ATOM      4  C   UNL     1       4.801   4.803  17.364  0.00  0.00    +0.000 A 
ATOM      5  N   UNL     1       5.715   4.006  16.719  0.00  0.00    +0.000 N 
ATOM      6  N   UNL     1       3.915   4.169  18.140  0.00  0.00    +0.000 NA
ATOM      7  C   UNL     1       3.063   4.905  18.922  0.00  0.00    +0.000 A 
ATOM      8  H   UNL     1       5.241   3.365  16.104  0.00  0.00    +0.000 HD
ENDROOT
BRANCH   1  10
ATOM      9  O   UNL     1       1.946   6.845  20.766  0.00  0.00    +0.000 OA
ATOM     10  C   UNL     1       2.195   7.177  19.618  0.00  0.00    +0.000 C 
ATOM     11  N   UNL     1       1.792   8.327  18.956  0.00  0.00    +0.000 N 
ATOM     12  H   UNL     1       2.062   8.434  17.984  0.00  0.00    +0.000 HD
BRANCH  11  13
ATOM     13  C   UNL     1       0.945   9.339  19.461  0.00  0.00    +0.000 A 
ATOM     14  C   UNL     1       0.487  10.418  18.703  0.00  0.00    +0.000 A 
ATOM     15  C   UNL     1      -0.298  11.410  19.296  0.00  0.00    +0.000 A 
ATOM     16 CL   UNL     1      -0.839  12.744  18.352  0.00  0.00    +0.000 Cl
ATOM     17  C   UNL     1      -0.641  11.339  20.642  0.00  0.00    +0.000 A 
ATOM     18  C   UNL     1      -0.208  10.252  21.390  0.00  0.00    +0.000 A 
ATOM     19 CL   UNL     1      -0.620  10.147  23.059  0.00  0.00    +0.000 Cl
ATOM     20  C   UNL     1       0.572   9.250  20.809  0.00  0.00    +0.000 A 
ENDBRANCH  11  13
ENDBRANCH   1  10
BRANCH   7  21
ATOM     21  C   UNL     1       2.185   4.108  19.871  0.00  0.00    +0.000 C 
ATOM     22  F   UNL     1       2.390   4.320  21.198  0.00  0.00    +0.000 F 
ATOM     23  F   UNL     1       0.860   4.395  19.688  0.00  0.00    +0.000 F 
ATOM     24  F   UNL     1       2.292   2.760  19.679  0.00  0.00    +0.000 F 
ENDBRANCH   7  21
BRANCH   5  25
ATOM     25  C   UNL     1       6.874   4.668  16.159  0.00  0.00    +0.000 C 
BRANCH  25  26
ATOM     26  C   UNL     1       6.906   4.489  14.652  0.00  0.00    +0.000 A 
ATOM     27  C   UNL     1       6.021   3.586  14.045  0.00  0.00    +0.000 A 
ATOM     28  C   UNL     1       5.998   3.442  12.657  0.00  0.00    +0.000 A 
ATOM     29  C   UNL     1       6.847   4.208  11.858  0.00  0.00    +0.000 A 
ATOM     30  C   UNL     1       7.710   5.127  12.446  0.00  0.00    +0.000 A 
ATOM     31  C   UNL     1       7.731   5.275  13.833  0.00  0.00    +0.000 A 
ENDBRANCH  25  26
ENDBRANCH   5  25
TORSDOF 5
ENDMDL
MODEL 9
REMARK VINA RESULT:      -8.6      5.230      7.077
REMARK  Name = 
REMARK  5 active torsions:
REMARK  status: ('A' for Active; 'I' for Inactive)
REMARK    1  A    between atoms: C_2  and  C_12
REMARK    2  A    between atoms: N_3  and  C_4
REMARK    3  A    between atoms: N_16  and  C_17
REMARK    4  A    between atoms: C_17  and  C_18
REMARK    5  A    between atoms: C_25  and  C_26
REMARK                            x       y       z     vdW  Elec       q    Type
REMARK                         _______ _______ _______ _____ _____    ______ ____
ROOT
ATOM      1  C   UNL     1       0.192  10.921  19.733  0.00  0.00    +0.000 A 
ATOM      2  C   UNL     1       0.876  10.056  18.904  0.00  0.00    +0.000 A 
ATOM      3  N   UNL     1       1.306   8.839  19.277  0.00  0.00    +0.000 NA
ATOM      4  C   UNL     1       1.031   8.455  20.525  0.00  0.00    +0.000 A 
ATOM      5  N   UNL     1       1.501   7.259  21.011  0.00  0.00    +0.000 N 
ATOM      6  N   UNL     1       0.334   9.204  21.384  0.00  0.00    +0.000 NA
ATOM      7  C   UNL     1      -0.047  10.468  21.016  0.00  0.00    +0.000 A 
ATOM      8  H   UNL     1       0.731   6.677  21.300  0.00  0.00    +0.000 HD
ENDROOT
BRANCH   1  10
ATOM      9  O   UNL     1      -1.200  12.361  18.607  0.00  0.00    +0.000 OA
ATOM     10  C   UNL     1      -0.152  12.251  19.224  0.00  0.00    +0.000 C 
ATOM     11  N   UNL     1       0.762  13.245  19.537  0.00  0.00    +0.000 N 
ATOM     12  H   UNL     1       1.605  12.975  20.033  0.00  0.00    +0.000 HD
BRANCH  11  13
ATOM     13  C   UNL     1       0.701  14.602  19.147  0.00  0.00    +0.000 A 
ATOM     14  C   UNL     1      -0.433  15.403  19.299  0.00  0.00    +0.000 A 
ATOM     15  C   UNL     1      -0.430  16.719  18.830  0.00  0.00    +0.000 A 
ATOM     16 CL   UNL     1      -1.842  17.688  19.009  0.00  0.00    +0.000 Cl
ATOM     17  C   UNL     1       0.695  17.255  18.212  0.00  0.00    +0.000 A 
ATOM     18  C   UNL     1       1.831  16.467  18.085  0.00  0.00    +0.000 A 
ATOM     19 CL   UNL     1       3.234  17.112  17.321  0.00  0.00    +0.000 Cl
ATOM     20  C   UNL     1       1.846  15.152  18.555  0.00  0.00    +0.000 A 
ENDBRANCH  11  13
ENDBRANCH   1  10
BRANCH   7  21
ATOM     21  C   UNL     1      -0.714  11.299  22.098  0.00  0.00    +0.000 C 
ATOM     22  F   UNL     1      -1.991  11.692  21.849  0.00  0.00    +0.000 F 
ATOM     23  F   UNL     1      -0.800  10.609  23.276  0.00  0.00    +0.000 F 
ATOM     24  F   UNL     1      -0.016  12.434  22.394  0.00  0.00    +0.000 F 
ENDBRANCH   7  21
BRANCH   5  25
ATOM     25  C   UNL     1       2.526   6.597  20.232  0.00  0.00    +0.000 C 
BRANCH  25  26
ATOM     26  C   UNL     1       1.998   5.291  19.668  0.00  0.00    +0.000 A 
ATOM     27  C   UNL     1       2.212   4.985  18.316  0.00  0.00    +0.000 A 
ATOM     28  C   UNL     1       1.780   3.767  17.789  0.00  0.00    +0.000 A 
ATOM     29  C   UNL     1       1.142   2.836  18.607  0.00  0.00    +0.000 A 
ATOM     30  C   UNL     1       0.947   3.116  19.956  0.00  0.00    +0.000 A 
ATOM     31  C   UNL     1       1.383   4.330  20.486  0.00  0.00    +0.000 A 
ENDBRANCH  25  26
ENDBRANCH   5  25
TORSDOF 5
ENDMDL
