MODEL 1
REMARK VINA RESULT:      -6.0      0.000      0.000
REMARK  Name = 
REMARK  16 active torsions:
REMARK  status: ('A' for Active; 'I' for Inactive)
REMARK    1  A    between atoms: C_1  and  O_2
REMARK    2  A    between atoms: O_2  and  C_3
REMARK    3  A    between atoms: C_5  and  C_6
REMARK    4  A    between atoms: C_6  and  C_7
REMARK    5  A    between atoms: N_9  and  O_10
REMARK    6  A    between atoms: N_9  and  C_11
REMARK    7  A    between atoms: C_11  and  C_12
REMARK    8  A    between atoms: C_12  and  O_13
REMARK    9  A    between atoms: O_13  and  C_14
REMARK   10  A    between atoms: C_14  and  C_16
REMARK   11  A    between atoms: C_16  and  N_17
REMARK   12  A    between atoms: C_16  and  C_18
REMARK   13  A    between atoms: C_18  and  C_19
REMARK   14  A    between atoms: C_19  and  S_20
REMARK   15  A    between atoms: S_20  and  C_21
REMARK   16  A    between atoms: C_24  and  O_25
REMARK                            x       y       z     vdW  Elec       q    Type
REMARK                         _______ _______ _______ _____ _____    ______ ____
ROOT
ATOM      1  C   UNL     1       1.797   3.724  20.186  0.00  0.00    +0.000 C 
ATOM      2  O   UNL     1       0.707   3.472  20.718  0.00  0.00    +0.000 OA
ATOM      3  N   UNL     1       2.296   2.917  19.206  0.00  0.00    +0.000 N 
ENDROOT
BRANCH   3   4
ATOM      4  O   UNL     1       1.533   1.760  18.918  0.00  0.00    +0.000 OA
ATOM      5  H   UNL     1       1.197   1.509  19.810  0.00  0.00    +0.000 HD
ENDBRANCH   3   4
BRANCH   1   6
ATOM      6  C   UNL     1       2.601   4.962  20.588  0.00  0.00    +0.000 C 
BRANCH   6   9
ATOM      7  C   UNL     1       1.570   8.537  19.649  0.00  0.00    +0.000 A 
ATOM      8  C   UNL     1       1.766   7.338  20.361  0.00  0.00    +0.000 A 
ATOM      9  C   UNL     1       2.342   6.205  19.761  0.00  0.00    +0.000 A 
ATOM     10  C   UNL     1       2.756   6.310  18.427  0.00  0.00    +0.000 A 
ATOM     11  C   UNL     1       2.546   7.483  17.705  0.00  0.00    +0.000 A 
ATOM     12  C   UNL     1       1.949   8.591  18.308  0.00  0.00    +0.000 A 
BRANCH   7  14
ATOM     13  C   UNL     1      -0.346   9.823  20.296  0.00  0.00    +0.000 C 
ATOM     14  O   UNL     1       1.051   9.559  20.402  0.00  0.00    +0.000 OA
ENDBRANCH   7  14
BRANCH  12  15
ATOM     15  O   UNL     1       1.782   9.721  17.561  0.00  0.00    +0.000 OA
ATOM     16  H   UNL     1       1.090   9.574  16.902  0.00  0.00    +0.000 HD
ENDBRANCH  12  15
ENDBRANCH   6   9
ENDBRANCH   1   6
BRANCH   3  17
ATOM     17  C   UNL     1       3.653   2.807  18.706  0.00  0.00    +0.000 C 
BRANCH  17  18
ATOM     18  C   UNL     1       3.726   3.071  17.207  0.00  0.00    +0.000 C 
BRANCH  18  19
ATOM     19  O   UNL     1       5.098   3.165  16.793  0.00  0.00    +0.000 OA
BRANCH  19  20
ATOM     20  C   UNL     1       5.573   4.436  16.671  0.00  0.00    +0.000 C 
ATOM     21  O   UNL     1       5.223   5.237  15.809  0.00  0.00    +0.000 OA
BRANCH  20  22
ATOM     22  C   UNL     1       6.566   4.747  17.790  0.00  0.00    +0.000 C 
BRANCH  22  23
ATOM     23  N   UNL     1       7.939   4.436  17.330  0.00  0.00    +0.000 NA
ATOM     24  H   UNL     1       7.965   4.520  16.310  0.00  0.00    +0.000 HD
ATOM     25  H   UNL     1       8.151   3.458  17.529  0.00  0.00    +0.000 HD
ENDBRANCH  22  23
BRANCH  22  26
ATOM     26  C   UNL     1       6.513   6.234  18.130  0.00  0.00    +0.000 C 
BRANCH  26  27
ATOM     27  C   UNL     1       7.888   6.891  18.252  0.00  0.00    +0.000 C 
BRANCH  27  28
ATOM     28  S   UNL     1       7.844   8.607  17.632  0.00  0.00    +0.000 S 
ATOM     29  C   UNL     1       8.867   9.396  18.900  0.00  0.00    +0.000 C 
ENDBRANCH  27  28
ENDBRANCH  26  27
ENDBRANCH  22  26
ENDBRANCH  20  22
ENDBRANCH  19  20
ENDBRANCH  18  19
ENDBRANCH  17  18
ENDBRANCH   3  17
TORSDOF 14
ENDMDL
MODEL 2
REMARK VINA RESULT:      -6.0      1.255      1.486
REMARK  Name = 
REMARK  16 active torsions:
REMARK  status: ('A' for Active; 'I' for Inactive)
REMARK    1  A    between atoms: C_1  and  O_2
REMARK    2  A    between atoms: O_2  and  C_3
REMARK    3  A    between atoms: C_5  and  C_6
REMARK    4  A    between atoms: C_6  and  C_7
REMARK    5  A    between atoms: N_9  and  O_10
REMARK    6  A    between atoms: N_9  and  C_11
REMARK    7  A    between atoms: C_11  and  C_12
REMARK    8  A    between atoms: C_12  and  O_13
REMARK    9  A    between atoms: O_13  and  C_14
REMARK   10  A    between atoms: C_14  and  C_16
REMARK   11  A    between atoms: C_16  and  N_17
REMARK   12  A    between atoms: C_16  and  C_18
REMARK   13  A    between atoms: C_18  and  C_19
REMARK   14  A    between atoms: C_19  and  S_20
REMARK   15  A    between atoms: S_20  and  C_21
REMARK   16  A    between atoms: C_24  and  O_25
REMARK                            x       y       z     vdW  Elec       q    Type
REMARK                         _______ _______ _______ _____ _____    ______ ____
ROOT
ATOM      1  C   UNL     1       2.318   4.485  18.806  0.00  0.00    +0.000 C 
ATOM      2  O   UNL     1       1.222   4.163  19.283  0.00  0.00    +0.000 OA
ATOM      3  N   UNL     1       2.846   3.799  17.752  0.00  0.00    +0.000 N 
ENDROOT
BRANCH   3   4
ATOM      4  O   UNL     1       2.103   2.672  17.321  0.00  0.00    +0.000 OA
ATOM      5  H   UNL     1       2.110   2.784  16.343  0.00  0.00    +0.000 HD
ENDBRANCH   3   4
BRANCH   1   6
ATOM      6  C   UNL     1       3.096   5.680  19.359  0.00  0.00    +0.000 C 
BRANCH   6   9
ATOM      7  C   UNL     1       1.311   9.041  19.848  0.00  0.00    +0.000 A 
ATOM      8  C   UNL     1       1.819   7.745  20.063  0.00  0.00    +0.000 A 
ATOM      9  C   UNL     1       2.504   7.041  19.057  0.00  0.00    +0.000 A 
ATOM     10  C   UNL     1       2.706   7.684  17.829  0.00  0.00    +0.000 A 
ATOM     11  C   UNL     1       2.188   8.957  17.597  0.00  0.00    +0.000 A 
ATOM     12  C   UNL     1       1.487   9.632  18.597  0.00  0.00    +0.000 A 
BRANCH   7  14
ATOM     13  C   UNL     1       1.123   9.127  22.235  0.00  0.00    +0.000 C 
ATOM     14  O   UNL     1       0.723   9.603  20.952  0.00  0.00    +0.000 OA
ENDBRANCH   7  14
BRANCH  12  15
ATOM     15  O   UNL     1       1.016  10.883  18.324  0.00  0.00    +0.000 OA
ATOM     16  H   UNL     1       1.174  11.462  19.083  0.00  0.00    +0.000 HD
ENDBRANCH  12  15
ENDBRANCH   6   9
ENDBRANCH   1   6
BRANCH   3  17
ATOM     17  C   UNL     1       4.213   3.761  17.270  0.00  0.00    +0.000 C 
BRANCH  17  18
ATOM     18  C   UNL     1       4.424   4.706  16.093  0.00  0.00    +0.000 C 
BRANCH  18  19
ATOM     19  O   UNL     1       5.541   5.570  16.354  0.00  0.00    +0.000 OA
BRANCH  19  20
ATOM     20  C   UNL     1       6.749   4.942  16.413  0.00  0.00    +0.000 C 
ATOM     21  O   UNL     1       7.473   4.719  15.447  0.00  0.00    +0.000 OA
BRANCH  20  22
ATOM     22  C   UNL     1       7.103   4.599  17.860  0.00  0.00    +0.000 C 
BRANCH  22  23
ATOM     23  N   UNL     1       8.510   4.139  17.926  0.00  0.00    +0.000 NA
ATOM     24  H   UNL     1       8.550   3.171  17.595  0.00  0.00    +0.000 HD
ATOM     25  H   UNL     1       8.812   4.108  18.900  0.00  0.00    +0.000 HD
ENDBRANCH  22  23
BRANCH  22  26
ATOM     26  C   UNL     1       6.978   5.845  18.732  0.00  0.00    +0.000 C 
BRANCH  26  27
ATOM     27  C   UNL     1       8.150   6.817  18.597  0.00  0.00    +0.000 C 
BRANCH  27  28
ATOM     28  S   UNL     1       7.653   8.307  17.668  0.00  0.00    +0.000 S 
ATOM     29  C   UNL     1       8.712   9.524  18.491  0.00  0.00    +0.000 C 
ENDBRANCH  27  28
ENDBRANCH  26  27
ENDBRANCH  22  26
ENDBRANCH  20  22
ENDBRANCH  19  20
ENDBRANCH  18  19
ENDBRANCH  17  18
ENDBRANCH   3  17
TORSDOF 14
ENDMDL
MODEL 3
REMARK VINA RESULT:      -6.0      2.000      2.855
REMARK  Name = 
REMARK  16 active torsions:
REMARK  status: ('A' for Active; 'I' for Inactive)
REMARK    1  A    between atoms: C_1  and  O_2
REMARK    2  A    between atoms: O_2  and  C_3
REMARK    3  A    between atoms: C_5  and  C_6
REMARK    4  A    between atoms: C_6  and  C_7
REMARK    5  A    between atoms: N_9  and  O_10
REMARK    6  A    between atoms: N_9  and  C_11
REMARK    7  A    between atoms: C_11  and  C_12
REMARK    8  A    between atoms: C_12  and  O_13
REMARK    9  A    between atoms: O_13  and  C_14
REMARK   10  A    between atoms: C_14  and  C_16
REMARK   11  A    between atoms: C_16  and  N_17
REMARK   12  A    between atoms: C_16  and  C_18
REMARK   13  A    between atoms: C_18  and  C_19
REMARK   14  A    between atoms: C_19  and  S_20
REMARK   15  A    between atoms: S_20  and  C_21
REMARK   16  A    between atoms: C_24  and  O_25
REMARK                            x       y       z     vdW  Elec       q    Type
REMARK                         _______ _______ _______ _____ _____    ______ ____
ROOT
ATOM      1  C   UNL     1       1.818   4.193  20.144  0.00  0.00    +0.000 C 
ATOM      2  O   UNL     1       0.611   4.048  20.380  0.00  0.00    +0.000 OA
ATOM      3  N   UNL     1       2.513   3.237  19.463  0.00  0.00    +0.000 N 
ENDROOT
BRANCH   3   4
ATOM      4  O   UNL     1       1.784   2.067  19.137  0.00  0.00    +0.000 OA
ATOM      5  H   UNL     1       1.839   1.552  19.975  0.00  0.00    +0.000 HD
ENDBRANCH   3   4
BRANCH   1   6
ATOM      6  C   UNL     1       2.558   5.459  20.578  0.00  0.00    +0.000 C 
BRANCH   6   9
ATOM      7  C   UNL     1       1.551   8.991  19.465  0.00  0.00    +0.000 A 
ATOM      8  C   UNL     1       1.712   7.815  20.224  0.00  0.00    +0.000 A 
ATOM      9  C   UNL     1       2.343   6.675  19.699  0.00  0.00    +0.000 A 
ATOM     10  C   UNL     1       2.851   6.749  18.395  0.00  0.00    +0.000 A 
ATOM     11  C   UNL     1       2.677   7.898  17.626  0.00  0.00    +0.000 A 
ATOM     12  C   UNL     1       2.025   9.013  18.154  0.00  0.00    +0.000 A 
BRANCH   7  14
ATOM     13  C   UNL     1      -0.410   9.903  20.496  0.00  0.00    +0.000 C 
ATOM     14  O   UNL     1       0.967  10.026  20.151  0.00  0.00    +0.000 OA
ENDBRANCH   7  14
BRANCH  12  15
ATOM     15  O   UNL     1       1.897  10.120  17.365  0.00  0.00    +0.000 OA
ATOM     16  H   UNL     1       2.429  10.840  17.729  0.00  0.00    +0.000 HD
ENDBRANCH  12  15
ENDBRANCH   6   9
ENDBRANCH   1   6
BRANCH   3  17
ATOM     17  C   UNL     1       3.944   3.023  19.380  0.00  0.00    +0.000 C 
BRANCH  17  18
ATOM     18  C   UNL     1       4.502   3.446  18.027  0.00  0.00    +0.000 C 
BRANCH  18  19
ATOM     19  O   UNL     1       5.898   3.764  18.151  0.00  0.00    +0.000 OA
BRANCH  19  20
ATOM     20  C   UNL     1       6.185   5.096  18.136  0.00  0.00    +0.000 C 
ATOM     21  O   UNL     1       6.318   5.798  19.135  0.00  0.00    +0.000 OA
BRANCH  20  22
ATOM     22  C   UNL     1       6.371   5.587  16.701  0.00  0.00    +0.000 C 
BRANCH  22  23
ATOM     23  N   UNL     1       7.537   6.498  16.640  0.00  0.00    +0.000 NA
ATOM     24  H   UNL     1       8.378   5.937  16.477  0.00  0.00    +0.000 HD
ATOM     25  H   UNL     1       7.674   6.938  17.550  0.00  0.00    +0.000 HD
ENDBRANCH  22  23
BRANCH  22  26
ATOM     26  C   UNL     1       6.655   4.402  15.782  0.00  0.00    +0.000 C 
BRANCH  26  27
ATOM     27  C   UNL     1       5.756   4.346  14.546  0.00  0.00    +0.000 C 
BRANCH  27  28
ATOM     28  S   UNL     1       6.746   4.086  13.036  0.00  0.00    +0.000 S 
ATOM     29  C   UNL     1       5.564   3.098  12.085  0.00  0.00    +0.000 C 
ENDBRANCH  27  28
ENDBRANCH  26  27
ENDBRANCH  22  26
ENDBRANCH  20  22
ENDBRANCH  19  20
ENDBRANCH  18  19
ENDBRANCH  17  18
ENDBRANCH   3  17
TORSDOF 14
ENDMDL
MODEL 4
REMARK VINA RESULT:      -5.9      3.063      5.825
REMARK  Name = 
REMARK  16 active torsions:
REMARK  status: ('A' for Active; 'I' for Inactive)
REMARK    1  A    between atoms: C_1  and  O_2
REMARK    2  A    between atoms: O_2  and  C_3
REMARK    3  A    between atoms: C_5  and  C_6
REMARK    4  A    between atoms: C_6  and  C_7
REMARK    5  A    between atoms: N_9  and  O_10
REMARK    6  A    between atoms: N_9  and  C_11
REMARK    7  A    between atoms: C_11  and  C_12
REMARK    8  A    between atoms: C_12  and  O_13
REMARK    9  A    between atoms: O_13  and  C_14
REMARK   10  A    between atoms: C_14  and  C_16
REMARK   11  A    between atoms: C_16  and  N_17
REMARK   12  A    between atoms: C_16  and  C_18
REMARK   13  A    between atoms: C_18  and  C_19
REMARK   14  A    between atoms: C_19  and  S_20
REMARK   15  A    between atoms: S_20  and  C_21
REMARK   16  A    between atoms: C_24  and  O_25
REMARK                            x       y       z     vdW  Elec       q    Type
REMARK                         _______ _______ _______ _____ _____    ______ ____
ROOT
ATOM      1  C   UNL     1       3.186   2.922  17.488  0.00  0.00    +0.000 C 
ATOM      2  O   UNL     1       2.307   2.417  16.778  0.00  0.00    +0.000 OA
ATOM      3  N   UNL     1       3.878   2.161  18.385  0.00  0.00    +0.000 N 
ENDROOT
BRANCH   3   4
ATOM      4  O   UNL     1       3.461   0.812  18.493  0.00  0.00    +0.000 OA
ATOM      5  H   UNL     1       3.022   0.804  19.375  0.00  0.00    +0.000 HD
ENDBRANCH   3   4
BRANCH   1   6
ATOM      6  C   UNL     1       3.546   4.403  17.361  0.00  0.00    +0.000 C 
BRANCH   6   9
ATOM      7  C   UNL     1       6.870   5.846  16.097  0.00  0.00    +0.000 A 
ATOM      8  C   UNL     1       5.733   5.580  16.885  0.00  0.00    +0.000 A 
ATOM      9  C   UNL     1       4.715   4.715  16.448  0.00  0.00    +0.000 A 
ATOM     10  C   UNL     1       4.879   4.084  15.208  0.00  0.00    +0.000 A 
ATOM     11  C   UNL     1       5.988   4.356  14.410  0.00  0.00    +0.000 A 
ATOM     12  C   UNL     1       6.977   5.238  14.847  0.00  0.00    +0.000 A 
BRANCH   7  14
ATOM     13  C   UNL     1       7.305   7.776  17.449  0.00  0.00    +0.000 C 
ATOM     14  O   UNL     1       7.791   6.665  16.700  0.00  0.00    +0.000 OA
ENDBRANCH   7  14
BRANCH  12  15
ATOM     15  O   UNL     1       8.052   5.457  14.034  0.00  0.00    +0.000 OA
ATOM     16  H   UNL     1       8.473   4.613  13.820  0.00  0.00    +0.000 HD
ENDBRANCH  12  15
ENDBRANCH   6   9
ENDBRANCH   1   6
BRANCH   3  17
ATOM     17  C   UNL     1       4.669   2.576  19.528  0.00  0.00    +0.000 C 
BRANCH  17  18
ATOM     18  C   UNL     1       4.141   1.978  20.826  0.00  0.00    +0.000 C 
BRANCH  18  19
ATOM     19  O   UNL     1       3.463   2.989  21.590  0.00  0.00    +0.000 OA
BRANCH  19  20
ATOM     20  C   UNL     1       2.103   2.939  21.525  0.00  0.00    +0.000 C 
ATOM     21  O   UNL     1       1.385   2.317  22.303  0.00  0.00    +0.000 OA
BRANCH  20  22
ATOM     22  C   UNL     1       1.589   3.809  20.379  0.00  0.00    +0.000 C 
BRANCH  22  23
ATOM     23  N   UNL     1       0.184   3.450  20.080  0.00  0.00    +0.000 NA
ATOM     24  H   UNL     1      -0.371   4.310  20.048  0.00  0.00    +0.000 HD
ATOM     25  H   UNL     1      -0.200   2.906  20.853  0.00  0.00    +0.000 HD
ENDBRANCH  22  23
BRANCH  22  26
ATOM     26  C   UNL     1       1.617   5.278  20.793  0.00  0.00    +0.000 C 
BRANCH  26  27
ATOM     27  C   UNL     1       2.562   6.140  19.955  0.00  0.00    +0.000 C 
BRANCH  27  28
ATOM     28  S   UNL     1       1.860   7.803  19.689  0.00  0.00    +0.000 S 
ATOM     29  C   UNL     1       2.598   8.172  18.078  0.00  0.00    +0.000 C 
ENDBRANCH  27  28
ENDBRANCH  26  27
ENDBRANCH  22  26
ENDBRANCH  20  22
ENDBRANCH  19  20
ENDBRANCH  18  19
ENDBRANCH  17  18
ENDBRANCH   3  17
TORSDOF 14
ENDMDL
MODEL 5
REMARK VINA RESULT:      -5.9      2.915      6.141
REMARK  Name = 
REMARK  16 active torsions:
REMARK  status: ('A' for Active; 'I' for Inactive)
REMARK    1  A    between atoms: C_1  and  O_2
REMARK    2  A    between atoms: O_2  and  C_3
REMARK    3  A    between atoms: C_5  and  C_6
REMARK    4  A    between atoms: C_6  and  C_7
REMARK    5  A    between atoms: N_9  and  O_10
REMARK    6  A    between atoms: N_9  and  C_11
REMARK    7  A    between atoms: C_11  and  C_12
REMARK    8  A    between atoms: C_12  and  O_13
REMARK    9  A    between atoms: O_13  and  C_14
REMARK   10  A    between atoms: C_14  and  C_16
REMARK   11  A    between atoms: C_16  and  N_17
REMARK   12  A    between atoms: C_16  and  C_18
REMARK   13  A    between atoms: C_18  and  C_19
REMARK   14  A    between atoms: C_19  and  S_20
REMARK   15  A    between atoms: S_20  and  C_21
REMARK   16  A    between atoms: C_24  and  O_25
REMARK                            x       y       z     vdW  Elec       q    Type
REMARK                         _______ _______ _______ _____ _____    ______ ____
ROOT
ATOM      1  C   UNL     1       3.932   2.708  20.015  0.00  0.00    +0.000 C 
ATOM      2  O   UNL     1       4.898   2.232  20.625  0.00  0.00    +0.000 OA
ATOM      3  N   UNL     1       2.784   3.035  20.677  0.00  0.00    +0.000 N 
ENDROOT
BRANCH   3   4
ATOM      4  O   UNL     1       2.761   2.713  22.057  0.00  0.00    +0.000 OA
ATOM      5  H   UNL     1       3.085   3.548  22.467  0.00  0.00    +0.000 HD
ENDBRANCH   3   4
BRANCH   1   6
ATOM      6  C   UNL     1       4.004   2.975  18.511  0.00  0.00    +0.000 C 
BRANCH   6   9
ATOM      7  C   UNL     1       6.034   5.344  16.277  0.00  0.00    +0.000 A 
ATOM      8  C   UNL     1       5.163   4.329  16.718  0.00  0.00    +0.000 A 
ATOM      9  C   UNL     1       5.008   4.025  18.082  0.00  0.00    +0.000 A 
ATOM     10  C   UNL     1       5.724   4.793  19.009  0.00  0.00    +0.000 A 
ATOM     11  C   UNL     1       6.607   5.784  18.585  0.00  0.00    +0.000 A 
ATOM     12  C   UNL     1       6.769   6.056  17.226  0.00  0.00    +0.000 A 
BRANCH   7  14
ATOM     13  C   UNL     1       6.846   4.714  14.113  0.00  0.00    +0.000 C 
ATOM     14  O   UNL     1       6.019   5.548  14.921  0.00  0.00    +0.000 OA
ENDBRANCH   7  14
BRANCH  12  15
ATOM     15  O   UNL     1       7.633   7.049  16.864  0.00  0.00    +0.000 OA
ATOM     16  H   UNL     1       7.275   7.905  17.137  0.00  0.00    +0.000 HD
ENDBRANCH  12  15
ENDBRANCH   6   9
ENDBRANCH   1   6
BRANCH   3  17
ATOM     17  C   UNL     1       1.452   3.262  20.153  0.00  0.00    +0.000 C 
BRANCH  17  18
ATOM     18  C   UNL     1       1.292   4.676  19.607  0.00  0.00    +0.000 C 
BRANCH  18  19
ATOM     19  O   UNL     1       2.109   5.586  20.362  0.00  0.00    +0.000 OA
BRANCH  19  20
ATOM     20  C   UNL     1       2.320   6.793  19.766  0.00  0.00    +0.000 C 
ATOM     21  O   UNL     1       3.126   7.000  18.864  0.00  0.00    +0.000 OA
BRANCH  20  22
ATOM     22  C   UNL     1       1.374   7.846  20.342  0.00  0.00    +0.000 C 
BRANCH  22  23
ATOM     23  N   UNL     1       1.843   8.245  21.689  0.00  0.00    +0.000 NA
ATOM     24  H   UNL     1       2.579   7.595  21.981  0.00  0.00    +0.000 HD
ATOM     25  H   UNL     1       1.087   8.122  22.363  0.00  0.00    +0.000 HD
ENDBRANCH  22  23
BRANCH  22  26
ATOM     26  C   UNL     1       1.385   9.090  19.457  0.00  0.00    +0.000 C 
BRANCH  26  27
ATOM     27  C   UNL     1       0.220  10.046  19.717  0.00  0.00    +0.000 C 
BRANCH  27  28
ATOM     28  S   UNL     1      -0.700  10.379  18.177  0.00  0.00    +0.000 S 
ATOM     29  C   UNL     1      -2.054  11.368  18.861  0.00  0.00    +0.000 C 
ENDBRANCH  27  28
ENDBRANCH  26  27
ENDBRANCH  22  26
ENDBRANCH  20  22
ENDBRANCH  19  20
ENDBRANCH  18  19
ENDBRANCH  17  18
ENDBRANCH   3  17
TORSDOF 14
ENDMDL
MODEL 6
REMARK VINA RESULT:      -5.8      2.133      2.713
REMARK  Name = 
REMARK  16 active torsions:
REMARK  status: ('A' for Active; 'I' for Inactive)
REMARK    1  A    between atoms: C_1  and  O_2
REMARK    2  A    between atoms: O_2  and  C_3
REMARK    3  A    between atoms: C_5  and  C_6
REMARK    4  A    between atoms: C_6  and  C_7
REMARK    5  A    between atoms: N_9  and  O_10
REMARK    6  A    between atoms: N_9  and  C_11
REMARK    7  A    between atoms: C_11  and  C_12
REMARK    8  A    between atoms: C_12  and  O_13
REMARK    9  A    between atoms: O_13  and  C_14
REMARK   10  A    between atoms: C_14  and  C_16
REMARK   11  A    between atoms: C_16  and  N_17
REMARK   12  A    between atoms: C_16  and  C_18
REMARK   13  A    between atoms: C_18  and  C_19
REMARK   14  A    between atoms: C_19  and  S_20
REMARK   15  A    between atoms: S_20  and  C_21
REMARK   16  A    between atoms: C_24  and  O_25
REMARK                            x       y       z     vdW  Elec       q    Type
REMARK                         _______ _______ _______ _____ _____    ______ ____
ROOT
ATOM      1  C   UNL     1       2.100   4.959  19.931  0.00  0.00    +0.000 C 
ATOM      2  O   UNL     1       1.202   4.996  20.782  0.00  0.00    +0.000 OA
ATOM      3  N   UNL     1       2.307   3.835  19.187  0.00  0.00    +0.000 N 
ENDROOT
BRANCH   3   4
ATOM      4  O   UNL     1       1.494   2.723  19.518  0.00  0.00    +0.000 OA
ATOM      5  H   UNL     1       0.919   3.094  20.227  0.00  0.00    +0.000 HD
ENDBRANCH   3   4
BRANCH   1   6
ATOM      6  C   UNL     1       2.983   6.180  19.665  0.00  0.00    +0.000 C 
BRANCH   6   9
ATOM      7  C   UNL     1       0.985   9.438  20.018  0.00  0.00    +0.000 A 
ATOM      8  C   UNL     1       1.625   8.215  20.303  0.00  0.00    +0.000 A 
ATOM      9  C   UNL     1       2.245   7.451  19.298  0.00  0.00    +0.000 A 
ATOM     10  C   UNL     1       2.244   7.961  17.994  0.00  0.00    +0.000 A 
ATOM     11  C   UNL     1       1.595   9.158  17.696  0.00  0.00    +0.000 A 
ATOM     12  C   UNL     1       0.962   9.891  18.700  0.00  0.00    +0.000 A 
BRANCH   7  14
ATOM     13  C   UNL     1       0.407   9.345  22.341  0.00  0.00    +0.000 C 
ATOM     14  O   UNL     1       0.485  10.079  21.122  0.00  0.00    +0.000 OA
ENDBRANCH   7  14
BRANCH  12  15
ATOM     15  O   UNL     1       0.356  11.066  18.357  0.00  0.00    +0.000 OA
ATOM     16  H   UNL     1      -0.506  10.881  17.960  0.00  0.00    +0.000 HD
ENDBRANCH  12  15
ENDBRANCH   6   9
ENDBRANCH   1   6
BRANCH   3  17
ATOM     17  C   UNL     1       3.471   3.442  18.417  0.00  0.00    +0.000 C 
BRANCH  17  18
ATOM     18  C   UNL     1       4.740   3.457  19.261  0.00  0.00    +0.000 C 
BRANCH  18  19
ATOM     19  O   UNL     1       5.851   3.903  18.467  0.00  0.00    +0.000 OA
BRANCH  19  20
ATOM     20  C   UNL     1       6.327   5.138  18.791  0.00  0.00    +0.000 C 
ATOM     21  O   UNL     1       6.876   5.423  19.851  0.00  0.00    +0.000 OA
BRANCH  20  22
ATOM     22  C   UNL     1       6.130   6.109  17.628  0.00  0.00    +0.000 C 
BRANCH  22  23
ATOM     23  N   UNL     1       7.397   6.829  17.367  0.00  0.00    +0.000 NA
ATOM     24  H   UNL     1       8.104   6.489  18.026  0.00  0.00    +0.000 HD
ATOM     25  H   UNL     1       7.278   7.818  17.582  0.00  0.00    +0.000 HD
ENDBRANCH  22  23
BRANCH  22  26
ATOM     26  C   UNL     1       5.764   5.335  16.364  0.00  0.00    +0.000 C 
BRANCH  26  27
ATOM     27  C   UNL     1       6.972   4.880  15.545  0.00  0.00    +0.000 C 
BRANCH  27  28
ATOM     28  S   UNL     1       6.445   4.208  13.932  0.00  0.00    +0.000 S 
ATOM     29  C   UNL     1       7.635   5.057  12.865  0.00  0.00    +0.000 C 
ENDBRANCH  27  28
ENDBRANCH  26  27
ENDBRANCH  22  26
ENDBRANCH  20  22
ENDBRANCH  19  20
ENDBRANCH  18  19
ENDBRANCH  17  18
ENDBRANCH   3  17
TORSDOF 14
ENDMDL
MODEL 7
REMARK VINA RESULT:      -5.8      3.045      6.515
REMARK  Name = 
REMARK  16 active torsions:
REMARK  status: ('A' for Active; 'I' for Inactive)
REMARK    1  A    between atoms: C_1  and  O_2
REMARK    2  A    between atoms: O_2  and  C_3
REMARK    3  A    between atoms: C_5  and  C_6
REMARK    4  A    between atoms: C_6  and  C_7
REMARK    5  A    between atoms: N_9  and  O_10
REMARK    6  A    between atoms: N_9  and  C_11
REMARK    7  A    between atoms: C_11  and  C_12
REMARK    8  A    between atoms: C_12  and  O_13
REMARK    9  A    between atoms: O_13  and  C_14
REMARK   10  A    between atoms: C_14  and  C_16
REMARK   11  A    between atoms: C_16  and  N_17
REMARK   12  A    between atoms: C_16  and  C_18
REMARK   13  A    between atoms: C_18  and  C_19
REMARK   14  A    between atoms: C_19  and  S_20
REMARK   15  A    between atoms: S_20  and  C_21
REMARK   16  A    between atoms: C_24  and  O_25
REMARK                            x       y       z     vdW  Elec       q    Type
REMARK                         _______ _______ _______ _____ _____    ______ ____
ROOT
ATOM      1  C   UNL     1       5.072   3.902  18.153  0.00  0.00    +0.000 C 
ATOM      2  O   UNL     1       6.102   4.295  18.715  0.00  0.00    +0.000 OA
ATOM      3  N   UNL     1       4.374   2.838  18.645  0.00  0.00    +0.000 N 
ENDROOT
BRANCH   3   4
ATOM      4  O   UNL     1       4.954   2.190  19.763  0.00  0.00    +0.000 OA
ATOM      5  H   UNL     1       5.658   2.827  20.027  0.00  0.00    +0.000 HD
ENDBRANCH   3   4
BRANCH   1   6
ATOM      6  C   UNL     1       4.532   4.613  16.911  0.00  0.00    +0.000 C 
BRANCH   6   9
ATOM      7  C   UNL     1       6.055   3.844  13.474  0.00  0.00    +0.000 A 
ATOM      8  C   UNL     1       5.250   3.796  14.629  0.00  0.00    +0.000 A 
ATOM      9  C   UNL     1       5.470   4.652  15.722  0.00  0.00    +0.000 A 
ATOM     10  C   UNL     1       6.501   5.594  15.618  0.00  0.00    +0.000 A 
ATOM     11  C   UNL     1       7.319   5.636  14.491  0.00  0.00    +0.000 A 
ATOM     12  C   UNL     1       7.104   4.762  13.425  0.00  0.00    +0.000 A 
BRANCH   7  14
ATOM     13  C   UNL     1       4.634   3.407  11.595  0.00  0.00    +0.000 C 
ATOM     14  O   UNL     1       5.665   2.981  12.482  0.00  0.00    +0.000 OA
ENDBRANCH   7  14
BRANCH  12  15
ATOM     15  O   UNL     1       7.923   4.856  12.337  0.00  0.00    +0.000 OA
ATOM     16  H   UNL     1       7.436   4.597  11.542  0.00  0.00    +0.000 HD
ENDBRANCH  12  15
ENDBRANCH   6   9
ENDBRANCH   1   6
BRANCH   3  17
ATOM     17  C   UNL     1       3.384   2.004  17.992  0.00  0.00    +0.000 C 
BRANCH  17  18
ATOM     18  C   UNL     1       2.131   1.841  18.844  0.00  0.00    +0.000 C 
BRANCH  18  19
ATOM     19  O   UNL     1       1.455   3.103  18.966  0.00  0.00    +0.000 OA
BRANCH  19  20
ATOM     20  C   UNL     1       1.230   3.510  20.247  0.00  0.00    +0.000 C 
ATOM     21  O   UNL     1       0.961   2.764  21.184  0.00  0.00    +0.000 OA
BRANCH  20  22
ATOM     22  C   UNL     1       1.411   5.023  20.367  0.00  0.00    +0.000 C 
BRANCH  22  23
ATOM     23  N   UNL     1       2.460   5.314  21.370  0.00  0.00    +0.000 NA
ATOM     24  H   UNL     1       2.623   4.469  21.924  0.00  0.00    +0.000 HD
ATOM     25  H   UNL     1       2.116   6.011  22.030  0.00  0.00    +0.000 HD
ENDBRANCH  22  23
BRANCH  22  26
ATOM     26  C   UNL     1       1.871   5.596  19.029  0.00  0.00    +0.000 C 
BRANCH  26  27
ATOM     27  C   UNL     1       2.822   6.786  19.159  0.00  0.00    +0.000 C 
BRANCH  27  28
ATOM     28  S   UNL     1       2.310   8.149  18.060  0.00  0.00    +0.000 S 
ATOM     29  C   UNL     1       1.286   9.085  19.223  0.00  0.00    +0.000 C 
ENDBRANCH  27  28
ENDBRANCH  26  27
ENDBRANCH  22  26
ENDBRANCH  20  22
ENDBRANCH  19  20
ENDBRANCH  18  19
ENDBRANCH  17  18
ENDBRANCH   3  17
TORSDOF 14
ENDMDL
MODEL 8
REMARK VINA RESULT:      -5.8      4.202      7.619
REMARK  Name = 
REMARK  16 active torsions:
REMARK  status: ('A' for Active; 'I' for Inactive)
REMARK    1  A    between atoms: C_1  and  O_2
REMARK    2  A    between atoms: O_2  and  C_3
REMARK    3  A    between atoms: C_5  and  C_6
REMARK    4  A    between atoms: C_6  and  C_7
REMARK    5  A    between atoms: N_9  and  O_10
REMARK    6  A    between atoms: N_9  and  C_11
REMARK    7  A    between atoms: C_11  and  C_12
REMARK    8  A    between atoms: C_12  and  O_13
REMARK    9  A    between atoms: O_13  and  C_14
REMARK   10  A    between atoms: C_14  and  C_16
REMARK   11  A    between atoms: C_16  and  N_17
REMARK   12  A    between atoms: C_16  and  C_18
REMARK   13  A    between atoms: C_18  and  C_19
REMARK   14  A    between atoms: C_19  and  S_20
REMARK   15  A    between atoms: S_20  and  C_21
REMARK   16  A    between atoms: C_24  and  O_25
REMARK                            x       y       z     vdW  Elec       q    Type
REMARK                         _______ _______ _______ _____ _____    ______ ____
ROOT
ATOM      1  C   UNL     1       7.997   8.625  17.975  0.00  0.00    +0.000 C 
ATOM      2  O   UNL     1       7.448   9.462  17.246  0.00  0.00    +0.000 OA
ATOM      3  N   UNL     1       7.734   7.294  17.826  0.00  0.00    +0.000 N 
ENDROOT
BRANCH   3   4
ATOM      4  O   UNL     1       6.749   6.970  16.860  0.00  0.00    +0.000 OA
ATOM      5  H   UNL     1       7.280   6.501  16.176  0.00  0.00    +0.000 HD
ENDBRANCH   3   4
BRANCH   1   6
ATOM      6  C   UNL     1       9.009   9.050  19.040  0.00  0.00    +0.000 C 
BRANCH   6   9
ATOM      7  C   UNL     1       9.787  12.615  20.229  0.00  0.00    +0.000 A 
ATOM      8  C   UNL     1       9.361  11.273  20.193  0.00  0.00    +0.000 A 
ATOM      9  C   UNL     1       9.410  10.511  19.012  0.00  0.00    +0.000 A 
ATOM     10  C   UNL     1       9.936  11.116  17.864  0.00  0.00    +0.000 A 
ATOM     11  C   UNL     1      10.340  12.450  17.881  0.00  0.00    +0.000 A 
ATOM     12  C   UNL     1      10.261  13.200  19.055  0.00  0.00    +0.000 A 
BRANCH   7  14
ATOM     13  C   UNL     1       8.929  12.547  22.465  0.00  0.00    +0.000 C 
ATOM     14  O   UNL     1       9.726  13.189  21.473  0.00  0.00    +0.000 OA
ENDBRANCH   7  14
BRANCH  12  15
ATOM     15  O   UNL     1      10.685  14.497  19.023  0.00  0.00    +0.000 OA
ATOM     16  H   UNL     1      10.759  14.836  19.926  0.00  0.00    +0.000 HD
ENDBRANCH  12  15
ENDBRANCH   6   9
ENDBRANCH   1   6
BRANCH   3  17
ATOM     17  C   UNL     1       7.966   6.201  18.749  0.00  0.00    +0.000 C 
BRANCH  17  18
ATOM     18  C   UNL     1       6.661   5.644  19.306  0.00  0.00    +0.000 C 
BRANCH  18  19
ATOM     19  O   UNL     1       6.403   4.348  18.742  0.00  0.00    +0.000 OA
BRANCH  19  20
ATOM     20  C   UNL     1       5.127   3.898  18.903  0.00  0.00    +0.000 C 
ATOM     21  O   UNL     1       4.795   2.977  19.643  0.00  0.00    +0.000 OA
BRANCH  20  22
ATOM     22  C   UNL     1       4.155   4.735  18.072  0.00  0.00    +0.000 C 
BRANCH  22  23
ATOM     23  N   UNL     1       4.054   4.164  16.710  0.00  0.00    +0.000 NA
ATOM     24  H   UNL     1       3.063   4.028  16.489  0.00  0.00    +0.000 HD
ATOM     25  H   UNL     1       4.466   3.231  16.700  0.00  0.00    +0.000 HD
ENDBRANCH  22  23
BRANCH  22  26
ATOM     26  C   UNL     1       2.765   4.691  18.702  0.00  0.00    +0.000 C 
BRANCH  26  27
ATOM     27  C   UNL     1       1.737   3.912  17.880  0.00  0.00    +0.000 C 
BRANCH  27  28
ATOM     28  S   UNL     1       1.031   2.542  18.856  0.00  0.00    +0.000 S 
ATOM     29  C   UNL     1       1.199   3.253  20.512  0.00  0.00    +0.000 C 
ENDBRANCH  27  28
ENDBRANCH  26  27
ENDBRANCH  22  26
ENDBRANCH  20  22
ENDBRANCH  19  20
ENDBRANCH  18  19
ENDBRANCH  17  18
ENDBRANCH   3  17
TORSDOF 14
ENDMDL
MODEL 9
REMARK VINA RESULT:      -5.8      2.907      6.075
REMARK  Name = 
REMARK  16 active torsions:
REMARK  status: ('A' for Active; 'I' for Inactive)
REMARK    1  A    between atoms: C_1  and  O_2
REMARK    2  A    between atoms: O_2  and  C_3
REMARK    3  A    between atoms: C_5  and  C_6
REMARK    4  A    between atoms: C_6  and  C_7
REMARK    5  A    between atoms: N_9  and  O_10
REMARK    6  A    between atoms: N_9  and  C_11
REMARK    7  A    between atoms: C_11  and  C_12
REMARK    8  A    between atoms: C_12  and  O_13
REMARK    9  A    between atoms: O_13  and  C_14
REMARK   10  A    between atoms: C_14  and  C_16
REMARK   11  A    between atoms: C_16  and  N_17
REMARK   12  A    between atoms: C_16  and  C_18
REMARK   13  A    between atoms: C_18  and  C_19
REMARK   14  A    between atoms: C_19  and  S_20
REMARK   15  A    between atoms: S_20  and  C_21
REMARK   16  A    between atoms: C_24  and  O_25
REMARK                            x       y       z     vdW  Elec       q    Type
REMARK                         _______ _______ _______ _____ _____    ______ ____
ROOT
ATOM      1  C   UNL     1       2.323   2.890  18.604  0.00  0.00    +0.000 C 
ATOM      2  O   UNL     1       1.764   2.990  17.504  0.00  0.00    +0.000 OA
ATOM      3  N   UNL     1       1.604   2.993  19.760  0.00  0.00    +0.000 N 
ENDROOT
BRANCH   3   4
ATOM      4  O   UNL     1       0.231   3.299  19.602  0.00  0.00    +0.000 OA
ATOM      5  H   UNL     1      -0.175   2.820  20.362  0.00  0.00    +0.000 HD
ENDBRANCH   3   4
BRANCH   1   6
ATOM      6  C   UNL     1       3.824   2.618  18.704  0.00  0.00    +0.000 C 
BRANCH   6   9
ATOM      7  C   UNL     1       5.601   5.004  16.279  0.00  0.00    +0.000 A 
ATOM      8  C   UNL     1       4.830   3.947  16.803  0.00  0.00    +0.000 A 
ATOM      9  C   UNL     1       4.723   3.722  18.186  0.00  0.00    +0.000 A 
ATOM     10  C   UNL     1       5.381   4.611  19.047  0.00  0.00    +0.000 A 
ATOM     11  C   UNL     1       6.165   5.646  18.541  0.00  0.00    +0.000 A 
ATOM     12  C   UNL     1       6.282   5.840  17.164  0.00  0.00    +0.000 A 
BRANCH   7  14
ATOM     13  C   UNL     1       6.318   4.197  14.141  0.00  0.00    +0.000 C 
ATOM     14  O   UNL     1       5.548   5.114  14.913  0.00  0.00    +0.000 OA
ENDBRANCH   7  14
BRANCH  12  15
ATOM     15  O   UNL     1       7.047   6.879  16.721  0.00  0.00    +0.000 OA
ATOM     16  H   UNL     1       6.811   7.684  17.202  0.00  0.00    +0.000 HD
ENDBRANCH  12  15
ENDBRANCH   6   9
ENDBRANCH   1   6
BRANCH   3  17
ATOM     17  C   UNL     1       2.065   3.256  21.109  0.00  0.00    +0.000 C 
BRANCH  17  18
ATOM     18  C   UNL     1       2.425   4.724  21.307  0.00  0.00    +0.000 C 
BRANCH  18  19
ATOM     19  O   UNL     1       1.455   5.558  20.654  0.00  0.00    +0.000 OA
BRANCH  19  20
ATOM     20  C   UNL     1       1.939   6.745  20.193  0.00  0.00    +0.000 C 
ATOM     21  O   UNL     1       2.856   6.864  19.385  0.00  0.00    +0.000 OA
BRANCH  20  22
ATOM     22  C   UNL     1       1.145   7.911  20.780  0.00  0.00    +0.000 C 
BRANCH  22  23
ATOM     23  N   UNL     1       1.833   8.414  21.992  0.00  0.00    +0.000 NA
ATOM     24  H   UNL     1       1.749   9.434  22.013  0.00  0.00    +0.000 HD
ATOM     25  H   UNL     1       2.833   8.224  21.919  0.00  0.00    +0.000 HD
ENDBRANCH  22  23
BRANCH  22  26
ATOM     26  C   UNL     1       1.082   9.055  19.771  0.00  0.00    +0.000 C 
BRANCH  26  27
ATOM     27  C   UNL     1       0.478  10.343  20.331  0.00  0.00    +0.000 C 
BRANCH  27  28
ATOM     28  S   UNL     1      -0.271  11.340  18.999  0.00  0.00    +0.000 S 
ATOM     29  C   UNL     1      -0.604  12.857  19.929  0.00  0.00    +0.000 C 
ENDBRANCH  27  28
ENDBRANCH  26  27
ENDBRANCH  22  26
ENDBRANCH  20  22
ENDBRANCH  19  20
ENDBRANCH  18  19
ENDBRANCH  17  18
ENDBRANCH   3  17
TORSDOF 14
ENDMDL
