MODEL 1
REMARK VINA RESULT:      -8.5      0.000      0.000
REMARK  Name = 
REMARK  11 active torsions:
REMARK  status: ('A' for Active; 'I' for Inactive)
REMARK    1  A    between atoms: C_1  and  C_2
REMARK    2  A    between atoms: C_2  and  C_3
REMARK    3  A    between atoms: N_8  and  C_9
REMARK    4  A    between atoms: C_9  and  C_10
REMARK    5  A    between atoms: C_10  and  C_11
REMARK    6  A    between atoms: C_11  and  N_12
REMARK    7  A    between atoms: C_13  and  C_15
REMARK    8  A    between atoms: N_21  and  C_22
REMARK    9  A    between atoms: C_22  and  C_23
REMARK   10  A    between atoms: C_28  and  O_29
REMARK   11  A    between atoms: O_29  and  C_30
REMARK                            x       y       z     vdW  Elec       q    Type
REMARK                         _______ _______ _______ _____ _____    ______ ____
ROOT
ATOM      1  C   UNL     1       0.388   9.434  21.115  0.00  0.00    +0.000 A 
ATOM      2  C   UNL     1       0.860   9.975  19.916  0.00  0.00    +0.000 A 
ATOM      3  C   UNL     1       1.630   9.179  19.074  0.00  0.00    +0.000 A 
ATOM      4  C   UNL     1       1.914   7.860  19.441  0.00  0.00    +0.000 A 
ATOM      5  C   UNL     1       2.668   6.981  18.540  0.00  0.00    +0.000 A 
ATOM      6  O   UNL     1       3.107   7.445  17.490  0.00  0.00    +0.000 OA
ATOM      7  N   UNL     1       2.838   5.664  18.956  0.00  0.00    +0.000 N 
ATOM      8  C   UNL     1       2.498   5.189  20.207  0.00  0.00    +0.000 A 
ATOM      9  O   UNL     1       2.763   4.063  20.623  0.00  0.00    +0.000 OA
ATOM     10  N   UNL     1       1.788   6.036  21.009  0.00  0.00    +0.000 N 
ATOM     11  C   UNL     1       1.455   7.336  20.649  0.00  0.00    +0.000 A 
ATOM     12  C   UNL     1       0.683   8.117  21.487  0.00  0.00    +0.000 A 
ATOM     13  H   UNL     1       1.481   5.651  21.894  0.00  0.00    +0.000 HD
ENDROOT
BRANCH   1  15
ATOM     14  N   UNL     1      -0.845  11.459  21.554  0.00  0.00    +0.000 N 
ATOM     15  C   UNL     1      -0.479  10.212  22.010  0.00  0.00    +0.000 C 
ATOM     16  O   UNL     1      -0.765   9.719  23.092  0.00  0.00    +0.000 OA
ATOM     17  H   UNL     1      -0.584  11.743  20.619  0.00  0.00    +0.000 HD
BRANCH  14  18
ATOM     18  C   UNL     1      -1.652  12.383  22.327  0.00  0.00    +0.000 C 
BRANCH  18  19
ATOM     19  C   UNL     1      -2.967  12.736  21.647  0.00  0.00    +0.000 C 
BRANCH  19  20
ATOM     20  C   UNL     1      -2.789  13.024  20.163  0.00  0.00    +0.000 C 
BRANCH  20  26
ATOM     21  C   UNL     1      -4.323  11.812  18.606  0.00  0.00    +0.000 C 
ATOM     22  C   UNL     1      -4.466  10.449  17.897  0.00  0.00    +0.000 C 
ATOM     23  C   UNL     1      -3.330  10.204  16.908  0.00  0.00    +0.000 C 
ATOM     24  C   UNL     1      -1.978  10.404  17.578  0.00  0.00    +0.000 C 
ATOM     25  C   UNL     1      -1.917  11.747  18.296  0.00  0.00    +0.000 C 
ATOM     26  N   UNL     1      -3.002  11.857  19.289  0.00  0.00    +0.000 NA
BRANCH  21  28
ATOM     27  C   UNL     1      -6.619  10.996  19.503  0.00  0.00    +0.000 C 
ATOM     28  C   UNL     1      -5.556  12.084  19.503  0.00  0.00    +0.000 C 
ENDBRANCH  21  28
ENDBRANCH  20  26
ENDBRANCH  19  20
ENDBRANCH  18  19
ENDBRANCH  14  18
ENDBRANCH   1  15
BRANCH   7  29
ATOM     29  C   UNL     1       3.461   4.749  18.011  0.00  0.00    +0.000 C 
BRANCH  29  30
ATOM     30  C   UNL     1       4.983   4.764  18.021  0.00  0.00    +0.000 A 
ATOM     31  C   UNL     1       5.632   5.300  19.167  0.00  0.00    +0.000 A 
ATOM     32  C   UNL     1       7.009   5.509  19.226  0.00  0.00    +0.000 A 
ATOM     33  C   UNL     1       7.792   5.183  18.135  0.00  0.00    +0.000 A 
ATOM     34  C   UNL     1       7.188   4.631  17.009  0.00  0.00    +0.000 A 
ATOM     35  C   UNL     1       5.795   4.417  16.925  0.00  0.00    +0.000 A 
BRANCH  35  36
ATOM     36  O   UNL     1       5.482   3.916  15.694  0.00  0.00    +0.000 OA
ATOM     37  C   UNL     1       6.169   4.296  14.520  0.00  0.00    +0.000 C 
ENDBRANCH  35  36
ENDBRANCH  29  30
ENDBRANCH   7  29
TORSDOF 9
ENDMDL
MODEL 2
REMARK VINA RESULT:      -8.3      1.793     10.108
REMARK  Name = 
REMARK  11 active torsions:
REMARK  status: ('A' for Active; 'I' for Inactive)
REMARK    1  A    between atoms: C_1  and  C_2
REMARK    2  A    between atoms: C_2  and  C_3
REMARK    3  A    between atoms: N_8  and  C_9
REMARK    4  A    between atoms: C_9  and  C_10
REMARK    5  A    between atoms: C_10  and  C_11
REMARK    6  A    between atoms: C_11  and  N_12
REMARK    7  A    between atoms: C_13  and  C_15
REMARK    8  A    between atoms: N_21  and  C_22
REMARK    9  A    between atoms: C_22  and  C_23
REMARK   10  A    between atoms: C_28  and  O_29
REMARK   11  A    between atoms: O_29  and  C_30
REMARK                            x       y       z     vdW  Elec       q    Type
REMARK                         _______ _______ _______ _____ _____    ______ ____
ROOT
ATOM      1  C   UNL     1       2.032   8.016  18.800  0.00  0.00    +0.000 A 
ATOM      2  C   UNL     1       1.984   9.135  17.963  0.00  0.00    +0.000 A 
ATOM      3  C   UNL     1       1.400  10.305  18.434  0.00  0.00    +0.000 A 
ATOM      4  C   UNL     1       0.875  10.342  19.730  0.00  0.00    +0.000 A 
ATOM      5  C   UNL     1       0.313  11.584  20.272  0.00  0.00    +0.000 A 
ATOM      6  O   UNL     1       0.247  12.572  19.544  0.00  0.00    +0.000 OA
ATOM      7  N   UNL     1      -0.116  11.545  21.595  0.00  0.00    +0.000 N 
ATOM      8  C   UNL     1      -0.202  10.396  22.356  0.00  0.00    +0.000 A 
ATOM      9  O   UNL     1      -0.701  10.336  23.478  0.00  0.00    +0.000 OA
ATOM     10  N   UNL     1       0.342   9.265  21.818  0.00  0.00    +0.000 N 
ATOM     11  C   UNL     1       0.910   9.215  20.550  0.00  0.00    +0.000 A 
ATOM     12  C   UNL     1       1.495   8.050  20.092  0.00  0.00    +0.000 A 
ATOM     13  H   UNL     1       0.338   8.447  22.415  0.00  0.00    +0.000 HD
ENDROOT
BRANCH   1  15
ATOM     14  N   UNL     1       2.208   5.615  18.937  0.00  0.00    +0.000 N 
ATOM     15  C   UNL     1       2.691   6.776  18.374  0.00  0.00    +0.000 C 
ATOM     16  O   UNL     1       3.634   6.872  17.600  0.00  0.00    +0.000 OA
ATOM     17  H   UNL     1       1.391   5.655  19.532  0.00  0.00    +0.000 HD
BRANCH  14  18
ATOM     18  C   UNL     1       2.773   4.307  18.671  0.00  0.00    +0.000 C 
BRANCH  18  19
ATOM     19  C   UNL     1       3.984   3.995  19.539  0.00  0.00    +0.000 C 
BRANCH  19  20
ATOM     20  C   UNL     1       5.110   3.345  18.746  0.00  0.00    +0.000 C 
BRANCH  20  26
ATOM     21  C   UNL     1       5.953   4.850  16.937  0.00  0.00    +0.000 C 
ATOM     22  C   UNL     1       7.216   5.642  16.541  0.00  0.00    +0.000 C 
ATOM     23  C   UNL     1       7.533   6.741  17.551  0.00  0.00    +0.000 C 
ATOM     24  C   UNL     1       7.586   6.178  18.964  0.00  0.00    +0.000 C 
ATOM     25  C   UNL     1       6.332   5.370  19.278  0.00  0.00    +0.000 C 
ATOM     26  N   UNL     1       6.154   4.282  18.298  0.00  0.00    +0.000 NA
BRANCH  21  28
ATOM     27  C   UNL     1       5.720   4.340  14.402  0.00  0.00    +0.000 C 
ATOM     28  C   UNL     1       5.587   3.831  15.829  0.00  0.00    +0.000 C 
ENDBRANCH  21  28
ENDBRANCH  20  26
ENDBRANCH  19  20
ENDBRANCH  18  19
ENDBRANCH  14  18
ENDBRANCH   1  15
BRANCH   7  29
ATOM     29  C   UNL     1      -0.545  12.804  22.187  0.00  0.00    +0.000 C 
BRANCH  29  30
ATOM     30  C   UNL     1      -2.052  12.959  22.328  0.00  0.00    +0.000 A 
ATOM     31  C   UNL     1      -2.597  12.968  23.641  0.00  0.00    +0.000 A 
ATOM     32  C   UNL     1      -3.969  12.948  23.890  0.00  0.00    +0.000 A 
ATOM     33  C   UNL     1      -4.850  12.921  22.826  0.00  0.00    +0.000 A 
ATOM     34  C   UNL     1      -4.348  12.939  21.529  0.00  0.00    +0.000 A 
ATOM     35  C   UNL     1      -2.963  12.953  21.254  0.00  0.00    +0.000 A 
BRANCH  35  36
ATOM     36  O   UNL     1      -2.763  12.916  19.904  0.00  0.00    +0.000 OA
ATOM     37  C   UNL     1      -3.307  11.905  19.081  0.00  0.00    +0.000 C 
ENDBRANCH  35  36
ENDBRANCH  29  30
ENDBRANCH   7  29
TORSDOF 9
ENDMDL
MODEL 3
REMARK VINA RESULT:      -8.2      1.121      2.390
REMARK  Name = 
REMARK  11 active torsions:
REMARK  status: ('A' for Active; 'I' for Inactive)
REMARK    1  A    between atoms: C_1  and  C_2
REMARK    2  A    between atoms: C_2  and  C_3
REMARK    3  A    between atoms: N_8  and  C_9
REMARK    4  A    between atoms: C_9  and  C_10
REMARK    5  A    between atoms: C_10  and  C_11
REMARK    6  A    between atoms: C_11  and  N_12
REMARK    7  A    between atoms: C_13  and  C_15
REMARK    8  A    between atoms: N_21  and  C_22
REMARK    9  A    between atoms: C_22  and  C_23
REMARK   10  A    between atoms: C_28  and  O_29
REMARK   11  A    between atoms: O_29  and  C_30
REMARK                            x       y       z     vdW  Elec       q    Type
REMARK                         _______ _______ _______ _____ _____    ______ ____
ROOT
ATOM      1  C   UNL     1       0.956   8.798  20.656  0.00  0.00    +0.000 A 
ATOM      2  C   UNL     1       1.348   9.217  19.382  0.00  0.00    +0.000 A 
ATOM      3  C   UNL     1       2.058   8.337  18.571  0.00  0.00    +0.000 A 
ATOM      4  C   UNL     1       2.361   7.056  19.043  0.00  0.00    +0.000 A 
ATOM      5  C   UNL     1       3.050   6.088  18.183  0.00  0.00    +0.000 A 
ATOM      6  O   UNL     1       3.419   6.444  17.067  0.00  0.00    +0.000 OA
ATOM      7  N   UNL     1       3.243   4.815  18.711  0.00  0.00    +0.000 N 
ATOM      8  C   UNL     1       2.986   4.466  20.023  0.00  0.00    +0.000 A 
ATOM      9  O   UNL     1       3.275   3.382  20.526  0.00  0.00    +0.000 OA
ATOM     10  N   UNL     1       2.334   5.392  20.785  0.00  0.00    +0.000 N 
ATOM     11  C   UNL     1       1.982   6.655  20.324  0.00  0.00    +0.000 A 
ATOM     12  C   UNL     1       1.271   7.520  21.132  0.00  0.00    +0.000 A 
ATOM     13  H   UNL     1       2.087   5.096  21.721  0.00  0.00    +0.000 HD
ENDROOT
BRANCH   1  15
ATOM     14  N   UNL     1      -0.419  10.761  20.919  0.00  0.00    +0.000 N 
ATOM     15  C   UNL     1       0.154   9.666  21.527  0.00  0.00    +0.000 C 
ATOM     16  O   UNL     1       0.097   9.380  22.715  0.00  0.00    +0.000 OA
ATOM     17  H   UNL     1      -0.339  10.870  19.917  0.00  0.00    +0.000 HD
BRANCH  14  18
ATOM     18  C   UNL     1      -1.198  11.752  21.635  0.00  0.00    +0.000 C 
BRANCH  18  19
ATOM     19  C   UNL     1      -2.069  12.599  20.718  0.00  0.00    +0.000 C 
BRANCH  19  20
ATOM     20  C   UNL     1      -2.176  12.011  19.319  0.00  0.00    +0.000 C 
BRANCH  20  26
ATOM     21  C   UNL     1      -3.987  10.826  18.069  0.00  0.00    +0.000 C 
ATOM     22  C   UNL     1      -5.319  11.114  17.346  0.00  0.00    +0.000 C 
ATOM     23  C   UNL     1      -6.381  11.644  18.307  0.00  0.00    +0.000 C 
ATOM     24  C   UNL     1      -5.848  12.829  19.100  0.00  0.00    +0.000 C 
ATOM     25  C   UNL     1      -4.511  12.495  19.751  0.00  0.00    +0.000 C 
ATOM     26  N   UNL     1      -3.528  12.074  18.736  0.00  0.00    +0.000 NA
BRANCH  21  28
ATOM     27  C   UNL     1      -2.798  10.882  15.762  0.00  0.00    +0.000 C 
ATOM     28  C   UNL     1      -2.977  10.171  17.095  0.00  0.00    +0.000 C 
ENDBRANCH  21  28
ENDBRANCH  20  26
ENDBRANCH  19  20
ENDBRANCH  18  19
ENDBRANCH  14  18
ENDBRANCH   1  15
BRANCH   7  29
ATOM     29  C   UNL     1       3.798   3.807  17.820  0.00  0.00    +0.000 C 
BRANCH  29  30
ATOM     30  C   UNL     1       5.058   4.237  17.081  0.00  0.00    +0.000 A 
ATOM     31  C   UNL     1       5.036   4.203  15.659  0.00  0.00    +0.000 A 
ATOM     32  C   UNL     1       6.171   4.422  14.881  0.00  0.00    +0.000 A 
ATOM     33  C   UNL     1       7.377   4.689  15.501  0.00  0.00    +0.000 A 
ATOM     34  C   UNL     1       7.424   4.756  16.890  0.00  0.00    +0.000 A 
ATOM     35  C   UNL     1       6.288   4.531  17.697  0.00  0.00    +0.000 A 
BRANCH  35  36
ATOM     36  O   UNL     1       6.640   4.610  19.014  0.00  0.00    +0.000 OA
ATOM     37  C   UNL     1       7.448   5.648  19.527  0.00  0.00    +0.000 C 
ENDBRANCH  35  36
ENDBRANCH  29  30
ENDBRANCH   7  29
TORSDOF 9
ENDMDL
MODEL 4
REMARK VINA RESULT:      -8.0      2.030     10.190
REMARK  Name = 
REMARK  11 active torsions:
REMARK  status: ('A' for Active; 'I' for Inactive)
REMARK    1  A    between atoms: C_1  and  C_2
REMARK    2  A    between atoms: C_2  and  C_3
REMARK    3  A    between atoms: N_8  and  C_9
REMARK    4  A    between atoms: C_9  and  C_10
REMARK    5  A    between atoms: C_10  and  C_11
REMARK    6  A    between atoms: C_11  and  N_12
REMARK    7  A    between atoms: C_13  and  C_15
REMARK    8  A    between atoms: N_21  and  C_22
REMARK    9  A    between atoms: C_22  and  C_23
REMARK   10  A    between atoms: C_28  and  O_29
REMARK   11  A    between atoms: O_29  and  C_30
REMARK                            x       y       z     vdW  Elec       q    Type
REMARK                         _______ _______ _______ _____ _____    ______ ____
ROOT
ATOM      1  C   UNL     1       1.806   8.064  19.718  0.00  0.00    +0.000 A 
ATOM      2  C   UNL     1       1.551   8.177  21.088  0.00  0.00    +0.000 A 
ATOM      3  C   UNL     1       0.986   9.351  21.574  0.00  0.00    +0.000 A 
ATOM      4  C   UNL     1       0.684  10.390  20.688  0.00  0.00    +0.000 A 
ATOM      5  C   UNL     1       0.027  11.611  21.167  0.00  0.00    +0.000 A 
ATOM      6  O   UNL     1      -0.188  11.735  22.370  0.00  0.00    +0.000 OA
ATOM      7  N   UNL     1      -0.301  12.558  20.202  0.00  0.00    +0.000 N 
ATOM      8  C   UNL     1       0.094  12.498  18.881  0.00  0.00    +0.000 A 
ATOM      9  O   UNL     1      -0.084  13.393  18.056  0.00  0.00    +0.000 OA
ATOM     10  N   UNL     1       0.692  11.339  18.474  0.00  0.00    +0.000 N 
ATOM     11  C   UNL     1       0.961  10.275  19.327  0.00  0.00    +0.000 A 
ATOM     12  C   UNL     1       1.515   9.109  18.834  0.00  0.00    +0.000 A 
ATOM     13  H   UNL     1       0.910  11.279  17.487  0.00  0.00    +0.000 HD
ENDROOT
BRANCH   1  15
ATOM     14  N   UNL     1       2.058   5.669  19.839  0.00  0.00    +0.000 N 
ATOM     15  C   UNL     1       2.345   6.824  19.146  0.00  0.00    +0.000 C 
ATOM     16  O   UNL     1       3.036   6.917  18.140  0.00  0.00    +0.000 OA
ATOM     17  H   UNL     1       1.437   5.710  20.636  0.00  0.00    +0.000 HD
BRANCH  14  18
ATOM     18  C   UNL     1       2.552   4.363  19.449  0.00  0.00    +0.000 C 
BRANCH  18  19
ATOM     19  C   UNL     1       3.993   4.121  19.876  0.00  0.00    +0.000 C 
BRANCH  19  20
ATOM     20  C   UNL     1       4.829   3.507  18.761  0.00  0.00    +0.000 C 
BRANCH  20  26
ATOM     21  C   UNL     1       5.703   5.048  17.000  0.00  0.00    +0.000 C 
ATOM     22  C   UNL     1       7.016   5.728  16.558  0.00  0.00    +0.000 C 
ATOM     23  C   UNL     1       7.530   6.704  17.613  0.00  0.00    +0.000 C 
ATOM     24  C   UNL     1       7.621   6.028  18.975  0.00  0.00    +0.000 C 
ATOM     25  C   UNL     1       6.309   5.339  19.332  0.00  0.00    +0.000 C 
ATOM     26  N   UNL     1       5.938   4.356  18.296  0.00  0.00    +0.000 NA
BRANCH  21  28
ATOM     27  C   UNL     1       5.895   4.248  14.537  0.00  0.00    +0.000 C 
ATOM     28  C   UNL     1       5.143   4.165  15.856  0.00  0.00    +0.000 C 
ENDBRANCH  21  28
ENDBRANCH  20  26
ENDBRANCH  19  20
ENDBRANCH  18  19
ENDBRANCH  14  18
ENDBRANCH   1  15
BRANCH   7  29
ATOM     29  C   UNL     1      -1.076  13.708  20.644  0.00  0.00    +0.000 C 
BRANCH  29  30
ATOM     30  C   UNL     1      -2.553  13.426  20.880  0.00  0.00    +0.000 A 
ATOM     31  C   UNL     1      -3.138  13.918  22.081  0.00  0.00    +0.000 A 
ATOM     32  C   UNL     1      -4.433  13.591  22.479  0.00  0.00    +0.000 A 
ATOM     33  C   UNL     1      -5.197  12.758  21.684  0.00  0.00    +0.000 A 
ATOM     34  C   UNL     1      -4.662  12.283  20.490  0.00  0.00    +0.000 A 
ATOM     35  C   UNL     1      -3.351  12.596  20.071  0.00  0.00    +0.000 A 
BRANCH  35  36
ATOM     36  O   UNL     1      -3.080  11.954  18.896  0.00  0.00    +0.000 OA
ATOM     37  C   UNL     1      -4.085  11.619  17.962  0.00  0.00    +0.000 C 
ENDBRANCH  35  36
ENDBRANCH  29  30
ENDBRANCH   7  29
TORSDOF 9
ENDMDL
MODEL 5
REMARK VINA RESULT:      -7.9      1.584      2.672
REMARK  Name = 
REMARK  11 active torsions:
REMARK  status: ('A' for Active; 'I' for Inactive)
REMARK    1  A    between atoms: C_1  and  C_2
REMARK    2  A    between atoms: C_2  and  C_3
REMARK    3  A    between atoms: N_8  and  C_9
REMARK    4  A    between atoms: C_9  and  C_10
REMARK    5  A    between atoms: C_10  and  C_11
REMARK    6  A    between atoms: C_11  and  N_12
REMARK    7  A    between atoms: C_13  and  C_15
REMARK    8  A    between atoms: N_21  and  C_22
REMARK    9  A    between atoms: C_22  and  C_23
REMARK   10  A    between atoms: C_28  and  O_29
REMARK   11  A    between atoms: O_29  and  C_30
REMARK                            x       y       z     vdW  Elec       q    Type
REMARK                         _______ _______ _______ _____ _____    ______ ____
ROOT
ATOM      1  C   UNL     1       0.937   9.293  20.788  0.00  0.00    +0.000 A 
ATOM      2  C   UNL     1       1.249   9.675  19.480  0.00  0.00    +0.000 A 
ATOM      3  C   UNL     1       1.881   8.762  18.642  0.00  0.00    +0.000 A 
ATOM      4  C   UNL     1       2.189   7.485  19.122  0.00  0.00    +0.000 A 
ATOM      5  C   UNL     1       2.796   6.483  18.238  0.00  0.00    +0.000 A 
ATOM      6  O   UNL     1       3.093   6.807  17.091  0.00  0.00    +0.000 OA
ATOM      7  N   UNL     1       2.999   5.218  18.781  0.00  0.00    +0.000 N 
ATOM      8  C   UNL     1       2.827   4.903  20.115  0.00  0.00    +0.000 A 
ATOM      9  O   UNL     1       3.127   3.824  20.622  0.00  0.00    +0.000 OA
ATOM     10  N   UNL     1       2.249   5.860  20.899  0.00  0.00    +0.000 N 
ATOM     11  C   UNL     1       1.893   7.120  20.434  0.00  0.00    +0.000 A 
ATOM     12  C   UNL     1       1.258   8.019  21.270  0.00  0.00    +0.000 A 
ATOM     13  H   UNL     1       2.062   5.590  21.857  0.00  0.00    +0.000 HD
ENDROOT
BRANCH   1  15
ATOM     14  N   UNL     1      -0.637  11.094  21.088  0.00  0.00    +0.000 N 
ATOM     15  C   UNL     1       0.217  10.197  21.692  0.00  0.00    +0.000 C 
ATOM     16  O   UNL     1       0.462  10.118  22.888  0.00  0.00    +0.000 OA
ATOM     17  H   UNL     1      -0.793  11.036  20.091  0.00  0.00    +0.000 HD
BRANCH  14  18
ATOM     18  C   UNL     1      -1.388  12.094  21.821  0.00  0.00    +0.000 C 
BRANCH  18  19
ATOM     19  C   UNL     1      -2.562  12.654  21.030  0.00  0.00    +0.000 C 
BRANCH  19  20
ATOM     20  C   UNL     1      -3.809  12.819  21.887  0.00  0.00    +0.000 C 
BRANCH  20  26
ATOM     21  C   UNL     1      -6.307  12.795  21.817  0.00  0.00    +0.000 C 
ATOM     22  C   UNL     1      -7.474  11.949  21.266  0.00  0.00    +0.000 C 
ATOM     23  C   UNL     1      -7.468  11.904  19.740  0.00  0.00    +0.000 C 
ATOM     24  C   UNL     1      -6.104  11.474  19.218  0.00  0.00    +0.000 C 
ATOM     25  C   UNL     1      -4.993  12.317  19.833  0.00  0.00    +0.000 C 
ATOM     26  N   UNL     1      -5.028  12.233  21.305  0.00  0.00    +0.000 NA
BRANCH  21  28
ATOM     27  C   UNL     1      -6.755  14.317  23.872  0.00  0.00    +0.000 C 
ATOM     28  C   UNL     1      -6.417  12.927  23.356  0.00  0.00    +0.000 C 
ENDBRANCH  21  28
ENDBRANCH  20  26
ENDBRANCH  19  20
ENDBRANCH  18  19
ENDBRANCH  14  18
ENDBRANCH   1  15
BRANCH   7  29
ATOM     29  C   UNL     1       3.468   4.179  17.877  0.00  0.00    +0.000 C 
BRANCH  29  30
ATOM     30  C   UNL     1       4.800   4.479  17.202  0.00  0.00    +0.000 A 
ATOM     31  C   UNL     1       4.853   4.408  15.782  0.00  0.00    +0.000 A 
ATOM     32  C   UNL     1       6.045   4.507  15.066  0.00  0.00    +0.000 A 
ATOM     33  C   UNL     1       7.233   4.686  15.748  0.00  0.00    +0.000 A 
ATOM     34  C   UNL     1       7.210   4.786  17.135  0.00  0.00    +0.000 A 
ATOM     35  C   UNL     1       6.016   4.682  17.881  0.00  0.00    +0.000 A 
BRANCH  35  36
ATOM     36  O   UNL     1       6.299   4.765  19.214  0.00  0.00    +0.000 OA
ATOM     37  C   UNL     1       7.320   5.597  19.725  0.00  0.00    +0.000 C 
ENDBRANCH  35  36
ENDBRANCH  29  30
ENDBRANCH   7  29
TORSDOF 9
ENDMDL
MODEL 6
REMARK VINA RESULT:      -7.9      0.728      1.711
REMARK  Name = 
REMARK  11 active torsions:
REMARK  status: ('A' for Active; 'I' for Inactive)
REMARK    1  A    between atoms: C_1  and  C_2
REMARK    2  A    between atoms: C_2  and  C_3
REMARK    3  A    between atoms: N_8  and  C_9
REMARK    4  A    between atoms: C_9  and  C_10
REMARK    5  A    between atoms: C_10  and  C_11
REMARK    6  A    between atoms: C_11  and  N_12
REMARK    7  A    between atoms: C_13  and  C_15
REMARK    8  A    between atoms: N_21  and  C_22
REMARK    9  A    between atoms: C_22  and  C_23
REMARK   10  A    between atoms: C_28  and  O_29
REMARK   11  A    between atoms: O_29  and  C_30
REMARK                            x       y       z     vdW  Elec       q    Type
REMARK                         _______ _______ _______ _____ _____    ______ ____
ROOT
ATOM      1  C   UNL     1       0.678   9.123  20.874  0.00  0.00    +0.000 A 
ATOM      2  C   UNL     1       1.110   9.601  19.632  0.00  0.00    +0.000 A 
ATOM      3  C   UNL     1       1.838   8.757  18.801  0.00  0.00    +0.000 A 
ATOM      4  C   UNL     1       2.122   7.453  19.218  0.00  0.00    +0.000 A 
ATOM      5  C   UNL     1       2.831   6.523  18.332  0.00  0.00    +0.000 A 
ATOM      6  O   UNL     1       3.233   6.932  17.245  0.00  0.00    +0.000 OA
ATOM      7  N   UNL     1       3.003   5.226  18.803  0.00  0.00    +0.000 N 
ATOM      8  C   UNL     1       2.707   4.815  20.088  0.00  0.00    +0.000 A 
ATOM      9  O   UNL     1       2.976   3.706  20.546  0.00  0.00    +0.000 OA
ATOM     10  N   UNL     1       2.037   5.706  20.875  0.00  0.00    +0.000 N 
ATOM     11  C   UNL     1       1.704   6.992  20.466  0.00  0.00    +0.000 A 
ATOM     12  C   UNL     1       0.974   7.822  21.295  0.00  0.00    +0.000 A 
ATOM     13  H   UNL     1       1.762   5.367  21.789  0.00  0.00    +0.000 HD
ENDROOT
BRANCH   1  15
ATOM     14  N   UNL     1      -0.637  11.115  21.212  0.00  0.00    +0.000 N 
ATOM     15  C   UNL     1      -0.145   9.952  21.762  0.00  0.00    +0.000 C 
ATOM     16  O   UNL     1      -0.287   9.577  22.918  0.00  0.00    +0.000 OA
ATOM     17  H   UNL     1      -0.490  11.300  20.228  0.00  0.00    +0.000 HD
BRANCH  14  18
ATOM     18  C   UNL     1      -1.422  12.078  21.958  0.00  0.00    +0.000 C 
BRANCH  18  19
ATOM     19  C   UNL     1      -2.364  12.887  21.077  0.00  0.00    +0.000 C 
BRANCH  19  20
ATOM     20  C   UNL     1      -2.239  12.517  19.606  0.00  0.00    +0.000 C 
BRANCH  20  26
ATOM     21  C   UNL     1      -3.647  11.036  18.167  0.00  0.00    +0.000 C 
ATOM     22  C   UNL     1      -4.957  11.065  17.352  0.00  0.00    +0.000 C 
ATOM     23  C   UNL     1      -6.173  11.291  18.246  0.00  0.00    +0.000 C 
ATOM     24  C   UNL     1      -5.977  12.516  19.127  0.00  0.00    +0.000 C 
ATOM     25  C   UNL     1      -4.647  12.448  19.870  0.00  0.00    +0.000 C 
ATOM     26  N   UNL     1      -3.526  12.314  18.920  0.00  0.00    +0.000 NA
BRANCH  21  28
ATOM     27  C   UNL     1      -2.729  10.740  15.757  0.00  0.00    +0.000 C 
ATOM     28  C   UNL     1      -2.451  10.678  17.251  0.00  0.00    +0.000 C 
ENDBRANCH  21  28
ENDBRANCH  20  26
ENDBRANCH  19  20
ENDBRANCH  18  19
ENDBRANCH  14  18
ENDBRANCH   1  15
BRANCH   7  29
ATOM     29  C   UNL     1       3.579   4.259  17.879  0.00  0.00    +0.000 C 
BRANCH  29  30
ATOM     30  C   UNL     1       5.078   4.404  17.662  0.00  0.00    +0.000 A 
ATOM     31  C   UNL     1       5.889   4.680  18.798  0.00  0.00    +0.000 A 
ATOM     32  C   UNL     1       7.245   4.986  18.701  0.00  0.00    +0.000 A 
ATOM     33  C   UNL     1       7.845   5.023  17.457  0.00  0.00    +0.000 A 
ATOM     34  C   UNL     1       7.084   4.730  16.329  0.00  0.00    +0.000 A 
ATOM     35  C   UNL     1       5.708   4.424  16.403  0.00  0.00    +0.000 A 
BRANCH  35  36
ATOM     36  O   UNL     1       5.213   4.233  15.145  0.00  0.00    +0.000 OA
ATOM     37  C   UNL     1       6.030   3.872  14.052  0.00  0.00    +0.000 C 
ENDBRANCH  35  36
ENDBRANCH  29  30
ENDBRANCH   7  29
TORSDOF 9
ENDMDL
MODEL 7
REMARK VINA RESULT:      -7.9      1.253      2.263
REMARK  Name = 
REMARK  11 active torsions:
REMARK  status: ('A' for Active; 'I' for Inactive)
REMARK    1  A    between atoms: C_1  and  C_2
REMARK    2  A    between atoms: C_2  and  C_3
REMARK    3  A    between atoms: N_8  and  C_9
REMARK    4  A    between atoms: C_9  and  C_10
REMARK    5  A    between atoms: C_10  and  C_11
REMARK    6  A    between atoms: C_11  and  N_12
REMARK    7  A    between atoms: C_13  and  C_15
REMARK    8  A    between atoms: N_21  and  C_22
REMARK    9  A    between atoms: C_22  and  C_23
REMARK   10  A    between atoms: C_28  and  O_29
REMARK   11  A    between atoms: O_29  and  C_30
REMARK                            x       y       z     vdW  Elec       q    Type
REMARK                         _______ _______ _______ _____ _____    ______ ____
ROOT
ATOM      1  C   UNL     1       0.176  10.348  21.183  0.00  0.00    +0.000 A 
ATOM      2  C   UNL     1       0.414  10.927  19.933  0.00  0.00    +0.000 A 
ATOM      3  C   UNL     1       1.094  10.193  18.968  0.00  0.00    +0.000 A 
ATOM      4  C   UNL     1       1.521   8.894  19.263  0.00  0.00    +0.000 A 
ATOM      5  C   UNL     1       2.182   8.075  18.240  0.00  0.00    +0.000 A 
ATOM      6  O   UNL     1       2.415   8.574  17.142  0.00  0.00    +0.000 OA
ATOM      7  N   UNL     1       2.505   6.772  18.602  0.00  0.00    +0.000 N 
ATOM      8  C   UNL     1       2.401   6.267  19.884  0.00  0.00    +0.000 A 
ATOM      9  O   UNL     1       2.806   5.160  20.234  0.00  0.00    +0.000 OA
ATOM     10  N   UNL     1       1.771   7.058  20.802  0.00  0.00    +0.000 N 
ATOM     11  C   UNL     1       1.297   8.333  20.520  0.00  0.00    +0.000 A 
ATOM     12  C   UNL     1       0.616   9.054  21.482  0.00  0.00    +0.000 A 
ATOM     13  H   UNL     1       1.636   6.647  21.718  0.00  0.00    +0.000 HD
ENDROOT
BRANCH   1  15
ATOM     14  N   UNL     1      -1.379  12.095  21.770  0.00  0.00    +0.000 N 
ATOM     15  C   UNL     1      -0.589  11.058  22.216  0.00  0.00    +0.000 C 
ATOM     16  O   UNL     1      -0.432  10.710  23.378  0.00  0.00    +0.000 OA
ATOM     17  H   UNL     1      -1.464  12.262  20.776  0.00  0.00    +0.000 HD
BRANCH  14  18
ATOM     18  C   UNL     1      -2.160  12.937  22.655  0.00  0.00    +0.000 C 
BRANCH  18  19
ATOM     19  C   UNL     1      -3.539  13.264  22.100  0.00  0.00    +0.000 C 
BRANCH  19  20
ATOM     20  C   UNL     1      -3.588  13.169  20.582  0.00  0.00    +0.000 C 
BRANCH  20  26
ATOM     21  C   UNL     1      -4.776  11.519  19.129  0.00  0.00    +0.000 C 
ATOM     22  C   UNL     1      -6.163  11.266  18.503  0.00  0.00    +0.000 C 
ATOM     23  C   UNL     1      -7.231  11.038  19.570  0.00  0.00    +0.000 C 
ATOM     24  C   UNL     1      -7.220  12.164  20.595  0.00  0.00    +0.000 C 
ATOM     25  C   UNL     1      -5.815  12.393  21.140  0.00  0.00    +0.000 C 
ATOM     26  N   UNL     1      -4.872  12.687  20.045  0.00  0.00    +0.000 NA
BRANCH  21  28
ATOM     27  C   UNL     1      -2.617  10.547  18.063  0.00  0.00    +0.000 C 
ATOM     28  C   UNL     1      -3.697  11.617  18.022  0.00  0.00    +0.000 C 
ENDBRANCH  21  28
ENDBRANCH  20  26
ENDBRANCH  19  20
ENDBRANCH  18  19
ENDBRANCH  14  18
ENDBRANCH   1  15
BRANCH   7  29
ATOM     29  C   UNL     1       3.031   5.907  17.556  0.00  0.00    +0.000 C 
BRANCH  29  30
ATOM     30  C   UNL     1       4.547   5.773  17.546  0.00  0.00    +0.000 A 
ATOM     31  C   UNL     1       5.319   6.966  17.604  0.00  0.00    +0.000 A 
ATOM     32  C   UNL     1       6.704   6.979  17.445  0.00  0.00    +0.000 A 
ATOM     33  C   UNL     1       7.372   5.789  17.225  0.00  0.00    +0.000 A 
ATOM     34  C   UNL     1       6.647   4.602  17.190  0.00  0.00    +0.000 A 
ATOM     35  C   UNL     1       5.244   4.567  17.342  0.00  0.00    +0.000 A 
BRANCH  35  36
ATOM     36  O   UNL     1       4.801   3.281  17.212  0.00  0.00    +0.000 OA
ATOM     37  C   UNL     1       3.690   2.783  17.927  0.00  0.00    +0.000 C 
ENDBRANCH  35  36
ENDBRANCH  29  30
ENDBRANCH   7  29
TORSDOF 9
ENDMDL
MODEL 8
REMARK VINA RESULT:      -7.9      3.233      4.220
REMARK  Name = 
REMARK  11 active torsions:
REMARK  status: ('A' for Active; 'I' for Inactive)
REMARK    1  A    between atoms: C_1  and  C_2
REMARK    2  A    between atoms: C_2  and  C_3
REMARK    3  A    between atoms: N_8  and  C_9
REMARK    4  A    between atoms: C_9  and  C_10
REMARK    5  A    between atoms: C_10  and  C_11
REMARK    6  A    between atoms: C_11  and  N_12
REMARK    7  A    between atoms: C_13  and  C_15
REMARK    8  A    between atoms: N_21  and  C_22
REMARK    9  A    between atoms: C_22  and  C_23
REMARK   10  A    between atoms: C_28  and  O_29
REMARK   11  A    between atoms: O_29  and  C_30
REMARK                            x       y       z     vdW  Elec       q    Type
REMARK                         _______ _______ _______ _____ _____    ______ ____
ROOT
ATOM      1  C   UNL     1       0.754  10.349  19.683  0.00  0.00    +0.000 A 
ATOM      2  C   UNL     1       1.386  10.481  18.443  0.00  0.00    +0.000 A 
ATOM      3  C   UNL     1       2.119   9.411  17.942  0.00  0.00    +0.000 A 
ATOM      4  C   UNL     1       2.206   8.227  18.683  0.00  0.00    +0.000 A 
ATOM      5  C   UNL     1       2.918   7.062  18.146  0.00  0.00    +0.000 A 
ATOM      6  O   UNL     1       3.495   7.166  17.067  0.00  0.00    +0.000 OA
ATOM      7  N   UNL     1       2.889   5.906  18.920  0.00  0.00    +0.000 N 
ATOM      8  C   UNL     1       2.391   5.839  20.207  0.00  0.00    +0.000 A 
ATOM      9  O   UNL     1       2.479   4.856  20.940  0.00  0.00    +0.000 OA
ATOM     10  N   UNL     1       1.727   6.942  20.663  0.00  0.00    +0.000 N 
ATOM     11  C   UNL     1       1.588   8.113  19.927  0.00  0.00    +0.000 A 
ATOM     12  C   UNL     1       0.852   9.169  20.428  0.00  0.00    +0.000 A 
ATOM     13  H   UNL     1       1.304   6.854  21.578  0.00  0.00    +0.000 HD
ENDROOT
BRANCH   1  15
ATOM     14  N   UNL     1       0.592  12.427  20.895  0.00  0.00    +0.000 N 
ATOM     15  C   UNL     1      -0.081  11.427  20.227  0.00  0.00    +0.000 C 
ATOM     16  O   UNL     1      -1.293  11.331  20.090  0.00  0.00    +0.000 OA
ATOM     17  H   UNL     1       1.603  12.423  20.906  0.00  0.00    +0.000 HD
BRANCH  14  18
ATOM     18  C   UNL     1      -0.076  13.540  21.542  0.00  0.00    +0.000 C 
BRANCH  18  19
ATOM     19  C   UNL     1      -0.281  14.729  20.614  0.00  0.00    +0.000 C 
BRANCH  19  20
ATOM     20  C   UNL     1       0.944  15.632  20.554  0.00  0.00    +0.000 C 
BRANCH  20  26
ATOM     21  C   UNL     1       2.240  16.661  18.682  0.00  0.00    +0.000 C 
ATOM     22  C   UNL     1       2.947  16.270  17.368  0.00  0.00    +0.000 C 
ATOM     23  C   UNL     1       4.125  15.331  17.618  0.00  0.00    +0.000 C 
ATOM     24  C   UNL     1       3.695  14.137  18.458  0.00  0.00    +0.000 C 
ATOM     25  C   UNL     1       2.965  14.589  19.718  0.00  0.00    +0.000 C 
ATOM     26  N   UNL     1       1.796  15.420  19.372  0.00  0.00    +0.000 NA
BRANCH  21  28
ATOM     27  C   UNL     1       1.085  18.251  16.986  0.00  0.00    +0.000 C 
ATOM     28  C   UNL     1       1.136  17.711  18.407  0.00  0.00    +0.000 C 
ENDBRANCH  21  28
ENDBRANCH  20  26
ENDBRANCH  19  20
ENDBRANCH  18  19
ENDBRANCH  14  18
ENDBRANCH   1  15
BRANCH   7  29
ATOM     29  C   UNL     1       3.469   4.706  18.336  0.00  0.00    +0.000 C 
BRANCH  29  30
ATOM     30  C   UNL     1       4.987   4.726  18.219  0.00  0.00    +0.000 A 
ATOM     31  C   UNL     1       5.731   5.197  19.337  0.00  0.00    +0.000 A 
ATOM     32  C   UNL     1       7.108   5.407  19.292  0.00  0.00    +0.000 A 
ATOM     33  C   UNL     1       7.796   5.149  18.122  0.00  0.00    +0.000 A 
ATOM     34  C   UNL     1       7.099   4.663  17.020  0.00  0.00    +0.000 A 
ATOM     35  C   UNL     1       5.704   4.448  17.041  0.00  0.00    +0.000 A 
BRANCH  35  36
ATOM     36  O   UNL     1       5.288   4.020  15.813  0.00  0.00    +0.000 OA
ATOM     37  C   UNL     1       6.162   3.906  14.709  0.00  0.00    +0.000 C 
ENDBRANCH  35  36
ENDBRANCH  29  30
ENDBRANCH   7  29
TORSDOF 9
ENDMDL
MODEL 9
REMARK VINA RESULT:      -7.9      0.968      1.940
REMARK  Name = 
REMARK  11 active torsions:
REMARK  status: ('A' for Active; 'I' for Inactive)
REMARK    1  A    between atoms: C_1  and  C_2
REMARK    2  A    between atoms: C_2  and  C_3
REMARK    3  A    between atoms: N_8  and  C_9
REMARK    4  A    between atoms: C_9  and  C_10
REMARK    5  A    between atoms: C_10  and  C_11
REMARK    6  A    between atoms: C_11  and  N_12
REMARK    7  A    between atoms: C_13  and  C_15
REMARK    8  A    between atoms: N_21  and  C_22
REMARK    9  A    between atoms: C_22  and  C_23
REMARK   10  A    between atoms: C_28  and  O_29
REMARK   11  A    between atoms: O_29  and  C_30
REMARK                            x       y       z     vdW  Elec       q    Type
REMARK                         _______ _______ _______ _____ _____    ______ ____
ROOT
ATOM      1  C   UNL     1       0.329   9.990  21.116  0.00  0.00    +0.000 A 
ATOM      2  C   UNL     1       0.805  10.503  19.905  0.00  0.00    +0.000 A 
ATOM      3  C   UNL     1       1.553   9.679  19.071  0.00  0.00    +0.000 A 
ATOM      4  C   UNL     1       1.812   8.359  19.456  0.00  0.00    +0.000 A 
ATOM      5  C   UNL     1       2.542   7.452  18.564  0.00  0.00    +0.000 A 
ATOM      6  O   UNL     1       2.983   7.890  17.505  0.00  0.00    +0.000 OA
ATOM      7  N   UNL     1       2.687   6.138  18.999  0.00  0.00    +0.000 N 
ATOM      8  C   UNL     1       2.345   5.689  20.260  0.00  0.00    +0.000 A 
ATOM      9  O   UNL     1       2.589   4.564  20.691  0.00  0.00    +0.000 OA
ATOM     10  N   UNL     1       1.657   6.562  21.053  0.00  0.00    +0.000 N 
ATOM     11  C   UNL     1       1.349   7.864  20.675  0.00  0.00    +0.000 A 
ATOM     12  C   UNL     1       0.599   8.673  21.505  0.00  0.00    +0.000 A 
ATOM     13  H   UNL     1       1.349   6.197  21.946  0.00  0.00    +0.000 HD
ENDROOT
BRANCH   1  15
ATOM     14  N   UNL     1      -1.148  11.872  21.415  0.00  0.00    +0.000 N 
ATOM     15  C   UNL     1      -0.516  10.799  22.003  0.00  0.00    +0.000 C 
ATOM     16  O   UNL     1      -0.554  10.490  23.186  0.00  0.00    +0.000 OA
ATOM     17  H   UNL     1      -1.077  12.003  20.414  0.00  0.00    +0.000 HD
BRANCH  14  18
ATOM     18  C   UNL     1      -1.977  12.808  22.149  0.00  0.00    +0.000 C 
BRANCH  18  19
ATOM     19  C   UNL     1      -3.338  13.030  21.505  0.00  0.00    +0.000 C 
BRANCH  19  20
ATOM     20  C   UNL     1      -3.488  12.266  20.196  0.00  0.00    +0.000 C 
BRANCH  20  26
ATOM     21  C   UNL     1      -4.952  11.755  18.237  0.00  0.00    +0.000 C 
ATOM     22  C   UNL     1      -6.131  12.355  17.444  0.00  0.00    +0.000 C 
ATOM     23  C   UNL     1      -7.387  12.474  18.303  0.00  0.00    +0.000 C 
ATOM     24  C   UNL     1      -7.087  13.211  19.600  0.00  0.00    +0.000 C 
ATOM     25  C   UNL     1      -5.886  12.599  20.312  0.00  0.00    +0.000 C 
ATOM     26  N   UNL     1      -4.701  12.603  19.433  0.00  0.00    +0.000 NA
BRANCH  21  28
ATOM     27  C   UNL     1      -4.048  10.869  15.969  0.00  0.00    +0.000 C 
ATOM     28  C   UNL     1      -3.736  11.529  17.304  0.00  0.00    +0.000 C 
ENDBRANCH  21  28
ENDBRANCH  20  26
ENDBRANCH  19  20
ENDBRANCH  18  19
ENDBRANCH  14  18
ENDBRANCH   1  15
BRANCH   7  29
ATOM     29  C   UNL     1       3.285   5.196  18.065  0.00  0.00    +0.000 C 
BRANCH  29  30
ATOM     30  C   UNL     1       4.804   5.249  17.994  0.00  0.00    +0.000 A 
ATOM     31  C   UNL     1       5.522   5.332  19.219  0.00  0.00    +0.000 A 
ATOM     32  C   UNL     1       6.899   5.543  19.274  0.00  0.00    +0.000 A 
ATOM     33  C   UNL     1       7.613   5.674  18.099  0.00  0.00    +0.000 A 
ATOM     34  C   UNL     1       6.942   5.570  16.884  0.00  0.00    +0.000 A 
ATOM     35  C   UNL     1       5.548   5.364  16.804  0.00  0.00    +0.000 A 
BRANCH  35  36
ATOM     36  O   UNL     1       5.160   5.355  15.495  0.00  0.00    +0.000 OA
ATOM     37  C   UNL     1       5.768   4.527  14.526  0.00  0.00    +0.000 C 
ENDBRANCH  35  36
ENDBRANCH  29  30
ENDBRANCH   7  29
TORSDOF 9
ENDMDL
