MODEL 1
REMARK VINA RESULT:      -8.8      0.000      0.000
REMARK  Name = 
REMARK  4 active torsions:
REMARK  status: ('A' for Active; 'I' for Inactive)
REMARK    1  A    between atoms: C_1  and  C_2
REMARK    2  A    between atoms: C_2  and  O_3
REMARK    3  A    between atoms: C_2  and  C_16
REMARK    4  A    between atoms: O_3  and  C_4
REMARK                            x       y       z     vdW  Elec       q    Type
REMARK                         _______ _______ _______ _____ _____    ______ ____
ROOT
ATOM      1  C   UNL     1       5.685   4.307  18.235  0.00  0.00    +0.000 A 
ATOM      2  C   UNL     1       6.152   5.098  19.286  0.00  0.00    +0.000 A 
ATOM      3  C   UNL     1       7.034   6.143  19.029  0.00  0.00    +0.000 A 
ATOM      4  C   UNL     1       7.455   6.392  17.726  0.00  0.00    +0.000 A 
ATOM      5  C   UNL     1       7.078   5.578  16.671  0.00  0.00    +0.000 A 
ATOM      6  N   UNL     1       7.573   5.868  15.463  0.00  0.00    +0.000 NA
ATOM      7  C   UNL     1       7.247   5.062  14.458  0.00  0.00    +0.000 A 
ATOM      8  N   UNL     1       7.781   5.353  13.216  0.00  0.00    +0.000 N 
ATOM      9  N   UNL     1       6.501   3.968  14.566  0.00  0.00    +0.000 NA
ATOM     10  C   UNL     1       5.995   3.699  15.781  0.00  0.00    +0.000 A 
ATOM     11  N   UNL     1       5.341   2.465  15.864  0.00  0.00    +0.000 N 
ATOM     12  C   UNL     1       6.219   4.500  16.916  0.00  0.00    +0.000 A 
ATOM     13  H   UNL     1       8.619   5.904  13.340  0.00  0.00    +0.000 HD
ATOM     14  H   UNL     1       7.867   4.500  12.681  0.00  0.00    +0.000 HD
ATOM     15  H   UNL     1       5.198   2.107  14.926  0.00  0.00    +0.000 HD
ATOM     16  H   UNL     1       4.498   2.531  16.427  0.00  0.00    +0.000 HD
ENDROOT
BRANCH   1  17
ATOM     17  O   UNL     1       4.675   3.381  18.358  0.00  0.00    +0.000 OA
BRANCH  17  19
ATOM     18  C   UNL     1       2.476   2.453  18.096  0.00  0.00    +0.000 C 
ATOM     19  C   UNL     1       3.355   3.684  17.880  0.00  0.00    +0.000 C 
BRANCH  19  20
ATOM     20  C   UNL     1       2.776   4.877  18.615  0.00  0.00    +0.000 A 
ATOM     21  C   UNL     1       2.436   4.807  19.971  0.00  0.00    +0.000 A 
ATOM     22  C   UNL     1       1.958   5.933  20.642  0.00  0.00    +0.000 A 
ATOM     23  C   UNL     1       1.807   7.156  19.971  0.00  0.00    +0.000 A 
ATOM     24  C   UNL     1       1.373   8.309  20.641  0.00  0.00    +0.000 A 
ATOM     25  C   UNL     1       1.245   9.521  19.961  0.00  0.00    +0.000 A 
ATOM     26  C   UNL     1       1.531   9.589  18.601  0.00  0.00    +0.000 A 
ATOM     27  C   UNL     1       1.955   8.448  17.918  0.00  0.00    +0.000 A 
ATOM     28  C   UNL     1       2.109   7.229  18.592  0.00  0.00    +0.000 A 
ATOM     29  C   UNL     1       2.578   6.085  17.928  0.00  0.00    +0.000 A 
ENDBRANCH  19  20
ENDBRANCH  17  19
ENDBRANCH   1  17
TORSDOF 3
ENDMDL
MODEL 2
REMARK VINA RESULT:      -8.7      2.896      6.973
REMARK  Name = 
REMARK  4 active torsions:
REMARK  status: ('A' for Active; 'I' for Inactive)
REMARK    1  A    between atoms: C_1  and  C_2
REMARK    2  A    between atoms: C_2  and  O_3
REMARK    3  A    between atoms: C_2  and  C_16
REMARK    4  A    between atoms: O_3  and  C_4
REMARK                            x       y       z     vdW  Elec       q    Type
REMARK                         _______ _______ _______ _____ _____    ______ ____
ROOT
ATOM      1  C   UNL     1       4.294   5.431  19.105  0.00  0.00    +0.000 A 
ATOM      2  C   UNL     1       3.705   6.629  18.696  0.00  0.00    +0.000 A 
ATOM      3  C   UNL     1       2.447   6.982  19.174  0.00  0.00    +0.000 A 
ATOM      4  C   UNL     1       1.775   6.136  20.050  0.00  0.00    +0.000 A 
ATOM      5  C   UNL     1       2.292   4.903  20.413  0.00  0.00    +0.000 A 
ATOM      6  N   UNL     1       1.549   4.139  21.222  0.00  0.00    +0.000 NA
ATOM      7  C   UNL     1       2.024   2.938  21.535  0.00  0.00    +0.000 A 
ATOM      8  N   UNL     1       1.242   2.143  22.352  0.00  0.00    +0.000 N 
ATOM      9  N   UNL     1       3.158   2.420  21.075  0.00  0.00    +0.000 NA
ATOM     10  C   UNL     1       3.901   3.205  20.278  0.00  0.00    +0.000 A 
ATOM     11  N   UNL     1       5.006   2.558  19.713  0.00  0.00    +0.000 N 
ATOM     12  C   UNL     1       3.540   4.515  19.913  0.00  0.00    +0.000 A 
ATOM     13  H   UNL     1       0.280   2.446  22.282  0.00  0.00    +0.000 HD
ATOM     14  H   UNL     1       1.433   1.171  22.155  0.00  0.00    +0.000 HD
ATOM     15  H   UNL     1       5.143   1.672  20.186  0.00  0.00    +0.000 HD
ATOM     16  H   UNL     1       5.822   3.163  19.700  0.00  0.00    +0.000 HD
ENDROOT
BRANCH   1  17
ATOM     17  O   UNL     1       5.600   5.085  18.842  0.00  0.00    +0.000 OA
BRANCH  17  19
ATOM     18  C   UNL     1       7.801   5.895  18.326  0.00  0.00    +0.000 C 
ATOM     19  C   UNL     1       6.352   5.805  17.851  0.00  0.00    +0.000 C 
BRANCH  19  20
ATOM     20  C   UNL     1       6.283   5.103  16.509  0.00  0.00    +0.000 A 
ATOM     21  C   UNL     1       5.395   4.046  16.279  0.00  0.00    +0.000 A 
ATOM     22  C   UNL     1       5.308   3.452  15.019  0.00  0.00    +0.000 A 
ATOM     23  C   UNL     1       6.111   3.901  13.960  0.00  0.00    +0.000 A 
ATOM     24  C   UNL     1       6.003   3.347  12.676  0.00  0.00    +0.000 A 
ATOM     25  C   UNL     1       6.798   3.818  11.630  0.00  0.00    +0.000 A 
ATOM     26  C   UNL     1       7.721   4.834  11.860  0.00  0.00    +0.000 A 
ATOM     27  C   UNL     1       7.846   5.388  13.134  0.00  0.00    +0.000 A 
ATOM     28  C   UNL     1       7.040   4.941  14.190  0.00  0.00    +0.000 A 
ATOM     29  C   UNL     1       7.124   5.520  15.465  0.00  0.00    +0.000 A 
ENDBRANCH  19  20
ENDBRANCH  17  19
ENDBRANCH   1  17
TORSDOF 3
ENDMDL
MODEL 3
REMARK VINA RESULT:      -8.7      2.827      4.851
REMARK  Name = 
REMARK  4 active torsions:
REMARK  status: ('A' for Active; 'I' for Inactive)
REMARK    1  A    between atoms: C_1  and  C_2
REMARK    2  A    between atoms: C_2  and  O_3
REMARK    3  A    between atoms: C_2  and  C_16
REMARK    4  A    between atoms: O_3  and  C_4
REMARK                            x       y       z     vdW  Elec       q    Type
REMARK                         _______ _______ _______ _____ _____    ______ ____
ROOT
ATOM      1  C   UNL     1       3.238   6.514  18.202  0.00  0.00    +0.000 A 
ATOM      2  C   UNL     1       4.098   7.195  17.338  0.00  0.00    +0.000 A 
ATOM      3  C   UNL     1       4.958   6.481  16.510  0.00  0.00    +0.000 A 
ATOM      4  C   UNL     1       4.966   5.090  16.552  0.00  0.00    +0.000 A 
ATOM      5  C   UNL     1       4.187   4.384  17.453  0.00  0.00    +0.000 A 
ATOM      6  N   UNL     1       4.299   3.051  17.450  0.00  0.00    +0.000 NA
ATOM      7  C   UNL     1       3.584   2.375  18.344  0.00  0.00    +0.000 A 
ATOM      8  N   UNL     1       3.722   0.999  18.352  0.00  0.00    +0.000 N 
ATOM      9  N   UNL     1       2.799   2.921  19.267  0.00  0.00    +0.000 NA
ATOM     10  C   UNL     1       2.682   4.259  19.245  0.00  0.00    +0.000 A 
ATOM     11  N   UNL     1       1.960   4.783  20.323  0.00  0.00    +0.000 N 
ATOM     12  C   UNL     1       3.341   5.087  18.319  0.00  0.00    +0.000 A 
ATOM     13  H   UNL     1       4.610   0.755  17.935  0.00  0.00    +0.000 HD
ATOM     14  H   UNL     1       3.541   0.651  19.284  0.00  0.00    +0.000 HD
ATOM     15  H   UNL     1       1.488   4.023  20.801  0.00  0.00    +0.000 HD
ATOM     16  H   UNL     1       1.353   5.541  20.027  0.00  0.00    +0.000 HD
ENDROOT
BRANCH   1  17
ATOM     17  O   UNL     1       2.227   7.117  18.915  0.00  0.00    +0.000 OA
BRANCH  17  19
ATOM     18  C   UNL     1       1.359   8.859  17.510  0.00  0.00    +0.000 C 
ATOM     19  C   UNL     1       2.038   8.538  18.840  0.00  0.00    +0.000 C 
BRANCH  19  20
ATOM     20  C   UNL     1       1.188   9.031  19.994  0.00  0.00    +0.000 A 
ATOM     21  C   UNL     1       1.253   8.434  21.259  0.00  0.00    +0.000 A 
ATOM     22  C   UNL     1       0.503   8.939  22.323  0.00  0.00    +0.000 A 
ATOM     23  C   UNL     1      -0.332  10.052  22.144  0.00  0.00    +0.000 A 
ATOM     24  C   UNL     1      -1.056  10.601  23.212  0.00  0.00    +0.000 A 
ATOM     25  C   UNL     1      -1.869  11.720  23.020  0.00  0.00    +0.000 A 
ATOM     26  C   UNL     1      -1.981  12.289  21.755  0.00  0.00    +0.000 A 
ATOM     27  C   UNL     1      -1.274  11.748  20.680  0.00  0.00    +0.000 A 
ATOM     28  C   UNL     1      -0.437  10.638  20.862  0.00  0.00    +0.000 A 
ATOM     29  C   UNL     1       0.314  10.112  19.800  0.00  0.00    +0.000 A 
ENDBRANCH  19  20
ENDBRANCH  17  19
ENDBRANCH   1  17
TORSDOF 3
ENDMDL
MODEL 4
REMARK VINA RESULT:      -8.4      2.613      4.970
REMARK  Name = 
REMARK  4 active torsions:
REMARK  status: ('A' for Active; 'I' for Inactive)
REMARK    1  A    between atoms: C_1  and  C_2
REMARK    2  A    between atoms: C_2  and  O_3
REMARK    3  A    between atoms: C_2  and  C_16
REMARK    4  A    between atoms: O_3  and  C_4
REMARK                            x       y       z     vdW  Elec       q    Type
REMARK                         _______ _______ _______ _____ _____    ______ ____
ROOT
ATOM      1  C   UNL     1       2.322   4.436  18.928  0.00  0.00    +0.000 A 
ATOM      2  C   UNL     1       1.018   4.545  19.416  0.00  0.00    +0.000 A 
ATOM      3  C   UNL     1       0.644   3.843  20.557  0.00  0.00    +0.000 A 
ATOM      4  C   UNL     1       1.568   3.028  21.205  0.00  0.00    +0.000 A 
ATOM      5  C   UNL     1       2.844   2.833  20.704  0.00  0.00    +0.000 A 
ATOM      6  N   UNL     1       3.644   1.993  21.370  0.00  0.00    +0.000 NA
ATOM      7  C   UNL     1       4.854   1.771  20.866  0.00  0.00    +0.000 A 
ATOM      8  N   UNL     1       5.668   0.883  21.546  0.00  0.00    +0.000 N 
ATOM      9  N   UNL     1       5.316   2.285  19.731  0.00  0.00    +0.000 NA
ATOM     10  C   UNL     1       4.508   3.140  19.083  0.00  0.00    +0.000 A 
ATOM     11  N   UNL     1       4.989   3.536  17.829  0.00  0.00    +0.000 N 
ATOM     12  C   UNL     1       3.227   3.503  19.536  0.00  0.00    +0.000 A 
ATOM     13  H   UNL     1       5.091   0.268  22.103  0.00  0.00    +0.000 HD
ATOM     14  H   UNL     1       6.306   0.449  20.894  0.00  0.00    +0.000 HD
ATOM     15  H   UNL     1       5.960   3.255  17.748  0.00  0.00    +0.000 HD
ATOM     16  H   UNL     1       4.816   4.523  17.662  0.00  0.00    +0.000 HD
ENDROOT
BRANCH   1  17
ATOM     17  O   UNL     1       2.838   5.228  17.927  0.00  0.00    +0.000 OA
BRANCH  17  19
ATOM     18  C   UNL     1       4.391   6.827  17.034  0.00  0.00    +0.000 C 
ATOM     19  C   UNL     1       3.567   6.422  18.255  0.00  0.00    +0.000 C 
BRANCH  19  20
ATOM     20  C   UNL     1       2.620   7.542  18.642  0.00  0.00    +0.000 A 
ATOM     21  C   UNL     1       2.155   8.466  17.699  0.00  0.00    +0.000 A 
ATOM     22  C   UNL     1       1.240   9.455  18.065  0.00  0.00    +0.000 A 
ATOM     23  C   UNL     1       0.771   9.542  19.385  0.00  0.00    +0.000 A 
ATOM     24  C   UNL     1      -0.184  10.499  19.758  0.00  0.00    +0.000 A 
ATOM     25  C   UNL     1      -0.652  10.561  21.072  0.00  0.00    +0.000 A 
ATOM     26  C   UNL     1      -0.157   9.680  22.029  0.00  0.00    +0.000 A 
ATOM     27  C   UNL     1       0.800   8.729  21.674  0.00  0.00    +0.000 A 
ATOM     28  C   UNL     1       1.264   8.640  20.354  0.00  0.00    +0.000 A 
ATOM     29  C   UNL     1       2.192   7.659  19.974  0.00  0.00    +0.000 A 
ENDBRANCH  19  20
ENDBRANCH  17  19
ENDBRANCH   1  17
TORSDOF 3
ENDMDL
MODEL 5
REMARK VINA RESULT:      -8.2      1.672      2.660
REMARK  Name = 
REMARK  4 active torsions:
REMARK  status: ('A' for Active; 'I' for Inactive)
REMARK    1  A    between atoms: C_1  and  C_2
REMARK    2  A    between atoms: C_2  and  O_3
REMARK    3  A    between atoms: C_2  and  C_16
REMARK    4  A    between atoms: O_3  and  C_4
REMARK                            x       y       z     vdW  Elec       q    Type
REMARK                         _______ _______ _______ _____ _____    ______ ____
ROOT
ATOM      1  C   UNL     1       5.128   3.960  16.764  0.00  0.00    +0.000 A 
ATOM      2  C   UNL     1       4.907   4.012  15.386  0.00  0.00    +0.000 A 
ATOM      3  C   UNL     1       5.634   4.900  14.600  0.00  0.00    +0.000 A 
ATOM      4  C   UNL     1       6.574   5.740  15.189  0.00  0.00    +0.000 A 
ATOM      5  C   UNL     1       6.762   5.774  16.561  0.00  0.00    +0.000 A 
ATOM      6  N   UNL     1       7.653   6.650  17.038  0.00  0.00    +0.000 NA
ATOM      7  C   UNL     1       7.803   6.714  18.358  0.00  0.00    +0.000 A 
ATOM      8  N   UNL     1       8.708   7.638  18.846  0.00  0.00    +0.000 N 
ATOM      9  N   UNL     1       7.107   6.006  19.241  0.00  0.00    +0.000 NA
ATOM     10  C   UNL     1       6.229   5.118  18.747  0.00  0.00    +0.000 A 
ATOM     11  N   UNL     1       5.428   4.509  19.720  0.00  0.00    +0.000 N 
ATOM     12  C   UNL     1       6.013   4.913  17.372  0.00  0.00    +0.000 A 
ATOM     13  H   UNL     1       8.839   8.366  18.158  0.00  0.00    +0.000 HD
ATOM     14  H   UNL     1       8.423   7.927  19.772  0.00  0.00    +0.000 HD
ATOM     15  H   UNL     1       5.816   4.710  20.635  0.00  0.00    +0.000 HD
ATOM     16  H   UNL     1       5.295   3.522  19.523  0.00  0.00    +0.000 HD
ENDROOT
BRANCH   1  17
ATOM     17  O   UNL     1       4.603   2.995  17.593  0.00  0.00    +0.000 OA
BRANCH  17  19
ATOM     18  C   UNL     1       2.886   1.581  18.497  0.00  0.00    +0.000 C 
ATOM     19  C   UNL     1       3.181   2.892  17.769  0.00  0.00    +0.000 C 
BRANCH  19  20
ATOM     20  C   UNL     1       2.651   4.066  18.569  0.00  0.00    +0.000 A 
ATOM     21  C   UNL     1       2.232   3.919  19.897  0.00  0.00    +0.000 A 
ATOM     22  C   UNL     1       1.801   5.023  20.633  0.00  0.00    +0.000 A 
ATOM     23  C   UNL     1       1.775   6.302  20.055  0.00  0.00    +0.000 A 
ATOM     24  C   UNL     1       1.390   7.429  20.794  0.00  0.00    +0.000 A 
ATOM     25  C   UNL     1       1.387   8.696  20.208  0.00  0.00    +0.000 A 
ATOM     26  C   UNL     1       1.752   8.847  18.873  0.00  0.00    +0.000 A 
ATOM     27  C   UNL     1       2.129   7.732  18.123  0.00  0.00    +0.000 A 
ATOM     28  C   UNL     1       2.157   6.456  18.703  0.00  0.00    +0.000 A 
ATOM     29  C   UNL     1       2.578   5.335  17.973  0.00  0.00    +0.000 A 
ENDBRANCH  19  20
ENDBRANCH  17  19
ENDBRANCH   1  17
TORSDOF 3
ENDMDL
MODEL 6
REMARK VINA RESULT:      -8.1      4.500      7.471
REMARK  Name = 
REMARK  4 active torsions:
REMARK  status: ('A' for Active; 'I' for Inactive)
REMARK    1  A    between atoms: C_1  and  C_2
REMARK    2  A    between atoms: C_2  and  O_3
REMARK    3  A    between atoms: C_2  and  C_16
REMARK    4  A    between atoms: O_3  and  C_4
REMARK                            x       y       z     vdW  Elec       q    Type
REMARK                         _______ _______ _______ _____ _____    ______ ____
ROOT
ATOM      1  C   UNL     1       1.365   8.627  20.534  0.00  0.00    +0.000 A 
ATOM      2  C   UNL     1       1.447   8.592  21.927  0.00  0.00    +0.000 A 
ATOM      3  C   UNL     1       0.607   9.394  22.692  0.00  0.00    +0.000 A 
ATOM      4  C   UNL     1      -0.308  10.236  22.067  0.00  0.00    +0.000 A 
ATOM      5  C   UNL     1      -0.361  10.358  20.688  0.00  0.00    +0.000 A 
ATOM      6  N   UNL     1      -1.241  11.229  20.182  0.00  0.00    +0.000 NA
ATOM      7  C   UNL     1      -1.263  11.379  18.861  0.00  0.00    +0.000 A 
ATOM      8  N   UNL     1      -2.157  12.299  18.345  0.00  0.00    +0.000 N 
ATOM      9  N   UNL     1      -0.452  10.762  18.008  0.00  0.00    +0.000 NA
ATOM     10  C   UNL     1       0.413   9.877  18.529  0.00  0.00    +0.000 A 
ATOM     11  N   UNL     1       1.332   9.368  17.604  0.00  0.00    +0.000 N 
ATOM     12  C   UNL     1       0.502   9.585  19.903  0.00  0.00    +0.000 A 
ATOM     13  H   UNL     1      -2.388  12.972  19.063  0.00  0.00    +0.000 HD
ATOM     14  H   UNL     1      -1.796  12.662  17.473  0.00  0.00    +0.000 HD
ATOM     15  H   UNL     1       1.027   9.617  16.670  0.00  0.00    +0.000 HD
ATOM     16  H   UNL     1       1.491   8.375  17.749  0.00  0.00    +0.000 HD
ENDROOT
BRANCH   1  17
ATOM     17  O   UNL     1       2.013   7.743  19.701  0.00  0.00    +0.000 OA
BRANCH  17  19
ATOM     18  C   UNL     1       1.160   5.665  20.548  0.00  0.00    +0.000 C 
ATOM     19  C   UNL     1       2.418   6.455  20.190  0.00  0.00    +0.000 C 
BRANCH  19  20
ATOM     20  C   UNL     1       3.225   5.711  19.144  0.00  0.00    +0.000 A 
ATOM     21  C   UNL     1       3.392   4.322  19.200  0.00  0.00    +0.000 A 
ATOM     22  C   UNL     1       4.091   3.649  18.197  0.00  0.00    +0.000 A 
ATOM     23  C   UNL     1       4.641   4.353  17.114  0.00  0.00    +0.000 A 
ATOM     24  C   UNL     1       5.305   3.687  16.073  0.00  0.00    +0.000 A 
ATOM     25  C   UNL     1       5.831   4.401  14.995  0.00  0.00    +0.000 A 
ATOM     26  C   UNL     1       5.715   5.788  14.956  0.00  0.00    +0.000 A 
ATOM     27  C   UNL     1       5.066   6.464  15.989  0.00  0.00    +0.000 A 
ATOM     28  C   UNL     1       4.513   5.759  17.067  0.00  0.00    +0.000 A 
ATOM     29  C   UNL     1       3.818   6.422  18.090  0.00  0.00    +0.000 A 
ENDBRANCH  19  20
ENDBRANCH  17  19
ENDBRANCH   1  17
TORSDOF 3
ENDMDL
MODEL 7
REMARK VINA RESULT:      -8.1      2.972      7.115
REMARK  Name = 
REMARK  4 active torsions:
REMARK  status: ('A' for Active; 'I' for Inactive)
REMARK    1  A    between atoms: C_1  and  C_2
REMARK    2  A    between atoms: C_2  and  O_3
REMARK    3  A    between atoms: C_2  and  C_16
REMARK    4  A    between atoms: O_3  and  C_4
REMARK                            x       y       z     vdW  Elec       q    Type
REMARK                         _______ _______ _______ _____ _____    ______ ____
ROOT
ATOM      1  C   UNL     1       4.082   5.276  18.335  0.00  0.00    +0.000 A 
ATOM      2  C   UNL     1       3.622   6.568  18.074  0.00  0.00    +0.000 A 
ATOM      3  C   UNL     1       2.615   7.119  18.860  0.00  0.00    +0.000 A 
ATOM      4  C   UNL     1       2.062   6.377  19.899  0.00  0.00    +0.000 A 
ATOM      5  C   UNL     1       2.436   5.064  20.136  0.00  0.00    +0.000 A 
ATOM      6  N   UNL     1       1.813   4.417  21.128  0.00  0.00    +0.000 NA
ATOM      7  C   UNL     1       2.139   3.144  21.327  0.00  0.00    +0.000 A 
ATOM      8  N   UNL     1       1.475   2.473  22.338  0.00  0.00    +0.000 N 
ATOM      9  N   UNL     1       3.005   2.452  20.594  0.00  0.00    +0.000 NA
ATOM     10  C   UNL     1       3.635   3.120  19.614  0.00  0.00    +0.000 A 
ATOM     11  N   UNL     1       4.424   2.309  18.790  0.00  0.00    +0.000 N 
ATOM     12  C   UNL     1       3.422   4.482  19.332  0.00  0.00    +0.000 A 
ATOM     13  H   UNL     1       0.595   2.938  22.519  0.00  0.00    +0.000 HD
ATOM     14  H   UNL     1       1.437   1.488  22.116  0.00  0.00    +0.000 HD
ATOM     15  H   UNL     1       4.525   1.399  19.227  0.00  0.00    +0.000 HD
ATOM     16  H   UNL     1       5.299   2.765  18.550  0.00  0.00    +0.000 HD
ENDROOT
BRANCH   1  17
ATOM     17  O   UNL     1       5.193   4.719  17.743  0.00  0.00    +0.000 OA
BRANCH  17  19
ATOM     18  C   UNL     1       7.475   5.436  17.953  0.00  0.00    +0.000 C 
ATOM     19  C   UNL     1       6.188   5.561  17.139  0.00  0.00    +0.000 C 
BRANCH  19  20
ATOM     20  C   UNL     1       6.437   5.154  15.700  0.00  0.00    +0.000 A 
ATOM     21  C   UNL     1       7.651   5.430  15.061  0.00  0.00    +0.000 A 
ATOM     22  C   UNL     1       7.880   4.997  13.754  0.00  0.00    +0.000 A 
ATOM     23  C   UNL     1       6.897   4.279  13.056  0.00  0.00    +0.000 A 
ATOM     24  C   UNL     1       7.129   3.795  11.760  0.00  0.00    +0.000 A 
ATOM     25  C   UNL     1       6.147   3.068  11.087  0.00  0.00    +0.000 A 
ATOM     26  C   UNL     1       4.917   2.832  11.694  0.00  0.00    +0.000 A 
ATOM     27  C   UNL     1       4.668   3.315  12.979  0.00  0.00    +0.000 A 
ATOM     28  C   UNL     1       5.653   4.029  13.676  0.00  0.00    +0.000 A 
ATOM     29  C   UNL     1       5.433   4.481  14.986  0.00  0.00    +0.000 A 
ENDBRANCH  19  20
ENDBRANCH  17  19
ENDBRANCH   1  17
TORSDOF 3
ENDMDL
MODEL 8
REMARK VINA RESULT:      -8.0      4.875      7.980
REMARK  Name = 
REMARK  4 active torsions:
REMARK  status: ('A' for Active; 'I' for Inactive)
REMARK    1  A    between atoms: C_1  and  C_2
REMARK    2  A    between atoms: C_2  and  O_3
REMARK    3  A    between atoms: C_2  and  C_16
REMARK    4  A    between atoms: O_3  and  C_4
REMARK                            x       y       z     vdW  Elec       q    Type
REMARK                         _______ _______ _______ _____ _____    ______ ____
ROOT
ATOM      1  C   UNL     1       0.933   8.806  20.588  0.00  0.00    +0.000 A 
ATOM      2  C   UNL     1       1.193   8.615  21.946  0.00  0.00    +0.000 A 
ATOM      3  C   UNL     1       0.569   9.421  22.893  0.00  0.00    +0.000 A 
ATOM      4  C   UNL     1      -0.307  10.422  22.483  0.00  0.00    +0.000 A 
ATOM      5  C   UNL     1      -0.526  10.694  21.143  0.00  0.00    +0.000 A 
ATOM      6  N   UNL     1      -1.348  11.708  20.848  0.00  0.00    +0.000 NA
ATOM      7  C   UNL     1      -1.525  11.998  19.563  0.00  0.00    +0.000 A 
ATOM      8  N   UNL     1      -2.357  13.061  19.265  0.00  0.00    +0.000 N 
ATOM      9  N   UNL     1      -0.918  11.387  18.551  0.00  0.00    +0.000 NA
ATOM     10  C   UNL     1      -0.110  10.360  18.861  0.00  0.00    +0.000 A 
ATOM     11  N   UNL     1       0.607   9.852  17.772  0.00  0.00    +0.000 N 
ATOM     12  C   UNL     1       0.122   9.917  20.176  0.00  0.00    +0.000 A 
ATOM     13  H   UNL     1      -2.404  13.676  20.066  0.00  0.00    +0.000 HD
ATOM     14  H   UNL     1      -2.071  13.472  18.387  0.00  0.00    +0.000 HD
ATOM     15  H   UNL     1       0.215  10.232  16.917  0.00  0.00    +0.000 HD
ATOM     16  H   UNL     1       0.657   8.838  17.803  0.00  0.00    +0.000 HD
ENDROOT
BRANCH   1  17
ATOM     17  O   UNL     1       1.349   7.949  19.595  0.00  0.00    +0.000 OA
BRANCH  17  19
ATOM     18  C   UNL     1       1.635   5.692  20.363  0.00  0.00    +0.000 C 
ATOM     19  C   UNL     1       2.345   6.952  19.873  0.00  0.00    +0.000 C 
BRANCH  19  20
ATOM     20  C   UNL     1       3.161   6.646  18.632  0.00  0.00    +0.000 A 
ATOM     21  C   UNL     1       3.572   7.658  17.757  0.00  0.00    +0.000 A 
ATOM     22  C   UNL     1       4.370   7.361  16.651  0.00  0.00    +0.000 A 
ATOM     23  C   UNL     1       4.772   6.041  16.393  0.00  0.00    +0.000 A 
ATOM     24  C   UNL     1       5.612   5.732  15.314  0.00  0.00    +0.000 A 
ATOM     25  C   UNL     1       6.017   4.416  15.083  0.00  0.00    +0.000 A 
ATOM     26  C   UNL     1       5.571   3.395  15.917  0.00  0.00    +0.000 A 
ATOM     27  C   UNL     1       4.728   3.686  16.989  0.00  0.00    +0.000 A 
ATOM     28  C   UNL     1       4.330   5.006  17.247  0.00  0.00    +0.000 A 
ATOM     29  C   UNL     1       3.519   5.319  18.348  0.00  0.00    +0.000 A 
ENDBRANCH  19  20
ENDBRANCH  17  19
ENDBRANCH   1  17
TORSDOF 3
ENDMDL
MODEL 9
REMARK VINA RESULT:      -8.0      5.353      8.610
REMARK  Name = 
REMARK  4 active torsions:
REMARK  status: ('A' for Active; 'I' for Inactive)
REMARK    1  A    between atoms: C_1  and  C_2
REMARK    2  A    between atoms: C_2  and  O_3
REMARK    3  A    between atoms: C_2  and  C_16
REMARK    4  A    between atoms: O_3  and  C_4
REMARK                            x       y       z     vdW  Elec       q    Type
REMARK                         _______ _______ _______ _____ _____    ______ ____
ROOT
ATOM      1  C   UNL     1       0.039  10.797  20.722  0.00  0.00    +0.000 A 
ATOM      2  C   UNL     1      -0.038  11.457  21.950  0.00  0.00    +0.000 A 
ATOM      3  C   UNL     1      -1.131  12.270  22.233  0.00  0.00    +0.000 A 
ATOM      4  C   UNL     1      -2.140  12.431  21.288  0.00  0.00    +0.000 A 
ATOM      5  C   UNL     1      -2.058  11.858  20.030  0.00  0.00    +0.000 A 
ATOM      6  N   UNL     1      -3.054  12.110  19.173  0.00  0.00    +0.000 NA
ATOM      7  C   UNL     1      -2.955  11.597  17.951  0.00  0.00    +0.000 A 
ATOM      8  N   UNL     1      -3.975  11.881  17.063  0.00  0.00    +0.000 N 
ATOM      9  N   UNL     1      -1.925  10.888  17.501  0.00  0.00    +0.000 NA
ATOM     10  C   UNL     1      -0.941  10.628  18.377  0.00  0.00    +0.000 A 
ATOM     11  N   UNL     1       0.176  10.004  17.809  0.00  0.00    +0.000 N 
ATOM     12  C   UNL     1      -0.948  11.066  19.714  0.00  0.00    +0.000 A 
ATOM     13  H   UNL     1      -4.444  12.726  17.359  0.00  0.00    +0.000 HD
ATOM     14  H   UNL     1      -3.612  11.863  16.120  0.00  0.00    +0.000 HD
ATOM     15  H   UNL     1      -0.067   9.684  16.878  0.00  0.00    +0.000 HD
ATOM     16  H   UNL     1       0.549   9.286  18.422  0.00  0.00    +0.000 HD
ENDROOT
BRANCH   1  17
ATOM     17  O   UNL     1       0.973   9.831  20.423  0.00  0.00    +0.000 OA
BRANCH  17  19
ATOM     18  C   UNL     1      -0.383   8.293  21.672  0.00  0.00    +0.000 C 
ATOM     19  C   UNL     1       1.031   8.620  21.192  0.00  0.00    +0.000 C 
BRANCH  19  20
ATOM     20  C   UNL     1       1.578   7.478  20.359  0.00  0.00    +0.000 A 
ATOM     21  C   UNL     1       2.210   7.705  19.130  0.00  0.00    +0.000 A 
ATOM     22  C   UNL     1       2.757   6.645  18.406  0.00  0.00    +0.000 A 
ATOM     23  C   UNL     1       2.683   5.332  18.895  0.00  0.00    +0.000 A 
ATOM     24  C   UNL     1       3.269   4.261  18.203  0.00  0.00    +0.000 A 
ATOM     25  C   UNL     1       3.201   2.964  18.713  0.00  0.00    +0.000 A 
ATOM     26  C   UNL     1       2.530   2.719  19.908  0.00  0.00    +0.000 A 
ATOM     27  C   UNL     1       1.935   3.773  20.602  0.00  0.00    +0.000 A 
ATOM     28  C   UNL     1       2.013   5.085  20.114  0.00  0.00    +0.000 A 
ATOM     29  C   UNL     1       1.458   6.160  20.825  0.00  0.00    +0.000 A 
ENDBRANCH  19  20
ENDBRANCH  17  19
ENDBRANCH   1  17
TORSDOF 3
ENDMDL
