MODEL 1
REMARK VINA RESULT:      -8.5      0.000      0.000
REMARK  Name = 
REMARK  10 active torsions:
REMARK  status: ('A' for Active; 'I' for Inactive)
REMARK    1  A    between atoms: C_1  and  C_2
REMARK    2  A    between atoms: C_2  and  C_3
REMARK    3  A    between atoms: N_5  and  C_6
REMARK    4  A    between atoms: C_6  and  C_7
REMARK    5  A    between atoms: C_10  and  C_11
REMARK    6  A    between atoms: C_24  and  C_25
REMARK    7  A    between atoms: C_25  and  C_26
REMARK    8  A    between atoms: C_27  and  C_28
REMARK    9  A    between atoms: C_28  and  C_29
REMARK   10  A    between atoms: C_29  and  O_31
REMARK                            x       y       z     vdW  Elec       q    Type
REMARK                         _______ _______ _______ _____ _____    ______ ____
ROOT
ATOM      1  C   UNL     1       2.267   6.584  19.619  0.00  0.00    +0.000 A 
ATOM      2  C   UNL     1       1.618   7.228  20.681  0.00  0.00    +0.000 A 
ATOM      3  C   UNL     1       1.185   8.546  20.548  0.00  0.00    +0.000 A 
ATOM      4  C   UNL     1       1.390   9.256  19.357  0.00  0.00    +0.000 A 
ATOM      5  C   UNL     1       1.941   8.578  18.263  0.00  0.00    +0.000 A 
ATOM      6  C   UNL     1       2.380   7.256  18.394  0.00  0.00    +0.000 A 
ENDROOT
BRANCH   4   7
ATOM      7  C   UNL     1       1.094  10.693  19.333  0.00  0.00    +0.000 A 
ATOM      8  N   UNL     1       0.237  11.314  20.127  0.00  0.00    +0.000 NA
ATOM      9  C   UNL     1       0.312  12.640  19.808  0.00  0.00    +0.000 A 
ATOM     10  C   UNL     1      -0.468  13.710  20.261  0.00  0.00    +0.000 A 
ATOM     11  C   UNL     1      -0.240  14.972  19.701  0.00  0.00    +0.000 A 
ATOM     12 CL   UNL     1      -1.446  16.183  19.973  0.00  0.00    +0.000 Cl
ATOM     13  C   UNL     1       0.862  15.201  18.863  0.00  0.00    +0.000 A 
ATOM     14 CL   UNL     1       1.297  16.792  18.341  0.00  0.00    +0.000 Cl
ATOM     15  C   UNL     1       1.659  14.138  18.413  0.00  0.00    +0.000 A 
ATOM     16  C   UNL     1       1.301  12.865  18.861  0.00  0.00    +0.000 A 
ATOM     17  N   UNL     1       1.726  11.608  18.523  0.00  0.00    +0.000 N 
ATOM     18  H   UNL     1       2.377  11.388  17.784  0.00  0.00    +0.000 HD
ENDBRANCH   4   7
BRANCH   1  19
ATOM     19  C   UNL     1       3.013   5.297  19.876  0.00  0.00    +0.000 C 
BRANCH  19  22
ATOM     20  C   UNL     1       6.291   5.206  18.584  0.00  0.00    +0.000 A 
ATOM     21  N   UNL     1       5.431   5.474  19.569  0.00  0.00    +0.000 NA
ATOM     22  N   UNL     1       4.243   5.025  19.121  0.00  0.00    +0.000 N 
ATOM     23  C   UNL     1       4.348   4.351  17.910  0.00  0.00    +0.000 A 
ATOM     24  C   UNL     1       5.673   4.512  17.517  0.00  0.00    +0.000 A 
BRANCH  20  26
ATOM     25  C   UNL     1       7.970   7.043  18.301  0.00  0.00    +0.000 C 
ATOM     26  C   UNL     1       7.730   5.599  18.725  0.00  0.00    +0.000 C 
ENDBRANCH  20  26
BRANCH  23  27
ATOM     27  C   UNL     1       3.274   3.640  17.133  0.00  0.00    +0.000 C 
ATOM     28  C   UNL     1       2.649   2.376  17.691  0.00  0.00    +0.000 C 
ENDBRANCH  23  27
BRANCH  24  29
ATOM     29  C   UNL     1       6.298   4.066  16.239  0.00  0.00    +0.000 C 
BRANCH  29  30
ATOM     30  C   UNL     1       6.611   5.154  15.226  0.00  0.00    +0.000 C 
ATOM     31  O   UNL     1       7.715   5.272  14.715  0.00  0.00    +0.000 OA
BRANCH  30  32
ATOM     32  O   UNL     1       5.611   6.011  14.920  0.00  0.00    +0.000 OA
ATOM     33  H   UNL     1       5.900   6.837  14.487  0.00  0.00    +0.000 HD
ENDBRANCH  30  32
ENDBRANCH  29  30
ENDBRANCH  24  29
ENDBRANCH  19  22
ENDBRANCH   1  19
TORSDOF 8
ENDMDL
MODEL 2
REMARK VINA RESULT:      -8.3      0.673      1.466
REMARK  Name = 
REMARK  10 active torsions:
REMARK  status: ('A' for Active; 'I' for Inactive)
REMARK    1  A    between atoms: C_1  and  C_2
REMARK    2  A    between atoms: C_2  and  C_3
REMARK    3  A    between atoms: N_5  and  C_6
REMARK    4  A    between atoms: C_6  and  C_7
REMARK    5  A    between atoms: C_10  and  C_11
REMARK    6  A    between atoms: C_24  and  C_25
REMARK    7  A    between atoms: C_25  and  C_26
REMARK    8  A    between atoms: C_27  and  C_28
REMARK    9  A    between atoms: C_28  and  C_29
REMARK   10  A    between atoms: C_29  and  O_31
REMARK                            x       y       z     vdW  Elec       q    Type
REMARK                         _______ _______ _______ _____ _____    ______ ____
ROOT
ATOM      1  C   UNL     1       2.185   6.869  19.457  0.00  0.00    +0.000 A 
ATOM      2  C   UNL     1       1.592   7.594  20.500  0.00  0.00    +0.000 A 
ATOM      3  C   UNL     1       1.261   8.937  20.327  0.00  0.00    +0.000 A 
ATOM      4  C   UNL     1       1.513   9.592  19.114  0.00  0.00    +0.000 A 
ATOM      5  C   UNL     1       2.006   8.839  18.040  0.00  0.00    +0.000 A 
ATOM      6  C   UNL     1       2.343   7.492  18.211  0.00  0.00    +0.000 A 
ENDROOT
BRANCH   4   7
ATOM      7  C   UNL     1       1.328  11.045  19.046  0.00  0.00    +0.000 A 
ATOM      8  N   UNL     1       2.207  11.910  18.568  0.00  0.00    +0.000 NA
ATOM      9  C   UNL     1       1.615  13.139  18.641  0.00  0.00    +0.000 A 
ATOM     10  C   UNL     1       2.153  14.403  18.379  0.00  0.00    +0.000 A 
ATOM     11  C   UNL     1       1.348  15.523  18.622  0.00  0.00    +0.000 A 
ATOM     12 CL   UNL     1       2.136  17.063  18.671  0.00  0.00    +0.000 Cl
ATOM     13  C   UNL     1      -0.014  15.379  18.926  0.00  0.00    +0.000 A 
ATOM     14 CL   UNL     1      -1.080  16.740  19.008  0.00  0.00    +0.000 Cl
ATOM     15  C   UNL     1      -0.567  14.115  19.178  0.00  0.00    +0.000 A 
ATOM     16  C   UNL     1       0.306  13.030  19.089  0.00  0.00    +0.000 A 
ATOM     17  N   UNL     1       0.176  11.704  19.410  0.00  0.00    +0.000 N 
ATOM     18  H   UNL     1      -0.623  11.286  19.862  0.00  0.00    +0.000 HD
ENDBRANCH   4   7
BRANCH   1  19
ATOM     19  C   UNL     1       2.831   5.537  19.752  0.00  0.00    +0.000 C 
BRANCH  19  22
ATOM     20  C   UNL     1       6.122   5.247  18.525  0.00  0.00    +0.000 A 
ATOM     21  N   UNL     1       5.257   5.615  19.473  0.00  0.00    +0.000 NA
ATOM     22  N   UNL     1       4.062   5.171  19.041  0.00  0.00    +0.000 N 
ATOM     23  C   UNL     1       4.163   4.405  17.886  0.00  0.00    +0.000 A 
ATOM     24  C   UNL     1       5.497   4.494  17.504  0.00  0.00    +0.000 A 
BRANCH  20  26
ATOM     25  C   UNL     1       7.862   7.006  18.135  0.00  0.00    +0.000 C 
ATOM     26  C   UNL     1       7.571   5.606  18.660  0.00  0.00    +0.000 C 
ENDBRANCH  20  26
BRANCH  23  27
ATOM     27  C   UNL     1       3.077   3.670  17.146  0.00  0.00    +0.000 C 
ATOM     28  C   UNL     1       2.526   2.373  17.707  0.00  0.00    +0.000 C 
ENDBRANCH  23  27
BRANCH  24  29
ATOM     29  C   UNL     1       6.126   3.934  16.273  0.00  0.00    +0.000 C 
BRANCH  29  30
ATOM     30  C   UNL     1       5.984   4.761  15.007  0.00  0.00    +0.000 C 
ATOM     31  O   UNL     1       6.208   5.962  14.983  0.00  0.00    +0.000 OA
BRANCH  30  32
ATOM     32  O   UNL     1       5.577   4.110  13.894  0.00  0.00    +0.000 OA
ATOM     33  H   UNL     1       5.474   3.145  14.000  0.00  0.00    +0.000 HD
ENDBRANCH  30  32
ENDBRANCH  29  30
ENDBRANCH  24  29
ENDBRANCH  19  22
ENDBRANCH   1  19
TORSDOF 8
ENDMDL
MODEL 3
REMARK VINA RESULT:      -8.2      0.917      1.325
REMARK  Name = 
REMARK  10 active torsions:
REMARK  status: ('A' for Active; 'I' for Inactive)
REMARK    1  A    between atoms: C_1  and  C_2
REMARK    2  A    between atoms: C_2  and  C_3
REMARK    3  A    between atoms: N_5  and  C_6
REMARK    4  A    between atoms: C_6  and  C_7
REMARK    5  A    between atoms: C_10  and  C_11
REMARK    6  A    between atoms: C_24  and  C_25
REMARK    7  A    between atoms: C_25  and  C_26
REMARK    8  A    between atoms: C_27  and  C_28
REMARK    9  A    between atoms: C_28  and  C_29
REMARK   10  A    between atoms: C_29  and  O_31
REMARK                            x       y       z     vdW  Elec       q    Type
REMARK                         _______ _______ _______ _____ _____    ______ ____
ROOT
ATOM      1  C   UNL     1       2.252   6.559  19.767  0.00  0.00    +0.000 A 
ATOM      2  C   UNL     1       1.535   7.109  20.839  0.00  0.00    +0.000 A 
ATOM      3  C   UNL     1       1.057   8.416  20.772  0.00  0.00    +0.000 A 
ATOM      4  C   UNL     1       1.283   9.210  19.638  0.00  0.00    +0.000 A 
ATOM      5  C   UNL     1       1.906   8.625  18.528  0.00  0.00    +0.000 A 
ATOM      6  C   UNL     1       2.390   7.314  18.594  0.00  0.00    +0.000 A 
ENDROOT
BRANCH   4   7
ATOM      7  C   UNL     1       0.934  10.633  19.694  0.00  0.00    +0.000 A 
ATOM      8  N   UNL     1       0.408  11.335  18.704  0.00  0.00    +0.000 NA
ATOM      9  C   UNL     1       0.191  12.590  19.196  0.00  0.00    +0.000 A 
ATOM     10  C   UNL     1      -0.234  13.746  18.532  0.00  0.00    +0.000 A 
ATOM     11  C   UNL     1      -0.289  14.940  19.261  0.00  0.00    +0.000 A 
ATOM     12 CL   UNL     1      -0.432  16.408  18.356  0.00  0.00    +0.000 Cl
ATOM     13  C   UNL     1      -0.119  14.943  20.653  0.00  0.00    +0.000 A 
ATOM     14 CL   UNL     1      -0.405  16.359  21.605  0.00  0.00    +0.000 Cl
ATOM     15  C   UNL     1       0.294  13.787  21.332  0.00  0.00    +0.000 A 
ATOM     16  C   UNL     1       0.501  12.651  20.547  0.00  0.00    +0.000 A 
ATOM     17  N   UNL     1       1.041  11.421  20.818  0.00  0.00    +0.000 N 
ATOM     18  H   UNL     1       1.469  11.147  21.689  0.00  0.00    +0.000 HD
ENDBRANCH   4   7
BRANCH   1  19
ATOM     19  C   UNL     1       3.036   5.286  19.974  0.00  0.00    +0.000 C 
BRANCH  19  22
ATOM     20  C   UNL     1       6.070   5.055  18.195  0.00  0.00    +0.000 A 
ATOM     21  N   UNL     1       5.383   5.360  19.299  0.00  0.00    +0.000 NA
ATOM     22  N   UNL     1       4.123   4.961  19.042  0.00  0.00    +0.000 N 
ATOM     23  C   UNL     1       4.014   4.280  17.835  0.00  0.00    +0.000 A 
ATOM     24  C   UNL     1       5.267   4.384  17.242  0.00  0.00    +0.000 A 
BRANCH  20  26
ATOM     25  C   UNL     1       8.095   5.812  19.460  0.00  0.00    +0.000 C 
ATOM     26  C   UNL     1       7.528   5.388  18.110  0.00  0.00    +0.000 C 
ENDBRANCH  20  26
BRANCH  23  27
ATOM     27  C   UNL     1       2.804   3.613  17.237  0.00  0.00    +0.000 C 
ATOM     28  C   UNL     1       2.372   2.247  17.735  0.00  0.00    +0.000 C 
ENDBRANCH  23  27
BRANCH  24  29
ATOM     29  C   UNL     1       5.670   3.910  15.887  0.00  0.00    +0.000 C 
BRANCH  29  30
ATOM     30  C   UNL     1       6.067   4.982  14.887  0.00  0.00    +0.000 C 
ATOM     31  O   UNL     1       6.937   4.803  14.049  0.00  0.00    +0.000 OA
BRANCH  30  32
ATOM     32  O   UNL     1       5.422   6.167  14.974  0.00  0.00    +0.000 OA
ATOM     33  H   UNL     1       4.678   6.274  14.349  0.00  0.00    +0.000 HD
ENDBRANCH  30  32
ENDBRANCH  29  30
ENDBRANCH  24  29
ENDBRANCH  19  22
ENDBRANCH   1  19
TORSDOF 8
ENDMDL
MODEL 4
REMARK VINA RESULT:      -8.1      0.844      1.112
REMARK  Name = 
REMARK  10 active torsions:
REMARK  status: ('A' for Active; 'I' for Inactive)
REMARK    1  A    between atoms: C_1  and  C_2
REMARK    2  A    between atoms: C_2  and  C_3
REMARK    3  A    between atoms: N_5  and  C_6
REMARK    4  A    between atoms: C_6  and  C_7
REMARK    5  A    between atoms: C_10  and  C_11
REMARK    6  A    between atoms: C_24  and  C_25
REMARK    7  A    between atoms: C_25  and  C_26
REMARK    8  A    between atoms: C_27  and  C_28
REMARK    9  A    between atoms: C_28  and  C_29
REMARK   10  A    between atoms: C_29  and  O_31
REMARK                            x       y       z     vdW  Elec       q    Type
REMARK                         _______ _______ _______ _____ _____    ______ ____
ROOT
ATOM      1  C   UNL     1       2.231   6.528  19.889  0.00  0.00    +0.000 A 
ATOM      2  C   UNL     1       1.480   7.032  20.960  0.00  0.00    +0.000 A 
ATOM      3  C   UNL     1       1.000   8.341  20.931  0.00  0.00    +0.000 A 
ATOM      4  C   UNL     1       1.259   9.180  19.838  0.00  0.00    +0.000 A 
ATOM      5  C   UNL     1       1.917   8.641  18.725  0.00  0.00    +0.000 A 
ATOM      6  C   UNL     1       2.402   7.329  18.752  0.00  0.00    +0.000 A 
ENDROOT
BRANCH   4   7
ATOM      7  C   UNL     1       0.904  10.599  19.940  0.00  0.00    +0.000 A 
ATOM      8  N   UNL     1       1.034  11.348  21.023  0.00  0.00    +0.000 NA
ATOM      9  C   UNL     1       0.643  12.608  20.667  0.00  0.00    +0.000 A 
ATOM     10  C   UNL     1       0.474  13.745  21.464  0.00  0.00    +0.000 A 
ATOM     11  C   UNL     1      -0.030  14.902  20.858  0.00  0.00    +0.000 A 
ATOM     12 CL   UNL     1      -0.596  16.157  21.907  0.00  0.00    +0.000 Cl
ATOM     13  C   UNL     1      -0.173  14.983  19.464  0.00  0.00    +0.000 A 
ATOM     14 CL   UNL     1      -0.576  16.467  18.672  0.00  0.00    +0.000 Cl
ATOM     15  C   UNL     1       0.006  13.852  18.655  0.00  0.00    +0.000 A 
ATOM     16  C   UNL     1       0.349  12.669  19.313  0.00  0.00    +0.000 A 
ATOM     17  N   UNL     1       0.448  11.369  18.894  0.00  0.00    +0.000 N 
ATOM     18  H   UNL     1       0.203  11.028  17.976  0.00  0.00    +0.000 HD
ENDBRANCH   4   7
BRANCH   1  19
ATOM     19  C   UNL     1       3.011   5.248  20.069  0.00  0.00    +0.000 C 
BRANCH  19  22
ATOM     20  C   UNL     1       6.140   5.152  18.449  0.00  0.00    +0.000 A 
ATOM     21  N   UNL     1       5.388   5.401  19.524  0.00  0.00    +0.000 NA
ATOM     22  N   UNL     1       4.154   4.983  19.185  0.00  0.00    +0.000 N 
ATOM     23  C   UNL     1       4.125   4.346  17.950  0.00  0.00    +0.000 A 
ATOM     24  C   UNL     1       5.406   4.500  17.430  0.00  0.00    +0.000 A 
BRANCH  20  26
ATOM     25  C   UNL     1       8.153   5.604  19.869  0.00  0.00    +0.000 C 
ATOM     26  C   UNL     1       7.592   5.521  18.455  0.00  0.00    +0.000 C 
ENDBRANCH  20  26
BRANCH  23  27
ATOM     27  C   UNL     1       2.966   3.675  17.265  0.00  0.00    +0.000 C 
ATOM     28  C   UNL     1       2.514   2.300  17.718  0.00  0.00    +0.000 C 
ENDBRANCH  23  27
BRANCH  24  29
ATOM     29  C   UNL     1       5.891   4.087  16.082  0.00  0.00    +0.000 C 
BRANCH  29  30
ATOM     30  C   UNL     1       6.298   5.205  15.139  0.00  0.00    +0.000 C 
ATOM     31  O   UNL     1       5.513   6.065  14.769  0.00  0.00    +0.000 OA
BRANCH  30  32
ATOM     32  O   UNL     1       7.578   5.203  14.705  0.00  0.00    +0.000 OA
ATOM     33  H   UNL     1       8.114   5.961  15.011  0.00  0.00    +0.000 HD
ENDBRANCH  30  32
ENDBRANCH  29  30
ENDBRANCH  24  29
ENDBRANCH  19  22
ENDBRANCH   1  19
TORSDOF 8
ENDMDL
MODEL 5
REMARK VINA RESULT:      -8.1      2.145      2.636
REMARK  Name = 
REMARK  10 active torsions:
REMARK  status: ('A' for Active; 'I' for Inactive)
REMARK    1  A    between atoms: C_1  and  C_2
REMARK    2  A    between atoms: C_2  and  C_3
REMARK    3  A    between atoms: N_5  and  C_6
REMARK    4  A    between atoms: C_6  and  C_7
REMARK    5  A    between atoms: C_10  and  C_11
REMARK    6  A    between atoms: C_24  and  C_25
REMARK    7  A    between atoms: C_25  and  C_26
REMARK    8  A    between atoms: C_27  and  C_28
REMARK    9  A    between atoms: C_28  and  C_29
REMARK   10  A    between atoms: C_29  and  O_31
REMARK                            x       y       z     vdW  Elec       q    Type
REMARK                         _______ _______ _______ _____ _____    ______ ____
ROOT
ATOM      1  C   UNL     1       2.266   7.339  18.862  0.00  0.00    +0.000 A 
ATOM      2  C   UNL     1       1.931   8.475  18.111  0.00  0.00    +0.000 A 
ATOM      3  C   UNL     1       1.285   9.553  18.713  0.00  0.00    +0.000 A 
ATOM      4  C   UNL     1       0.954   9.527  20.076  0.00  0.00    +0.000 A 
ATOM      5  C   UNL     1       1.385   8.439  20.845  0.00  0.00    +0.000 A 
ATOM      6  C   UNL     1       2.030   7.353  20.243  0.00  0.00    +0.000 A 
ENDROOT
BRANCH   4   7
ATOM      7  C   UNL     1       0.107  10.595  20.615  0.00  0.00    +0.000 A 
ATOM      8  N   UNL     1       0.174  11.084  21.843  0.00  0.00    +0.000 NA
ATOM      9  C   UNL     1      -0.747  12.091  21.905  0.00  0.00    +0.000 A 
ATOM     10  C   UNL     1      -1.162  12.850  23.004  0.00  0.00    +0.000 A 
ATOM     11  C   UNL     1      -2.199  13.770  22.813  0.00  0.00    +0.000 A 
ATOM     12 CL   UNL     1      -2.958  14.407  24.232  0.00  0.00    +0.000 Cl
ATOM     13  C   UNL     1      -2.671  14.068  21.525  0.00  0.00    +0.000 A 
ATOM     14 CL   UNL     1      -3.788  15.357  21.237  0.00  0.00    +0.000 Cl
ATOM     15  C   UNL     1      -2.252  13.322  20.414  0.00  0.00    +0.000 A 
ATOM     16  C   UNL     1      -1.337  12.298  20.667  0.00  0.00    +0.000 A 
ATOM     17  N   UNL     1      -0.835  11.288  19.889  0.00  0.00    +0.000 N 
ATOM     18  H   UNL     1      -1.127  11.072  18.947  0.00  0.00    +0.000 HD
ENDBRANCH   4   7
BRANCH   1  19
ATOM     19  C   UNL     1       2.657   6.068  18.148  0.00  0.00    +0.000 C 
BRANCH  19  22
ATOM     20  C   UNL     1       6.059   6.443  17.307  0.00  0.00    +0.000 A 
ATOM     21  N   UNL     1       4.955   6.868  17.926  0.00  0.00    +0.000 NA
ATOM     22  N   UNL     1       4.057   5.882  17.742  0.00  0.00    +0.000 N 
ATOM     23  C   UNL     1       4.606   4.766  17.123  0.00  0.00    +0.000 A 
ATOM     24  C   UNL     1       5.901   5.140  16.780  0.00  0.00    +0.000 A 
BRANCH  20  26
ATOM     25  C   UNL     1       8.132   7.135  18.533  0.00  0.00    +0.000 C 
ATOM     26  C   UNL     1       7.280   7.312  17.282  0.00  0.00    +0.000 C 
ENDBRANCH  20  26
BRANCH  23  27
ATOM     27  C   UNL     1       3.956   3.443  16.820  0.00  0.00    +0.000 C 
ATOM     28  C   UNL     1       3.487   2.555  17.955  0.00  0.00    +0.000 C 
ENDBRANCH  23  27
BRANCH  24  29
ATOM     29  C   UNL     1       6.897   4.345  16.006  0.00  0.00    +0.000 C 
BRANCH  29  30
ATOM     30  C   UNL     1       6.921   4.571  14.504  0.00  0.00    +0.000 C 
ATOM     31  O   UNL     1       6.186   3.963  13.740  0.00  0.00    +0.000 OA
BRANCH  30  32
ATOM     32  O   UNL     1       7.812   5.473  14.036  0.00  0.00    +0.000 OA
ATOM     33  H   UNL     1       7.975   6.232  14.630  0.00  0.00    +0.000 HD
ENDBRANCH  30  32
ENDBRANCH  29  30
ENDBRANCH  24  29
ENDBRANCH  19  22
ENDBRANCH   1  19
TORSDOF 8
ENDMDL
MODEL 6
REMARK VINA RESULT:      -8.0      3.181      4.591
REMARK  Name = 
REMARK  10 active torsions:
REMARK  status: ('A' for Active; 'I' for Inactive)
REMARK    1  A    between atoms: C_1  and  C_2
REMARK    2  A    between atoms: C_2  and  C_3
REMARK    3  A    between atoms: N_5  and  C_6
REMARK    4  A    between atoms: C_6  and  C_7
REMARK    5  A    between atoms: C_10  and  C_11
REMARK    6  A    between atoms: C_24  and  C_25
REMARK    7  A    between atoms: C_25  and  C_26
REMARK    8  A    between atoms: C_27  and  C_28
REMARK    9  A    between atoms: C_28  and  C_29
REMARK   10  A    between atoms: C_29  and  O_31
REMARK                            x       y       z     vdW  Elec       q    Type
REMARK                         _______ _______ _______ _____ _____    ______ ____
ROOT
ATOM      1  C   UNL     1       2.599   7.795  18.372  0.00  0.00    +0.000 A 
ATOM      2  C   UNL     1       2.137   9.005  17.834  0.00  0.00    +0.000 A 
ATOM      3  C   UNL     1       1.312   9.841  18.585  0.00  0.00    +0.000 A 
ATOM      4  C   UNL     1       0.925   9.493  19.887  0.00  0.00    +0.000 A 
ATOM      5  C   UNL     1       1.473   8.338  20.459  0.00  0.00    +0.000 A 
ATOM      6  C   UNL     1       2.299   7.495  19.707  0.00  0.00    +0.000 A 
ENDROOT
BRANCH   4   7
ATOM      7  C   UNL     1      -0.095  10.304  20.558  0.00  0.00    +0.000 A 
ATOM      8  N   UNL     1      -0.309  10.346  21.863  0.00  0.00    +0.000 NA
ATOM      9  C   UNL     1      -1.301  11.262  22.061  0.00  0.00    +0.000 A 
ATOM     10  C   UNL     1      -1.983  11.597  23.236  0.00  0.00    +0.000 A 
ATOM     11  C   UNL     1      -3.034  12.517  23.147  0.00  0.00    +0.000 A 
ATOM     12 CL   UNL     1      -4.104  12.624  24.503  0.00  0.00    +0.000 Cl
ATOM     13  C   UNL     1      -3.268  13.232  21.962  0.00  0.00    +0.000 A 
ATOM     14 CL   UNL     1      -4.407  14.532  21.890  0.00  0.00    +0.000 Cl
ATOM     15  C   UNL     1      -2.581  12.914  20.781  0.00  0.00    +0.000 A 
ATOM     16  C   UNL     1      -1.654  11.874  20.867  0.00  0.00    +0.000 A 
ATOM     17  N   UNL     1      -0.930  11.195  19.922  0.00  0.00    +0.000 N 
ATOM     18  H   UNL     1      -1.014  11.311  18.923  0.00  0.00    +0.000 HD
ENDBRANCH   4   7
BRANCH   1  19
ATOM     19  C   UNL     1       3.206   6.761  17.455  0.00  0.00    +0.000 C 
BRANCH  19  22
ATOM     20  C   UNL     1       2.112   3.543  18.387  0.00  0.00    +0.000 A 
ATOM     21  N   UNL     1       1.874   4.760  17.893  0.00  0.00    +0.000 NA
ATOM     22  N   UNL     1       3.086   5.340  17.808  0.00  0.00    +0.000 N 
ATOM     23  C   UNL     1       4.120   4.465  18.118  0.00  0.00    +0.000 A 
ATOM     24  C   UNL     1       3.496   3.302  18.555  0.00  0.00    +0.000 A 
BRANCH  20  26
ATOM     25  C   UNL     1       0.419   2.760  20.060  0.00  0.00    +0.000 C 
ATOM     26  C   UNL     1       0.969   2.608  18.647  0.00  0.00    +0.000 C 
ENDBRANCH  20  26
BRANCH  23  27
ATOM     27  C   UNL     1       5.605   4.706  18.062  0.00  0.00    +0.000 C 
ATOM     28  C   UNL     1       6.315   5.326  19.250  0.00  0.00    +0.000 C 
ENDBRANCH  23  27
BRANCH  24  29
ATOM     29  C   UNL     1       4.146   2.077  19.102  0.00  0.00    +0.000 C 
BRANCH  29  30
ATOM     30  C   UNL     1       4.384   2.052  20.602  0.00  0.00    +0.000 C 
ATOM     31  O   UNL     1       5.377   1.540  21.097  0.00  0.00    +0.000 OA
BRANCH  30  32
ATOM     32  O   UNL     1       3.431   2.610  21.381  0.00  0.00    +0.000 OA
ATOM     33  H   UNL     1       3.662   2.670  22.329  0.00  0.00    +0.000 HD
ENDBRANCH  30  32
ENDBRANCH  29  30
ENDBRANCH  24  29
ENDBRANCH  19  22
ENDBRANCH   1  19
TORSDOF 8
ENDMDL
MODEL 7
REMARK VINA RESULT:      -8.0      4.987      7.214
REMARK  Name = 
REMARK  10 active torsions:
REMARK  status: ('A' for Active; 'I' for Inactive)
REMARK    1  A    between atoms: C_1  and  C_2
REMARK    2  A    between atoms: C_2  and  C_3
REMARK    3  A    between atoms: N_5  and  C_6
REMARK    4  A    between atoms: C_6  and  C_7
REMARK    5  A    between atoms: C_10  and  C_11
REMARK    6  A    between atoms: C_24  and  C_25
REMARK    7  A    between atoms: C_25  and  C_26
REMARK    8  A    between atoms: C_27  and  C_28
REMARK    9  A    between atoms: C_28  and  C_29
REMARK   10  A    between atoms: C_29  and  O_31
REMARK                            x       y       z     vdW  Elec       q    Type
REMARK                         _______ _______ _______ _____ _____    ______ ____
ROOT
ATOM      1  C   UNL     1       6.985   5.671  17.849  0.00  0.00    +0.000 A 
ATOM      2  C   UNL     1       6.911   6.692  16.891  0.00  0.00    +0.000 A 
ATOM      3  C   UNL     1       7.542   7.915  17.114  0.00  0.00    +0.000 A 
ATOM      4  C   UNL     1       8.259   8.153  18.295  0.00  0.00    +0.000 A 
ATOM      5  C   UNL     1       8.421   7.097  19.200  0.00  0.00    +0.000 A 
ATOM      6  C   UNL     1       7.786   5.869  18.982  0.00  0.00    +0.000 A 
ENDROOT
BRANCH   4   7
ATOM      7  C   UNL     1       8.736   9.513  18.567  0.00  0.00    +0.000 A 
ATOM      8  N   UNL     1       8.649  10.539  17.737  0.00  0.00    +0.000 NA
ATOM      9  C   UNL     1       9.158  11.616  18.405  0.00  0.00    +0.000 A 
ATOM     10  C   UNL     1       9.408  12.912  17.942  0.00  0.00    +0.000 A 
ATOM     11  C   UNL     1      10.026  13.814  18.816  0.00  0.00    +0.000 A 
ATOM     12 CL   UNL     1      10.677  15.261  18.124  0.00  0.00    +0.000 Cl
ATOM     13  C   UNL     1      10.207  13.496  20.171  0.00  0.00    +0.000 A 
ATOM     14 CL   UNL     1      10.757  14.668  21.318  0.00  0.00    +0.000 Cl
ATOM     15  C   UNL     1       9.946  12.204  20.649  0.00  0.00    +0.000 A 
ATOM     16  C   UNL     1       9.486  11.279  19.710  0.00  0.00    +0.000 A 
ATOM     17  N   UNL     1       9.281   9.925  19.762  0.00  0.00    +0.000 N 
ATOM     18  H   UNL     1       9.515   9.326  20.539  0.00  0.00    +0.000 HD
ENDBRANCH   4   7
BRANCH   1  19
ATOM     19  C   UNL     1       6.044   4.494  17.753  0.00  0.00    +0.000 C 
BRANCH  19  22
ATOM     20  C   UNL     1       2.797   5.765  18.264  0.00  0.00    +0.000 A 
ATOM     21  N   UNL     1       4.006   5.842  17.704  0.00  0.00    +0.000 NA
ATOM     22  N   UNL     1       4.621   4.696  18.054  0.00  0.00    +0.000 N 
ATOM     23  C   UNL     1       3.777   3.820  18.726  0.00  0.00    +0.000 A 
ATOM     24  C   UNL     1       2.597   4.529  18.922  0.00  0.00    +0.000 A 
BRANCH  20  26
ATOM     25  C   UNL     1       2.542   8.229  17.892  0.00  0.00    +0.000 C 
ATOM     26  C   UNL     1       1.830   6.899  18.106  0.00  0.00    +0.000 C 
ENDBRANCH  20  26
BRANCH  23  27
ATOM     27  C   UNL     1       4.060   2.422  19.205  0.00  0.00    +0.000 C 
ATOM     28  C   UNL     1       3.683   1.236  18.339  0.00  0.00    +0.000 C 
ENDBRANCH  23  27
BRANCH  24  29
ATOM     29  C   UNL     1       1.391   4.087  19.680  0.00  0.00    +0.000 C 
BRANCH  29  30
ATOM     30  C   UNL     1       1.607   3.723  21.139  0.00  0.00    +0.000 C 
ATOM     31  O   UNL     1       1.085   2.745  21.652  0.00  0.00    +0.000 OA
BRANCH  30  32
ATOM     32  O   UNL     1       2.398   4.545  21.863  0.00  0.00    +0.000 OA
ATOM     33  H   UNL     1       3.251   4.768  21.441  0.00  0.00    +0.000 HD
ENDBRANCH  30  32
ENDBRANCH  29  30
ENDBRANCH  24  29
ENDBRANCH  19  22
ENDBRANCH   1  19
TORSDOF 8
ENDMDL
MODEL 8
REMARK VINA RESULT:      -8.0      3.129      4.436
REMARK  Name = 
REMARK  10 active torsions:
REMARK  status: ('A' for Active; 'I' for Inactive)
REMARK    1  A    between atoms: C_1  and  C_2
REMARK    2  A    between atoms: C_2  and  C_3
REMARK    3  A    between atoms: N_5  and  C_6
REMARK    4  A    between atoms: C_6  and  C_7
REMARK    5  A    between atoms: C_10  and  C_11
REMARK    6  A    between atoms: C_24  and  C_25
REMARK    7  A    between atoms: C_25  and  C_26
REMARK    8  A    between atoms: C_27  and  C_28
REMARK    9  A    between atoms: C_28  and  C_29
REMARK   10  A    between atoms: C_29  and  O_31
REMARK                            x       y       z     vdW  Elec       q    Type
REMARK                         _______ _______ _______ _____ _____    ______ ____
ROOT
ATOM      1  C   UNL     1       2.647   7.727  18.380  0.00  0.00    +0.000 A 
ATOM      2  C   UNL     1       2.161   8.914  17.813  0.00  0.00    +0.000 A 
ATOM      3  C   UNL     1       1.339   9.763  18.551  0.00  0.00    +0.000 A 
ATOM      4  C   UNL     1       0.977   9.451  19.869  0.00  0.00    +0.000 A 
ATOM      5  C   UNL     1       1.548   8.321  20.468  0.00  0.00    +0.000 A 
ATOM      6  C   UNL     1       2.371   7.465  19.729  0.00  0.00    +0.000 A 
ENDROOT
BRANCH   4   7
ATOM      7  C   UNL     1      -0.042  10.272  20.533  0.00  0.00    +0.000 A 
ATOM      8  N   UNL     1      -0.257  10.325  21.837  0.00  0.00    +0.000 NA
ATOM      9  C   UNL     1      -1.247  11.246  22.025  0.00  0.00    +0.000 A 
ATOM     10  C   UNL     1      -1.929  11.593  23.196  0.00  0.00    +0.000 A 
ATOM     11  C   UNL     1      -2.977  12.515  23.097  0.00  0.00    +0.000 A 
ATOM     12 CL   UNL     1      -4.049  12.637  24.451  0.00  0.00    +0.000 Cl
ATOM     13  C   UNL     1      -3.208  13.220  21.906  0.00  0.00    +0.000 A 
ATOM     14 CL   UNL     1      -4.343  14.523  21.821  0.00  0.00    +0.000 Cl
ATOM     15  C   UNL     1      -2.520  12.890  20.729  0.00  0.00    +0.000 A 
ATOM     16  C   UNL     1      -1.596  11.848  20.825  0.00  0.00    +0.000 A 
ATOM     17  N   UNL     1      -0.873  11.159  19.887  0.00  0.00    +0.000 N 
ATOM     18  H   UNL     1      -0.955  11.267  18.887  0.00  0.00    +0.000 HD
ENDBRANCH   4   7
BRANCH   1  19
ATOM     19  C   UNL     1       3.251   6.671  17.485  0.00  0.00    +0.000 C 
BRANCH  19  22
ATOM     20  C   UNL     1       1.960   3.592  18.614  0.00  0.00    +0.000 A 
ATOM     21  N   UNL     1       1.819   4.895  18.359  0.00  0.00    +0.000 NA
ATOM     22  N   UNL     1       2.972   5.257  17.766  0.00  0.00    +0.000 N 
ATOM     23  C   UNL     1       3.807   4.175  17.516  0.00  0.00    +0.000 A 
ATOM     24  C   UNL     1       3.184   3.087  18.117  0.00  0.00    +0.000 A 
BRANCH  20  26
ATOM     25  C   UNL     1       1.055   2.823  20.820  0.00  0.00    +0.000 C 
ATOM     26  C   UNL     1       0.862   2.846  19.308  0.00  0.00    +0.000 C 
ENDBRANCH  20  26
BRANCH  23  27
ATOM     27  C   UNL     1       5.133   4.155  16.803  0.00  0.00    +0.000 C 
ATOM     28  C   UNL     1       5.235   4.680  15.384  0.00  0.00    +0.000 C 
ENDBRANCH  23  27
BRANCH  24  29
ATOM     29  C   UNL     1       3.707   1.694  18.231  0.00  0.00    +0.000 C 
BRANCH  29  30
ATOM     30  C   UNL     1       4.576   1.396  19.440  0.00  0.00    +0.000 C 
ATOM     31  O   UNL     1       4.799   2.230  20.305  0.00  0.00    +0.000 OA
BRANCH  30  32
ATOM     32  O   UNL     1       5.116   0.160  19.514  0.00  0.00    +0.000 OA
ATOM     33  H   UNL     1       5.487  -0.175  18.675  0.00  0.00    +0.000 HD
ENDBRANCH  30  32
ENDBRANCH  29  30
ENDBRANCH  24  29
ENDBRANCH  19  22
ENDBRANCH   1  19
TORSDOF 8
ENDMDL
MODEL 9
REMARK VINA RESULT:      -8.0      4.851      7.172
REMARK  Name = 
REMARK  10 active torsions:
REMARK  status: ('A' for Active; 'I' for Inactive)
REMARK    1  A    between atoms: C_1  and  C_2
REMARK    2  A    between atoms: C_2  and  C_3
REMARK    3  A    between atoms: N_5  and  C_6
REMARK    4  A    between atoms: C_6  and  C_7
REMARK    5  A    between atoms: C_10  and  C_11
REMARK    6  A    between atoms: C_24  and  C_25
REMARK    7  A    between atoms: C_25  and  C_26
REMARK    8  A    between atoms: C_27  and  C_28
REMARK    9  A    between atoms: C_28  and  C_29
REMARK   10  A    between atoms: C_29  and  O_31
REMARK                            x       y       z     vdW  Elec       q    Type
REMARK                         _______ _______ _______ _____ _____    ______ ____
ROOT
ATOM      1  C   UNL     1       7.126   6.029  17.783  0.00  0.00    +0.000 A 
ATOM      2  C   UNL     1       7.064   7.099  16.880  0.00  0.00    +0.000 A 
ATOM      3  C   UNL     1       7.691   8.308  17.175  0.00  0.00    +0.000 A 
ATOM      4  C   UNL     1       8.393   8.483  18.376  0.00  0.00    +0.000 A 
ATOM      5  C   UNL     1       8.543   7.380  19.226  0.00  0.00    +0.000 A 
ATOM      6  C   UNL     1       7.912   6.166  18.935  0.00  0.00    +0.000 A 
ENDROOT
BRANCH   4   7
ATOM      7  C   UNL     1       8.866   9.826  18.727  0.00  0.00    +0.000 A 
ATOM      8  N   UNL     1       9.350  10.188  19.903  0.00  0.00    +0.000 NA
ATOM      9  C   UNL     1       9.720  11.497  19.779  0.00  0.00    +0.000 A 
ATOM     10  C   UNL     1      10.175  12.389  20.756  0.00  0.00    +0.000 A 
ATOM     11  C   UNL     1      10.401  13.718  20.378  0.00  0.00    +0.000 A 
ATOM     12 CL   UNL     1      10.580  14.878  21.649  0.00  0.00    +0.000 Cl
ATOM     13  C   UNL     1      10.367  14.099  19.028  0.00  0.00    +0.000 A 
ATOM     14 CL   UNL     1      10.863  15.674  18.511  0.00  0.00    +0.000 Cl
ATOM     15  C   UNL     1       9.925  13.209  18.039  0.00  0.00    +0.000 A 
ATOM     16  C   UNL     1       9.548  11.938  18.475  0.00  0.00    +0.000 A 
ATOM     17  N   UNL     1       8.934  10.884  17.849  0.00  0.00    +0.000 N 
ATOM     18  H   UNL     1       8.571  10.892  16.908  0.00  0.00    +0.000 HD
ENDBRANCH   4   7
BRANCH   1  19
ATOM     19  C   UNL     1       6.187   4.859  17.612  0.00  0.00    +0.000 C 
BRANCH  19  22
ATOM     20  C   UNL     1       2.976   6.116  18.342  0.00  0.00    +0.000 A 
ATOM     21  N   UNL     1       4.265   6.303  18.047  0.00  0.00    +0.000 NA
ATOM     22  N   UNL     1       4.747   5.069  17.810  0.00  0.00    +0.000 N 
ATOM     23  C   UNL     1       3.754   4.096  17.820  0.00  0.00    +0.000 A 
ATOM     24  C   UNL     1       2.600   4.757  18.223  0.00  0.00    +0.000 A 
BRANCH  20  26
ATOM     25  C   UNL     1       2.329   8.460  17.742  0.00  0.00    +0.000 C 
ATOM     26  C   UNL     1       2.115   7.290  18.695  0.00  0.00    +0.000 C 
ENDBRANCH  20  26
BRANCH  23  27
ATOM     27  C   UNL     1       3.875   2.626  17.521  0.00  0.00    +0.000 C 
ATOM     28  C   UNL     1       3.743   1.614  18.642  0.00  0.00    +0.000 C 
ENDBRANCH  23  27
BRANCH  24  29
ATOM     29  C   UNL     1       1.261   4.158  18.494  0.00  0.00    +0.000 C 
BRANCH  29  30
ATOM     30  C   UNL     1       0.953   3.818  19.941  0.00  0.00    +0.000 C 
ATOM     31  O   UNL     1       1.359   4.499  20.872  0.00  0.00    +0.000 OA
BRANCH  30  32
ATOM     32  O   UNL     1       0.217   2.707  20.165  0.00  0.00    +0.000 OA
ATOM     33  H   UNL     1       0.449   1.943  19.602  0.00  0.00    +0.000 HD
ENDBRANCH  30  32
ENDBRANCH  29  30
ENDBRANCH  24  29
ENDBRANCH  19  22
ENDBRANCH   1  19
TORSDOF 8
ENDMDL
