MODEL 1
REMARK VINA RESULT:      -7.8      0.000      0.000
REMARK  Name = 
REMARK  7 active torsions:
REMARK  status: ('A' for Active; 'I' for Inactive)
REMARK    1  A    between atoms: C_1  and  O_2
REMARK    2  A    between atoms: O_2  and  C_3
REMARK    3  A    between atoms: C_3  and  C_5
REMARK    4  A    between atoms: C_10  and  N_11
REMARK    5  A    between atoms: C_12  and  C_14
REMARK    6  A    between atoms: C_14  and  N_15
REMARK    7  A    between atoms: C_16  and  C_18
REMARK                            x       y       z     vdW  Elec       q    Type
REMARK                         _______ _______ _______ _____ _____    ______ ____
ROOT
ATOM      1  N   UNL     1       5.176   3.433  19.107  0.00  0.00    +0.000 N 
ATOM      2  C   UNL     1       5.868   4.639  19.092  0.00  0.00    +0.000 C 
ATOM      3  O   UNL     1       5.535   5.670  19.677  0.00  0.00    +0.000 OA
ATOM      4  H   UNL     1       5.706   2.594  18.862  0.00  0.00    +0.000 HD
ENDROOT
BRANCH   1  10
ATOM      5  C   UNL     1       2.698   3.522  18.916  0.00  0.00    +0.000 A 
ATOM      6  C   UNL     1       1.436   3.260  19.500  0.00  0.00    +0.000 A 
ATOM      7  C   UNL     1       1.321   2.734  20.782  0.00  0.00    +0.000 A 
ATOM      8  C   UNL     1       2.469   2.475  21.513  0.00  0.00    +0.000 A 
ATOM      9  C   UNL     1       3.724   2.726  20.952  0.00  0.00    +0.000 A 
ATOM     10  C   UNL     1       3.873   3.225  19.645  0.00  0.00    +0.000 A 
BRANCH   5  11
ATOM     11  C   UNL     1       2.621   4.073  17.529  0.00  0.00    +0.000 C 
ATOM     12  O   UNL     1       2.058   3.488  16.615  0.00  0.00    +0.000 OA
BRANCH  11  14
ATOM     13  C   UNL     1       2.524   6.338  18.043  0.00  0.00    +0.000 C 
ATOM     14  O   UNL     1       3.241   5.273  17.409  0.00  0.00    +0.000 OA
ENDBRANCH  11  14
ENDBRANCH   5  11
ENDBRANCH   1  10
BRANCH   2  15
ATOM     15  C   UNL     1       7.209   4.589  18.364  0.00  0.00    +0.000 C 
BRANCH  15  16
ATOM     16  N   UNL     1       7.011   4.249  16.973  0.00  0.00    +0.000 N 
ATOM     17  C   UNL     1       7.152   5.183  15.973  0.00  0.00    +0.000 C 
ATOM     18  O   UNL     1       7.491   6.338  16.218  0.00  0.00    +0.000 OA
ATOM     19  H   UNL     1       6.583   3.361  16.730  0.00  0.00    +0.000 HD
BRANCH  17  20
ATOM     20  C   UNL     1       6.863   4.689  14.646  0.00  0.00    +0.000 A 
ATOM     21  C   UNL     1       5.963   3.734  14.209  0.00  0.00    +0.000 A 
ATOM     22  C   UNL     1       6.095   3.664  12.803  0.00  0.00    +0.000 A 
ATOM     23  C   UNL     1       7.065   4.576  12.463  0.00  0.00    +0.000 A 
ATOM     24  O   UNL     1       7.539   5.204  13.570  0.00  0.00    +0.000 OA
ENDBRANCH  17  20
ENDBRANCH  15  16
ENDBRANCH   2  15
TORSDOF 6
ENDMDL
MODEL 2
REMARK VINA RESULT:      -7.7      1.194      1.388
REMARK  Name = 
REMARK  7 active torsions:
REMARK  status: ('A' for Active; 'I' for Inactive)
REMARK    1  A    between atoms: C_1  and  O_2
REMARK    2  A    between atoms: O_2  and  C_3
REMARK    3  A    between atoms: C_3  and  C_5
REMARK    4  A    between atoms: C_10  and  N_11
REMARK    5  A    between atoms: C_12  and  C_14
REMARK    6  A    between atoms: C_14  and  N_15
REMARK    7  A    between atoms: C_16  and  C_18
REMARK                            x       y       z     vdW  Elec       q    Type
REMARK                         _______ _______ _______ _____ _____    ______ ____
ROOT
ATOM      1  N   UNL     1       5.331   3.941  18.379  0.00  0.00    +0.000 N 
ATOM      2  C   UNL     1       6.460   4.654  18.766  0.00  0.00    +0.000 C 
ATOM      3  O   UNL     1       6.622   5.218  19.848  0.00  0.00    +0.000 OA
ATOM      4  H   UNL     1       5.447   3.271  17.617  0.00  0.00    +0.000 HD
ENDROOT
BRANCH   1  10
ATOM      5  C   UNL     1       3.111   4.901  18.962  0.00  0.00    +0.000 A 
ATOM      6  C   UNL     1       1.892   4.770  19.668  0.00  0.00    +0.000 A 
ATOM      7  C   UNL     1       1.641   3.678  20.493  0.00  0.00    +0.000 A 
ATOM      8  C   UNL     1       2.614   2.705  20.643  0.00  0.00    +0.000 A 
ATOM      9  C   UNL     1       3.825   2.817  19.953  0.00  0.00    +0.000 A 
ATOM     10  C   UNL     1       4.094   3.890  19.084  0.00  0.00    +0.000 A 
BRANCH   5  11
ATOM     11  C   UNL     1       3.193   6.130  18.117  0.00  0.00    +0.000 C 
ATOM     12  O   UNL     1       3.989   6.248  17.197  0.00  0.00    +0.000 OA
BRANCH  11  14
ATOM     13  C   UNL     1       2.497   8.327  17.814  0.00  0.00    +0.000 C 
ATOM     14  O   UNL     1       2.299   7.079  18.488  0.00  0.00    +0.000 OA
ENDBRANCH  11  14
ENDBRANCH   5  11
ENDBRANCH   1  10
BRANCH   2  15
ATOM     15  C   UNL     1       7.613   4.603  17.766  0.00  0.00    +0.000 C 
BRANCH  15  16
ATOM     16  N   UNL     1       7.137   4.159  16.476  0.00  0.00    +0.000 N 
ATOM     17  C   UNL     1       7.197   4.968  15.365  0.00  0.00    +0.000 C 
ATOM     18  O   UNL     1       7.695   6.090  15.416  0.00  0.00    +0.000 OA
ATOM     19  H   UNL     1       6.581   3.311  16.411  0.00  0.00    +0.000 HD
BRANCH  17  20
ATOM     20  C   UNL     1       6.628   4.390  14.170  0.00  0.00    +0.000 A 
ATOM     21  C   UNL     1       5.381   3.838  13.933  0.00  0.00    +0.000 A 
ATOM     22  C   UNL     1       5.362   3.442  12.576  0.00  0.00    +0.000 A 
ATOM     23  C   UNL     1       6.595   3.771  12.063  0.00  0.00    +0.000 A 
ATOM     24  O   UNL     1       7.370   4.346  13.018  0.00  0.00    +0.000 OA
ENDBRANCH  17  20
ENDBRANCH  15  16
ENDBRANCH   2  15
TORSDOF 6
ENDMDL
MODEL 3
REMARK VINA RESULT:      -7.7      1.828      2.179
REMARK  Name = 
REMARK  7 active torsions:
REMARK  status: ('A' for Active; 'I' for Inactive)
REMARK    1  A    between atoms: C_1  and  O_2
REMARK    2  A    between atoms: O_2  and  C_3
REMARK    3  A    between atoms: C_3  and  C_5
REMARK    4  A    between atoms: C_10  and  N_11
REMARK    5  A    between atoms: C_12  and  C_14
REMARK    6  A    between atoms: C_14  and  N_15
REMARK    7  A    between atoms: C_16  and  C_18
REMARK                            x       y       z     vdW  Elec       q    Type
REMARK                         _______ _______ _______ _____ _____    ______ ____
ROOT
ATOM      1  N   UNL     1       4.407   5.282  18.162  0.00  0.00    +0.000 N 
ATOM      2  C   UNL     1       5.648   5.623  18.687  0.00  0.00    +0.000 C 
ATOM      3  O   UNL     1       6.129   5.200  19.738  0.00  0.00    +0.000 OA
ATOM      4  H   UNL     1       4.270   5.441  17.162  0.00  0.00    +0.000 HD
ENDROOT
BRANCH   1  10
ATOM      5  C   UNL     1       2.368   5.148  19.580  0.00  0.00    +0.000 A 
ATOM      6  C   UNL     1       1.378   4.341  20.191  0.00  0.00    +0.000 A 
ATOM      7  C   UNL     1       1.401   2.954  20.084  0.00  0.00    +0.000 A 
ATOM      8  C   UNL     1       2.426   2.346  19.380  0.00  0.00    +0.000 A 
ATOM      9  C   UNL     1       3.411   3.126  18.770  0.00  0.00    +0.000 A 
ATOM     10  C   UNL     1       3.396   4.532  18.829  0.00  0.00    +0.000 A 
BRANCH   5  11
ATOM     11  C   UNL     1       2.171   6.613  19.792  0.00  0.00    +0.000 C 
ATOM     12  O   UNL     1       2.601   7.457  19.019  0.00  0.00    +0.000 OA
BRANCH  11  14
ATOM     13  C   UNL     1       1.274   8.291  21.127  0.00  0.00    +0.000 C 
ATOM     14  O   UNL     1       1.475   6.888  20.922  0.00  0.00    +0.000 OA
ENDBRANCH  11  14
ENDBRANCH   5  11
ENDBRANCH   1  10
BRANCH   2  15
ATOM     15  C   UNL     1       6.493   6.517  17.782  0.00  0.00    +0.000 C 
BRANCH  15  16
ATOM     16  N   UNL     1       6.428   6.051  16.416  0.00  0.00    +0.000 N 
ATOM     17  C   UNL     1       7.200   5.003  15.972  0.00  0.00    +0.000 C 
ATOM     18  O   UNL     1       7.949   4.392  16.731  0.00  0.00    +0.000 OA
ATOM     19  H   UNL     1       5.949   6.611  15.717  0.00  0.00    +0.000 HD
BRANCH  17  20
ATOM     20  C   UNL     1       7.054   4.703  14.567  0.00  0.00    +0.000 A 
ATOM     21  C   UNL     1       6.200   3.836  13.907  0.00  0.00    +0.000 A 
ATOM     22  C   UNL     1       6.482   3.957  12.527  0.00  0.00    +0.000 A 
ATOM     23  C   UNL     1       7.491   4.886  12.423  0.00  0.00    +0.000 A 
ATOM     24  O   UNL     1       7.845   5.346  13.650  0.00  0.00    +0.000 OA
ENDBRANCH  17  20
ENDBRANCH  15  16
ENDBRANCH   2  15
TORSDOF 6
ENDMDL
MODEL 4
REMARK VINA RESULT:      -7.6      1.719      2.387
REMARK  Name = 
REMARK  7 active torsions:
REMARK  status: ('A' for Active; 'I' for Inactive)
REMARK    1  A    between atoms: C_1  and  O_2
REMARK    2  A    between atoms: O_2  and  C_3
REMARK    3  A    between atoms: C_3  and  C_5
REMARK    4  A    between atoms: C_10  and  N_11
REMARK    5  A    between atoms: C_12  and  C_14
REMARK    6  A    between atoms: C_14  and  N_15
REMARK    7  A    between atoms: C_16  and  C_18
REMARK                            x       y       z     vdW  Elec       q    Type
REMARK                         _______ _______ _______ _____ _____    ______ ____
ROOT
ATOM      1  N   UNL     1       4.196   6.104  17.973  0.00  0.00    +0.000 N 
ATOM      2  C   UNL     1       5.553   6.036  18.266  0.00  0.00    +0.000 C 
ATOM      3  O   UNL     1       6.064   5.379  19.174  0.00  0.00    +0.000 OA
ATOM      4  H   UNL     1       3.942   6.409  17.031  0.00  0.00    +0.000 HD
ENDROOT
BRANCH   1  10
ATOM      5  C   UNL     1       2.613   4.283  18.578  0.00  0.00    +0.000 A 
ATOM      6  C   UNL     1       1.587   3.816  19.433  0.00  0.00    +0.000 A 
ATOM      7  C   UNL     1       1.072   4.609  20.454  0.00  0.00    +0.000 A 
ATOM      8  C   UNL     1       1.561   5.892  20.627  0.00  0.00    +0.000 A 
ATOM      9  C   UNL     1       2.575   6.370  19.792  0.00  0.00    +0.000 A 
ATOM     10  C   UNL     1       3.141   5.581  18.775  0.00  0.00    +0.000 A 
BRANCH   5  11
ATOM     11  C   UNL     1       3.047   3.288  17.552  0.00  0.00    +0.000 C 
ATOM     12  O   UNL     1       3.661   3.603  16.543  0.00  0.00    +0.000 OA
BRANCH  11  14
ATOM     13  C   UNL     1       3.759   1.249  18.413  0.00  0.00    +0.000 C 
ATOM     14  O   UNL     1       2.683   2.021  17.867  0.00  0.00    +0.000 OA
ENDBRANCH  11  14
ENDBRANCH   5  11
ENDBRANCH   1  10
BRANCH   2  15
ATOM     15  C   UNL     1       6.452   6.769  17.273  0.00  0.00    +0.000 C 
BRANCH  15  16
ATOM     16  N   UNL     1       6.353   6.162  15.966  0.00  0.00    +0.000 N 
ATOM     17  C   UNL     1       7.107   5.066  15.618  0.00  0.00    +0.000 C 
ATOM     18  O   UNL     1       7.869   4.531  16.420  0.00  0.00    +0.000 OA
ATOM     19  H   UNL     1       5.862   6.650  15.222  0.00  0.00    +0.000 HD
BRANCH  17  20
ATOM     20  C   UNL     1       6.927   4.620  14.255  0.00  0.00    +0.000 A 
ATOM     21  C   UNL     1       7.583   4.976  13.090  0.00  0.00    +0.000 A 
ATOM     22  C   UNL     1       7.004   4.213  12.049  0.00  0.00    +0.000 A 
ATOM     23  C   UNL     1       6.030   3.441  12.635  0.00  0.00    +0.000 A 
ATOM     24  O   UNL     1       5.973   3.677  13.971  0.00  0.00    +0.000 OA
ENDBRANCH  17  20
ENDBRANCH  15  16
ENDBRANCH   2  15
TORSDOF 6
ENDMDL
MODEL 5
REMARK VINA RESULT:      -7.6      1.635      1.896
REMARK  Name = 
REMARK  7 active torsions:
REMARK  status: ('A' for Active; 'I' for Inactive)
REMARK    1  A    between atoms: C_1  and  O_2
REMARK    2  A    between atoms: O_2  and  C_3
REMARK    3  A    between atoms: C_3  and  C_5
REMARK    4  A    between atoms: C_10  and  N_11
REMARK    5  A    between atoms: C_12  and  C_14
REMARK    6  A    between atoms: C_14  and  N_15
REMARK    7  A    between atoms: C_16  and  C_18
REMARK                            x       y       z     vdW  Elec       q    Type
REMARK                         _______ _______ _______ _____ _____    ______ ____
ROOT
ATOM      1  N   UNL     1       5.244   3.954  17.656  0.00  0.00    +0.000 N 
ATOM      2  C   UNL     1       6.210   4.503  18.492  0.00  0.00    +0.000 C 
ATOM      3  O   UNL     1       6.103   4.671  19.707  0.00  0.00    +0.000 OA
ATOM      4  H   UNL     1       5.566   3.582  16.761  0.00  0.00    +0.000 HD
ENDROOT
BRANCH   1  10
ATOM      5  C   UNL     1       2.939   4.672  18.258  0.00  0.00    +0.000 A 
ATOM      6  C   UNL     1       1.612   4.306  18.583  0.00  0.00    +0.000 A 
ATOM      7  C   UNL     1       1.228   2.973  18.687  0.00  0.00    +0.000 A 
ATOM      8  C   UNL     1       2.171   1.979  18.487  0.00  0.00    +0.000 A 
ATOM      9  C   UNL     1       3.488   2.322  18.165  0.00  0.00    +0.000 A 
ATOM     10  C   UNL     1       3.898   3.659  18.018  0.00  0.00    +0.000 A 
BRANCH   5  11
ATOM     11  C   UNL     1       3.159   6.148  18.178  0.00  0.00    +0.000 C 
ATOM     12  O   UNL     1       3.801   6.672  17.281  0.00  0.00    +0.000 OA
BRANCH  11  14
ATOM     13  C   UNL     1       2.120   8.124  18.826  0.00  0.00    +0.000 C 
ATOM     14  O   UNL     1       2.574   6.818  19.201  0.00  0.00    +0.000 OA
ENDBRANCH  11  14
ENDBRANCH   5  11
ENDBRANCH   1  10
BRANCH   2  15
ATOM     15  C   UNL     1       7.542   4.802  17.808  0.00  0.00    +0.000 C 
BRANCH  15  16
ATOM     16  N   UNL     1       7.479   4.439  16.411  0.00  0.00    +0.000 N 
ATOM     17  C   UNL     1       6.915   5.271  15.472  0.00  0.00    +0.000 C 
ATOM     18  O   UNL     1       6.475   6.377  15.778  0.00  0.00    +0.000 OA
ATOM     19  H   UNL     1       7.684   3.484  16.131  0.00  0.00    +0.000 HD
BRANCH  17  20
ATOM     20  C   UNL     1       6.884   4.731  14.133  0.00  0.00    +0.000 A 
ATOM     21  C   UNL     1       7.633   5.042  13.011  0.00  0.00    +0.000 A 
ATOM     22  C   UNL     1       7.189   4.188  11.976  0.00  0.00    +0.000 A 
ATOM     23  C   UNL     1       6.197   3.408  12.521  0.00  0.00    +0.000 A 
ATOM     24  O   UNL     1       6.003   3.726  13.827  0.00  0.00    +0.000 OA
ENDBRANCH  17  20
ENDBRANCH  15  16
ENDBRANCH   2  15
TORSDOF 6
ENDMDL
MODEL 6
REMARK VINA RESULT:      -7.5      1.508      1.734
REMARK  Name = 
REMARK  7 active torsions:
REMARK  status: ('A' for Active; 'I' for Inactive)
REMARK    1  A    between atoms: C_1  and  O_2
REMARK    2  A    between atoms: O_2  and  C_3
REMARK    3  A    between atoms: C_3  and  C_5
REMARK    4  A    between atoms: C_10  and  N_11
REMARK    5  A    between atoms: C_12  and  C_14
REMARK    6  A    between atoms: C_14  and  N_15
REMARK    7  A    between atoms: C_16  and  C_18
REMARK                            x       y       z     vdW  Elec       q    Type
REMARK                         _______ _______ _______ _____ _____    ______ ____
ROOT
ATOM      1  N   UNL     1       5.039   4.201  17.779  0.00  0.00    +0.000 N 
ATOM      2  C   UNL     1       6.050   4.653  18.620  0.00  0.00    +0.000 C 
ATOM      3  O   UNL     1       6.068   4.549  19.847  0.00  0.00    +0.000 OA
ATOM      4  H   UNL     1       5.285   4.059  16.797  0.00  0.00    +0.000 HD
ENDROOT
BRANCH   1  10
ATOM      5  C   UNL     1       2.744   4.558  18.670  0.00  0.00    +0.000 A 
ATOM      6  C   UNL     1       1.495   4.001  19.033  0.00  0.00    +0.000 A 
ATOM      7  C   UNL     1       1.253   2.634  18.946  0.00  0.00    +0.000 A 
ATOM      8  C   UNL     1       2.264   1.794  18.511  0.00  0.00    +0.000 A 
ATOM      9  C   UNL     1       3.504   2.326  18.148  0.00  0.00    +0.000 A 
ATOM     10  C   UNL     1       3.768   3.707  18.191  0.00  0.00    +0.000 A 
BRANCH   5  11
ATOM     11  C   UNL     1       2.812   6.043  18.818  0.00  0.00    +0.000 C 
ATOM     12  O   UNL     1       2.531   6.617  19.859  0.00  0.00    +0.000 OA
BRANCH  11  14
ATOM     13  C   UNL     1       3.019   8.081  17.718  0.00  0.00    +0.000 C 
ATOM     14  O   UNL     1       3.213   6.662  17.680  0.00  0.00    +0.000 OA
ENDBRANCH  11  14
ENDBRANCH   5  11
ENDBRANCH   1  10
BRANCH   2  15
ATOM     15  C   UNL     1       7.270   5.217  17.897  0.00  0.00    +0.000 C 
BRANCH  15  16
ATOM     16  N   UNL     1       7.290   4.767  16.524  0.00  0.00    +0.000 N 
ATOM     17  C   UNL     1       6.655   5.467  15.524  0.00  0.00    +0.000 C 
ATOM     18  O   UNL     1       6.076   6.527  15.752  0.00  0.00    +0.000 OA
ATOM     19  H   UNL     1       7.616   3.830  16.308  0.00  0.00    +0.000 HD
BRANCH  17  20
ATOM     20  C   UNL     1       6.727   4.849  14.220  0.00  0.00    +0.000 A 
ATOM     21  C   UNL     1       6.019   3.791  13.677  0.00  0.00    +0.000 A 
ATOM     22  C   UNL     1       6.491   3.623  12.354  0.00  0.00    +0.000 A 
ATOM     23  C   UNL     1       7.457   4.582  12.167  0.00  0.00    +0.000 A 
ATOM     24  O   UNL     1       7.610   5.332  13.289  0.00  0.00    +0.000 OA
ENDBRANCH  17  20
ENDBRANCH  15  16
ENDBRANCH   2  15
TORSDOF 6
ENDMDL
MODEL 7
REMARK VINA RESULT:      -7.5      1.782      2.229
REMARK  Name = 
REMARK  7 active torsions:
REMARK  status: ('A' for Active; 'I' for Inactive)
REMARK    1  A    between atoms: C_1  and  O_2
REMARK    2  A    between atoms: O_2  and  C_3
REMARK    3  A    between atoms: C_3  and  C_5
REMARK    4  A    between atoms: C_10  and  N_11
REMARK    5  A    between atoms: C_12  and  C_14
REMARK    6  A    between atoms: C_14  and  N_15
REMARK    7  A    between atoms: C_16  and  C_18
REMARK                            x       y       z     vdW  Elec       q    Type
REMARK                         _______ _______ _______ _____ _____    ______ ____
ROOT
ATOM      1  N   UNL     1       4.116   5.449  17.963  0.00  0.00    +0.000 N 
ATOM      2  C   UNL     1       5.420   5.766  18.326  0.00  0.00    +0.000 C 
ATOM      3  O   UNL     1       5.987   5.415  19.361  0.00  0.00    +0.000 OA
ATOM      4  H   UNL     1       3.883   5.521  16.971  0.00  0.00    +0.000 HD
ENDROOT
BRANCH   1  10
ATOM      5  C   UNL     1       2.257   5.563  19.612  0.00  0.00    +0.000 A 
ATOM      6  C   UNL     1       1.298   4.876  20.392  0.00  0.00    +0.000 A 
ATOM      7  C   UNL     1       1.217   3.487  20.392  0.00  0.00    +0.000 A 
ATOM      8  C   UNL     1       2.108   2.758  19.623  0.00  0.00    +0.000 A 
ATOM      9  C   UNL     1       3.062   3.419  18.846  0.00  0.00    +0.000 A 
ATOM     10  C   UNL     1       3.146   4.823  18.797  0.00  0.00    +0.000 A 
BRANCH   5  11
ATOM     11  C   UNL     1       2.183   7.051  19.731  0.00  0.00    +0.000 C 
ATOM     12  O   UNL     1       1.794   7.614  20.743  0.00  0.00    +0.000 OA
BRANCH  11  14
ATOM     13  C   UNL     1       1.775   8.819  18.277  0.00  0.00    +0.000 C 
ATOM     14  O   UNL     1       2.588   7.685  18.603  0.00  0.00    +0.000 OA
ENDBRANCH  11  14
ENDBRANCH   5  11
ENDBRANCH   1  10
BRANCH   2  15
ATOM     15  C   UNL     1       6.208   6.522  17.259  0.00  0.00    +0.000 C 
BRANCH  15  16
ATOM     16  N   UNL     1       6.046   5.885  15.972  0.00  0.00    +0.000 N 
ATOM     17  C   UNL     1       6.929   4.931  15.521  0.00  0.00    +0.000 C 
ATOM     18  O   UNL     1       7.871   4.552  16.213  0.00  0.00    +0.000 OA
ATOM     19  H   UNL     1       5.384   6.266  15.303  0.00  0.00    +0.000 HD
BRANCH  17  20
ATOM     20  C   UNL     1       6.653   4.438  14.192  0.00  0.00    +0.000 A 
ATOM     21  C   UNL     1       5.629   3.637  13.715  0.00  0.00    +0.000 A 
ATOM     22  C   UNL     1       5.847   3.483  12.326  0.00  0.00    +0.000 A 
ATOM     23  C   UNL     1       6.987   4.193  12.036  0.00  0.00    +0.000 A 
ATOM     24  O   UNL     1       7.485   4.777  13.156  0.00  0.00    +0.000 OA
ENDBRANCH  17  20
ENDBRANCH  15  16
ENDBRANCH   2  15
TORSDOF 6
ENDMDL
MODEL 8
REMARK VINA RESULT:      -7.5      1.654      2.020
REMARK  Name = 
REMARK  7 active torsions:
REMARK  status: ('A' for Active; 'I' for Inactive)
REMARK    1  A    between atoms: C_1  and  O_2
REMARK    2  A    between atoms: O_2  and  C_3
REMARK    3  A    between atoms: C_3  and  C_5
REMARK    4  A    between atoms: C_10  and  N_11
REMARK    5  A    between atoms: C_12  and  C_14
REMARK    6  A    between atoms: C_14  and  N_15
REMARK    7  A    between atoms: C_16  and  C_18
REMARK                            x       y       z     vdW  Elec       q    Type
REMARK                         _______ _______ _______ _____ _____    ______ ____
ROOT
ATOM      1  N   UNL     1       4.894   5.380  18.559  0.00  0.00    +0.000 N 
ATOM      2  C   UNL     1       6.216   5.514  18.969  0.00  0.00    +0.000 C 
ATOM      3  O   UNL     1       6.710   5.025  19.985  0.00  0.00    +0.000 OA
ATOM      4  H   UNL     1       4.698   5.551  17.571  0.00  0.00    +0.000 HD
ENDROOT
BRANCH   1  10
ATOM      5  C   UNL     1       2.737   5.579  19.782  0.00  0.00    +0.000 A 
ATOM      6  C   UNL     1       1.706   4.943  20.513  0.00  0.00    +0.000 A 
ATOM      7  C   UNL     1       1.753   3.585  20.810  0.00  0.00    +0.000 A 
ATOM      8  C   UNL     1       2.844   2.839  20.396  0.00  0.00    +0.000 A 
ATOM      9  C   UNL     1       3.872   3.450  19.673  0.00  0.00    +0.000 A 
ATOM     10  C   UNL     1       3.836   4.813  19.326  0.00  0.00    +0.000 A 
BRANCH   5  11
ATOM     11  C   UNL     1       2.505   7.036  19.549  0.00  0.00    +0.000 C 
ATOM     12  O   UNL     1       1.916   7.748  20.348  0.00  0.00    +0.000 OA
BRANCH  11  14
ATOM     13  C   UNL     1       2.221   8.484  17.752  0.00  0.00    +0.000 C 
ATOM     14  O   UNL     1       3.015   7.463  18.367  0.00  0.00    +0.000 OA
ENDBRANCH  11  14
ENDBRANCH   5  11
ENDBRANCH   1  10
BRANCH   2  15
ATOM     15  C   UNL     1       7.114   6.248  17.976  0.00  0.00    +0.000 C 
BRANCH  15  16
ATOM     16  N   UNL     1       7.140   5.547  16.712  0.00  0.00    +0.000 N 
ATOM     17  C   UNL     1       6.270   5.859  15.694  0.00  0.00    +0.000 C 
ATOM     18  O   UNL     1       5.458   6.775  15.803  0.00  0.00    +0.000 OA
ATOM     19  H   UNL     1       7.678   4.690  16.625  0.00  0.00    +0.000 HD
BRANCH  17  20
ATOM     20  C   UNL     1       6.394   5.025  14.521  0.00  0.00    +0.000 A 
ATOM     21  C   UNL     1       5.649   3.939  14.097  0.00  0.00    +0.000 A 
ATOM     22  C   UNL     1       6.208   3.517  12.868  0.00  0.00    +0.000 A 
ATOM     23  C   UNL     1       7.260   4.366  12.615  0.00  0.00    +0.000 A 
ATOM     24  O   UNL     1       7.383   5.284  13.607  0.00  0.00    +0.000 OA
ENDBRANCH  17  20
ENDBRANCH  15  16
ENDBRANCH   2  15
TORSDOF 6
ENDMDL
MODEL 9
REMARK VINA RESULT:      -7.3      1.793      2.183
REMARK  Name = 
REMARK  7 active torsions:
REMARK  status: ('A' for Active; 'I' for Inactive)
REMARK    1  A    between atoms: C_1  and  O_2
REMARK    2  A    between atoms: O_2  and  C_3
REMARK    3  A    between atoms: C_3  and  C_5
REMARK    4  A    between atoms: C_10  and  N_11
REMARK    5  A    between atoms: C_12  and  C_14
REMARK    6  A    between atoms: C_14  and  N_15
REMARK    7  A    between atoms: C_16  and  C_18
REMARK                            x       y       z     vdW  Elec       q    Type
REMARK                         _______ _______ _______ _____ _____    ______ ____
ROOT
ATOM      1  N   UNL     1       4.279   5.036  17.584  0.00  0.00    +0.000 N 
ATOM      2  C   UNL     1       5.389   5.615  18.189  0.00  0.00    +0.000 C 
ATOM      3  O   UNL     1       5.774   5.408  19.340  0.00  0.00    +0.000 OA
ATOM      4  H   UNL     1       4.257   5.037  16.562  0.00  0.00    +0.000 HD
ENDROOT
BRANCH   1  10
ATOM      5  C   UNL     1       2.279   4.820  19.046  0.00  0.00    +0.000 A 
ATOM      6  C   UNL     1       1.307   3.980  19.640  0.00  0.00    +0.000 A 
ATOM      7  C   UNL     1       1.329   2.600  19.460  0.00  0.00    +0.000 A 
ATOM      8  C   UNL     1       2.336   2.033  18.698  0.00  0.00    +0.000 A 
ATOM      9  C   UNL     1       3.304   2.847  18.104  0.00  0.00    +0.000 A 
ATOM     10  C   UNL     1       3.288   4.248  18.237  0.00  0.00    +0.000 A 
BRANCH   5  11
ATOM     11  C   UNL     1       2.084   6.272  19.340  0.00  0.00    +0.000 C 
ATOM     12  O   UNL     1       1.846   6.694  20.462  0.00  0.00    +0.000 OA
BRANCH  11  14
ATOM     13  C   UNL     1       2.131   8.448  18.524  0.00  0.00    +0.000 C 
ATOM     14  O   UNL     1       2.200   7.048  18.234  0.00  0.00    +0.000 OA
ENDBRANCH  11  14
ENDBRANCH   5  11
ENDBRANCH   1  10
BRANCH   2  15
ATOM     15  C   UNL     1       6.231   6.488  17.262  0.00  0.00    +0.000 C 
BRANCH  15  16
ATOM     16  N   UNL     1       6.214   5.954  15.919  0.00  0.00    +0.000 N 
ATOM     17  C   UNL     1       7.085   4.967  15.522  0.00  0.00    +0.000 C 
ATOM     18  O   UNL     1       7.890   4.469  16.306  0.00  0.00    +0.000 OA
ATOM     19  H   UNL     1       5.682   6.431  15.197  0.00  0.00    +0.000 HD
BRANCH  17  20
ATOM     20  C   UNL     1       6.971   4.589  14.133  0.00  0.00    +0.000 A 
ATOM     21  C   UNL     1       7.635   5.047  13.009  0.00  0.00    +0.000 A 
ATOM     22  C   UNL     1       7.134   4.311  11.911  0.00  0.00    +0.000 A 
ATOM     23  C   UNL     1       6.194   3.449  12.424  0.00  0.00    +0.000 A 
ATOM     24  O   UNL     1       6.086   3.607  13.768  0.00  0.00    +0.000 OA
ENDBRANCH  17  20
ENDBRANCH  15  16
ENDBRANCH   2  15
TORSDOF 6
ENDMDL
