MODEL 1
REMARK VINA RESULT:      -6.8      0.000      0.000
REMARK  Name = 
REMARK  4 active torsions:
REMARK  status: ('A' for Active; 'I' for Inactive)
REMARK    1  A    between atoms: C_1  and  S_2
REMARK    2  A    between atoms: S_2  and  C_3
REMARK    3  A    between atoms: C_14  and  C_15
REMARK    4  A    between atoms: C_15  and  C_16
REMARK                            x       y       z     vdW  Elec       q    Type
REMARK                         _______ _______ _______ _____ _____    ______ ____
ROOT
ATOM      1  C   UNL     1       2.667   5.147  20.325  0.00  0.00    +0.000 A 
ATOM      2  N   UNL     1       2.046   6.340  20.642  0.00  0.00    +0.000 N 
ATOM      3  C   UNL     1       1.954   7.419  19.761  0.00  0.00    +0.000 A 
ATOM      4  C   UNL     1       1.202   8.568  20.046  0.00  0.00    +0.000 A 
ATOM      5 BR   UNL     1       0.229   8.716  21.671  0.00  0.00    +0.000 Br
ATOM      6  C   UNL     1       1.147   9.633  19.142  0.00  0.00    +0.000 A 
ATOM      7  C   UNL     1       1.864   9.568  17.947  0.00  0.00    +0.000 A 
ATOM      8  C   UNL     1       2.652   8.451  17.670  0.00  0.00    +0.000 A 
ATOM      9  C   UNL     1       2.697   7.387  18.581  0.00  0.00    +0.000 A 
ATOM     10  C   UNL     1       3.562   6.210  18.332  0.00  0.00    +0.000 A 
ATOM     11  O   UNL     1       4.375   6.259  17.414  0.00  0.00    +0.000 OA
ATOM     12  C   UNL     1       3.429   4.999  19.210  0.00  0.00    +0.000 A 
ATOM     13  H   UNL     1       1.377   6.293  21.405  0.00  0.00    +0.000 HD
ENDROOT
BRANCH  12  14
ATOM     14  C   UNL     1       4.152   3.730  18.837  0.00  0.00    +0.000 C 
ATOM     15  C   UNL     1       3.548   2.790  17.822  0.00  0.00    +0.000 C 
ATOM     16  O   UNL     1       5.251   3.445  19.310  0.00  0.00    +0.000 OA
ENDBRANCH  12  14
BRANCH   1  18
ATOM     17  C   UNL     1       0.998   3.020  20.564  0.00  0.00    +0.000 C 
ATOM     18  S   UNL     1       2.356   3.828  21.453  0.00  0.00    +0.000 S 
ENDBRANCH   1  18
TORSDOF 2
ENDMDL
MODEL 2
REMARK VINA RESULT:      -6.4      1.036      1.123
REMARK  Name = 
REMARK  4 active torsions:
REMARK  status: ('A' for Active; 'I' for Inactive)
REMARK    1  A    between atoms: C_1  and  S_2
REMARK    2  A    between atoms: S_2  and  C_3
REMARK    3  A    between atoms: C_14  and  C_15
REMARK    4  A    between atoms: C_15  and  C_16
REMARK                            x       y       z     vdW  Elec       q    Type
REMARK                         _______ _______ _______ _____ _____    ______ ____
ROOT
ATOM      1  C   UNL     1       2.456   5.662  20.119  0.00  0.00    +0.000 A 
ATOM      2  N   UNL     1       1.861   6.800  20.629  0.00  0.00    +0.000 N 
ATOM      3  C   UNL     1       1.669   7.967  19.887  0.00  0.00    +0.000 A 
ATOM      4  C   UNL     1       0.939   9.063  20.372  0.00  0.00    +0.000 A 
ATOM      5 BR   UNL     1       0.139   9.012  22.095  0.00  0.00    +0.000 Br
ATOM      6  C   UNL     1       0.782  10.219  19.603  0.00  0.00    +0.000 A 
ATOM      7  C   UNL     1       1.373  10.300  18.342  0.00  0.00    +0.000 A 
ATOM      8  C   UNL     1       2.137   9.236  17.863  0.00  0.00    +0.000 A 
ATOM      9  C   UNL     1       2.286   8.080  18.642  0.00  0.00    +0.000 A 
ATOM     10  C   UNL     1       3.131   6.956  18.176  0.00  0.00    +0.000 A 
ATOM     11  O   UNL     1       3.845   7.121  17.191  0.00  0.00    +0.000 OA
ATOM     12  C   UNL     1       3.101   5.653  18.924  0.00  0.00    +0.000 A 
ATOM     13  H   UNL     1       1.275   6.657  21.446  0.00  0.00    +0.000 HD
ENDROOT
BRANCH  12  14
ATOM     14  C   UNL     1       3.793   4.447  18.340  0.00  0.00    +0.000 C 
ATOM     15  C   UNL     1       5.218   4.135  18.729  0.00  0.00    +0.000 C 
ATOM     16  O   UNL     1       3.218   3.676  17.573  0.00  0.00    +0.000 OA
ENDBRANCH  12  14
BRANCH   1  18
ATOM     17  C   UNL     1       0.848   3.482  20.281  0.00  0.00    +0.000 C 
ATOM     18  S   UNL     1       2.276   4.221  21.120  0.00  0.00    +0.000 S 
ENDBRANCH   1  18
TORSDOF 2
ENDMDL
MODEL 3
REMARK VINA RESULT:      -6.0      3.409      5.096
REMARK  Name = 
REMARK  4 active torsions:
REMARK  status: ('A' for Active; 'I' for Inactive)
REMARK    1  A    between atoms: C_1  and  S_2
REMARK    2  A    between atoms: S_2  and  C_3
REMARK    3  A    between atoms: C_14  and  C_15
REMARK    4  A    between atoms: C_15  and  C_16
REMARK                            x       y       z     vdW  Elec       q    Type
REMARK                         _______ _______ _______ _____ _____    ______ ____
ROOT
ATOM      1  C   UNL     1       3.303   5.590  18.681  0.00  0.00    +0.000 A 
ATOM      2  N   UNL     1       4.545   6.053  18.288  0.00  0.00    +0.000 N 
ATOM      3  C   UNL     1       5.316   5.443  17.298  0.00  0.00    +0.000 A 
ATOM      4  C   UNL     1       6.508   6.003  16.813  0.00  0.00    +0.000 A 
ATOM      5 BR   UNL     1       7.141   7.666  17.477  0.00  0.00    +0.000 Br
ATOM      6  C   UNL     1       7.259   5.353  15.830  0.00  0.00    +0.000 A 
ATOM      7  C   UNL     1       6.835   4.120  15.333  0.00  0.00    +0.000 A 
ATOM      8  C   UNL     1       5.676   3.530  15.837  0.00  0.00    +0.000 A 
ATOM      9  C   UNL     1       4.929   4.192  16.820  0.00  0.00    +0.000 A 
ATOM     10  C   UNL     1       3.719   3.565  17.404  0.00  0.00    +0.000 A 
ATOM     11  O   UNL     1       3.485   2.387  17.152  0.00  0.00    +0.000 OA
ATOM     12  C   UNL     1       2.823   4.380  18.293  0.00  0.00    +0.000 A 
ATOM     13  H   UNL     1       4.733   7.027  18.503  0.00  0.00    +0.000 HD
ENDROOT
BRANCH  12  14
ATOM     14  C   UNL     1       1.492   3.816  18.719  0.00  0.00    +0.000 C 
ATOM     15  C   UNL     1       1.251   3.466  20.168  0.00  0.00    +0.000 C 
ATOM     16  O   UNL     1       0.567   3.662  17.923  0.00  0.00    +0.000 OA
ENDBRANCH  12  14
BRANCH   1  18
ATOM     17  C   UNL     1       2.255   8.087  18.517  0.00  0.00    +0.000 C 
ATOM     18  S   UNL     1       2.380   6.707  19.686  0.00  0.00    +0.000 S 
ENDBRANCH   1  18
TORSDOF 2
ENDMDL
MODEL 4
REMARK VINA RESULT:      -5.9      3.007      4.521
REMARK  Name = 
REMARK  4 active torsions:
REMARK  status: ('A' for Active; 'I' for Inactive)
REMARK    1  A    between atoms: C_1  and  S_2
REMARK    2  A    between atoms: S_2  and  C_3
REMARK    3  A    between atoms: C_14  and  C_15
REMARK    4  A    between atoms: C_15  and  C_16
REMARK                            x       y       z     vdW  Elec       q    Type
REMARK                         _______ _______ _______ _____ _____    ______ ____
ROOT
ATOM      1  C   UNL     1       5.268   6.003  17.514  0.00  0.00    +0.000 A 
ATOM      2  N   UNL     1       4.166   6.328  18.282  0.00  0.00    +0.000 N 
ATOM      3  C   UNL     1       3.314   5.379  18.848  0.00  0.00    +0.000 A 
ATOM      4  C   UNL     1       2.284   5.719  19.738  0.00  0.00    +0.000 A 
ATOM      5 BR   UNL     1       1.997   7.527  20.248  0.00  0.00    +0.000 Br
ATOM      6  C   UNL     1       1.443   4.740  20.272  0.00  0.00    +0.000 A 
ATOM      7  C   UNL     1       1.611   3.404  19.905  0.00  0.00    +0.000 A 
ATOM      8  C   UNL     1       2.602   3.055  18.988  0.00  0.00    +0.000 A 
ATOM      9  C   UNL     1       3.442   4.046  18.461  0.00  0.00    +0.000 A 
ATOM     10  C   UNL     1       4.472   3.708  17.451  0.00  0.00    +0.000 A 
ATOM     11  O   UNL     1       4.459   2.589  16.945  0.00  0.00    +0.000 OA
ATOM     12  C   UNL     1       5.492   4.741  17.065  0.00  0.00    +0.000 A 
ATOM     13  H   UNL     1       4.182   7.257  18.694  0.00  0.00    +0.000 HD
ENDROOT
BRANCH  12  14
ATOM     14  C   UNL     1       6.660   4.341  16.199  0.00  0.00    +0.000 C 
ATOM     15  C   UNL     1       6.494   4.260  14.701  0.00  0.00    +0.000 C 
ATOM     16  O   UNL     1       7.771   4.109  16.674  0.00  0.00    +0.000 OA
ENDBRANCH  12  14
BRANCH   1  18
ATOM     17  C   UNL     1       7.681   6.892  18.380  0.00  0.00    +0.000 C 
ATOM     18  S   UNL     1       6.376   7.339  17.204  0.00  0.00    +0.000 S 
ENDBRANCH   1  18
TORSDOF 2
ENDMDL
MODEL 5
REMARK VINA RESULT:      -5.8      2.355      3.313
REMARK  Name = 
REMARK  4 active torsions:
REMARK  status: ('A' for Active; 'I' for Inactive)
REMARK    1  A    between atoms: C_1  and  S_2
REMARK    2  A    between atoms: S_2  and  C_3
REMARK    3  A    between atoms: C_14  and  C_15
REMARK    4  A    between atoms: C_15  and  C_16
REMARK                            x       y       z     vdW  Elec       q    Type
REMARK                         _______ _______ _______ _____ _____    ______ ____
ROOT
ATOM      1  C   UNL     1       3.802   6.230  17.872  0.00  0.00    +0.000 A 
ATOM      2  N   UNL     1       3.060   7.392  17.967  0.00  0.00    +0.000 N 
ATOM      3  C   UNL     1       2.284   7.722  19.079  0.00  0.00    +0.000 A 
ATOM      4  C   UNL     1       1.650   8.966  19.218  0.00  0.00    +0.000 A 
ATOM      5 BR   UNL     1       1.829  10.304  17.882  0.00  0.00    +0.000 Br
ATOM      6  C   UNL     1       0.870   9.252  20.342  0.00  0.00    +0.000 A 
ATOM      7  C   UNL     1       0.699   8.286  21.334  0.00  0.00    +0.000 A 
ATOM      8  C   UNL     1       1.287   7.030  21.189  0.00  0.00    +0.000 A 
ATOM      9  C   UNL     1       2.070   6.755  20.060  0.00  0.00    +0.000 A 
ATOM     10  C   UNL     1       2.668   5.413  19.860  0.00  0.00    +0.000 A 
ATOM     11  O   UNL     1       2.319   4.496  20.597  0.00  0.00    +0.000 OA
ATOM     12  C   UNL     1       3.670   5.210  18.760  0.00  0.00    +0.000 A 
ATOM     13  H   UNL     1       3.351   8.145  17.351  0.00  0.00    +0.000 HD
ENDROOT
BRANCH  12  14
ATOM     14  C   UNL     1       4.432   3.911  18.682  0.00  0.00    +0.000 C 
ATOM     15  C   UNL     1       3.880   2.761  17.875  0.00  0.00    +0.000 C 
ATOM     16  O   UNL     1       5.522   3.764  19.233  0.00  0.00    +0.000 OA
ENDBRANCH  12  14
BRANCH   1  18
ATOM     17  C   UNL     1       6.401   6.861  17.415  0.00  0.00    +0.000 C 
ATOM     18  S   UNL     1       4.958   6.196  16.541  0.00  0.00    +0.000 S 
ENDBRANCH   1  18
TORSDOF 2
ENDMDL
MODEL 6
REMARK VINA RESULT:      -5.7      3.778      5.246
REMARK  Name = 
REMARK  4 active torsions:
REMARK  status: ('A' for Active; 'I' for Inactive)
REMARK    1  A    between atoms: C_1  and  S_2
REMARK    2  A    between atoms: S_2  and  C_3
REMARK    3  A    between atoms: C_14  and  C_15
REMARK    4  A    between atoms: C_15  and  C_16
REMARK                            x       y       z     vdW  Elec       q    Type
REMARK                         _______ _______ _______ _____ _____    ______ ____
ROOT
ATOM      1  C   UNL     1       5.818   4.773  18.230  0.00  0.00    +0.000 A 
ATOM      2  N   UNL     1       5.341   3.843  19.134  0.00  0.00    +0.000 N 
ATOM      3  C   UNL     1       3.984   3.633  19.380  0.00  0.00    +0.000 A 
ATOM      4  C   UNL     1       3.513   2.592  20.194  0.00  0.00    +0.000 A 
ATOM      5 BR   UNL     1       4.720   1.373  21.010  0.00  0.00    +0.000 Br
ATOM      6  C   UNL     1       2.145   2.425  20.426  0.00  0.00    +0.000 A 
ATOM      7  C   UNL     1       1.230   3.313  19.860  0.00  0.00    +0.000 A 
ATOM      8  C   UNL     1       1.685   4.378  19.084  0.00  0.00    +0.000 A 
ATOM      9  C   UNL     1       3.058   4.535  18.855  0.00  0.00    +0.000 A 
ATOM     10  C   UNL     1       3.571   5.684  18.072  0.00  0.00    +0.000 A 
ATOM     11  O   UNL     1       2.798   6.595  17.786  0.00  0.00    +0.000 OA
ATOM     12  C   UNL     1       5.016   5.712  17.663  0.00  0.00    +0.000 A 
ATOM     13  H   UNL     1       5.987   3.095  19.369  0.00  0.00    +0.000 HD
ENDROOT
BRANCH  12  14
ATOM     14  C   UNL     1       5.492   6.767  16.697  0.00  0.00    +0.000 C 
ATOM     15  C   UNL     1       5.120   6.674  15.237  0.00  0.00    +0.000 C 
ATOM     16  O   UNL     1       6.154   7.735  17.068  0.00  0.00    +0.000 OA
ENDBRANCH  12  14
BRANCH   1  18
ATOM     17  C   UNL     1       8.205   5.692  19.135  0.00  0.00    +0.000 C 
ATOM     18  S   UNL     1       7.530   4.617  17.840  0.00  0.00    +0.000 S 
ENDBRANCH   1  18
TORSDOF 2
ENDMDL
MODEL 7
REMARK VINA RESULT:      -5.7      3.745      5.313
REMARK  Name = 
REMARK  4 active torsions:
REMARK  status: ('A' for Active; 'I' for Inactive)
REMARK    1  A    between atoms: C_1  and  S_2
REMARK    2  A    between atoms: S_2  and  C_3
REMARK    3  A    between atoms: C_14  and  C_15
REMARK    4  A    between atoms: C_15  and  C_16
REMARK                            x       y       z     vdW  Elec       q    Type
REMARK                         _______ _______ _______ _____ _____    ______ ____
ROOT
ATOM      1  C   UNL     1       5.926   4.808  18.154  0.00  0.00    +0.000 A 
ATOM      2  N   UNL     1       5.472   3.851  19.042  0.00  0.00    +0.000 N 
ATOM      3  C   UNL     1       4.153   3.784  19.494  0.00  0.00    +0.000 A 
ATOM      4  C   UNL     1       3.675   2.727  20.284  0.00  0.00    +0.000 A 
ATOM      5 BR   UNL     1       4.815   1.290  20.778  0.00  0.00    +0.000 Br
ATOM      6  C   UNL     1       2.351   2.704  20.727  0.00  0.00    +0.000 A 
ATOM      7  C   UNL     1       1.490   3.753  20.401  0.00  0.00    +0.000 A 
ATOM      8  C   UNL     1       1.962   4.831  19.654  0.00  0.00    +0.000 A 
ATOM      9  C   UNL     1       3.291   4.843  19.211  0.00  0.00    +0.000 A 
ATOM     10  C   UNL     1       3.830   5.998  18.455  0.00  0.00    +0.000 A 
ATOM     11  O   UNL     1       3.155   7.021  18.381  0.00  0.00    +0.000 OA
ATOM     12  C   UNL     1       5.184   5.892  17.813  0.00  0.00    +0.000 A 
ATOM     13  H   UNL     1       6.037   3.009  19.102  0.00  0.00    +0.000 HD
ENDROOT
BRANCH  12  14
ATOM     14  C   UNL     1       5.645   6.978  16.874  0.00  0.00    +0.000 C 
ATOM     15  C   UNL     1       6.735   7.931  17.304  0.00  0.00    +0.000 C 
ATOM     16  O   UNL     1       5.185   7.096  15.740  0.00  0.00    +0.000 OA
ENDBRANCH  12  14
BRANCH   1  18
ATOM     17  C   UNL     1       7.018   4.112  15.769  0.00  0.00    +0.000 C 
ATOM     18  S   UNL     1       7.520   4.486  17.471  0.00  0.00    +0.000 S 
ENDBRANCH   1  18
TORSDOF 2
ENDMDL
MODEL 8
REMARK VINA RESULT:      -5.6      3.111      4.882
REMARK  Name = 
REMARK  4 active torsions:
REMARK  status: ('A' for Active; 'I' for Inactive)
REMARK    1  A    between atoms: C_1  and  S_2
REMARK    2  A    between atoms: S_2  and  C_3
REMARK    3  A    between atoms: C_14  and  C_15
REMARK    4  A    between atoms: C_15  and  C_16
REMARK                            x       y       z     vdW  Elec       q    Type
REMARK                         _______ _______ _______ _____ _____    ______ ____
ROOT
ATOM      1  C   UNL     1       3.419   4.922  19.222  0.00  0.00    +0.000 A 
ATOM      2  N   UNL     1       4.496   5.560  18.638  0.00  0.00    +0.000 N 
ATOM      3  C   UNL     1       5.151   5.081  17.502  0.00  0.00    +0.000 A 
ATOM      4  C   UNL     1       6.150   5.810  16.839  0.00  0.00    +0.000 A 
ATOM      5 BR   UNL     1       6.667   7.532  17.453  0.00  0.00    +0.000 Br
ATOM      6  C   UNL     1       6.792   5.289  15.713  0.00  0.00    +0.000 A 
ATOM      7  C   UNL     1       6.453   4.019  15.245  0.00  0.00    +0.000 A 
ATOM      8  C   UNL     1       5.493   3.264  15.918  0.00  0.00    +0.000 A 
ATOM      9  C   UNL     1       4.853   3.798  17.045  0.00  0.00    +0.000 A 
ATOM     10  C   UNL     1       3.863   2.999  17.804  0.00  0.00    +0.000 A 
ATOM     11  O   UNL     1       3.745   1.804  17.547  0.00  0.00    +0.000 OA
ATOM     12  C   UNL     1       3.041   3.665  18.872  0.00  0.00    +0.000 A 
ATOM     13  H   UNL     1       4.590   6.547  18.858  0.00  0.00    +0.000 HD
ENDROOT
BRANCH  12  14
ATOM     14  C   UNL     1       1.895   2.914  19.501  0.00  0.00    +0.000 C 
ATOM     15  C   UNL     1       0.605   2.732  18.737  0.00  0.00    +0.000 C 
ATOM     16  O   UNL     1       1.985   2.407  20.617  0.00  0.00    +0.000 OA
ENDBRANCH  12  14
BRANCH   1  18
ATOM     17  C   UNL     1       2.291   7.381  19.436  0.00  0.00    +0.000 C 
ATOM     18  S   UNL     1       2.551   5.881  20.421  0.00  0.00    +0.000 S 
ENDBRANCH   1  18
TORSDOF 2
ENDMDL
MODEL 9
REMARK VINA RESULT:      -5.6      2.468      3.323
REMARK  Name = 
REMARK  4 active torsions:
REMARK  status: ('A' for Active; 'I' for Inactive)
REMARK    1  A    between atoms: C_1  and  S_2
REMARK    2  A    between atoms: S_2  and  C_3
REMARK    3  A    between atoms: C_14  and  C_15
REMARK    4  A    between atoms: C_15  and  C_16
REMARK                            x       y       z     vdW  Elec       q    Type
REMARK                         _______ _______ _______ _____ _____    ______ ____
ROOT
ATOM      1  C   UNL     1       3.806   4.842  18.185  0.00  0.00    +0.000 A 
ATOM      2  N   UNL     1       3.253   6.104  18.084  0.00  0.00    +0.000 N 
ATOM      3  C   UNL     1       2.522   6.709  19.107  0.00  0.00    +0.000 A 
ATOM      4  C   UNL     1       2.088   8.042  19.043  0.00  0.00    +0.000 A 
ATOM      5 BR   UNL     1       2.494   9.126  17.537  0.00  0.00    +0.000 Br
ATOM      6  C   UNL     1       1.345   8.606  20.084  0.00  0.00    +0.000 A 
ATOM      7  C   UNL     1       1.011   7.834  21.197  0.00  0.00    +0.000 A 
ATOM      8  C   UNL     1       1.398   6.496  21.256  0.00  0.00    +0.000 A 
ATOM      9  C   UNL     1       2.145   5.941  20.208  0.00  0.00    +0.000 A 
ATOM     10  C   UNL     1       2.529   4.510  20.225  0.00  0.00    +0.000 A 
ATOM     11  O   UNL     1       2.030   3.774  21.072  0.00  0.00    +0.000 OA
ATOM     12  C   UNL     1       3.503   3.996  19.204  0.00  0.00    +0.000 A 
ATOM     13  H   UNL     1       3.668   6.706  17.378  0.00  0.00    +0.000 HD
ENDROOT
BRANCH  12  14
ATOM     14  C   UNL     1       4.054   2.600  19.342  0.00  0.00    +0.000 C 
ATOM     15  C   UNL     1       3.487   1.480  18.503  0.00  0.00    +0.000 C 
ATOM     16  O   UNL     1       4.988   2.342  20.100  0.00  0.00    +0.000 OA
ENDBRANCH  12  14
BRANCH   1  18
ATOM     17  C   UNL     1       6.489   4.898  17.781  0.00  0.00    +0.000 C 
ATOM     18  S   UNL     1       4.963   4.437  16.917  0.00  0.00    +0.000 S 
ENDBRANCH   1  18
TORSDOF 2
ENDMDL
