MODEL 1
REMARK VINA RESULT:      -6.0      0.000      0.000
REMARK  Name = 
REMARK  11 active torsions:
REMARK  status: ('A' for Active; 'I' for Inactive)
REMARK    1  A    between atoms: C_1  and  C_2
REMARK    2  A    between atoms: C_2  and  C_14
REMARK    3  A    between atoms: C_3  and  C_4
REMARK    4  A    between atoms: C_4  and  C_5
REMARK    5  A    between atoms: C_5  and  P_6
REMARK    6  A    between atoms: P_6  and  O_8
REMARK    7  A    between atoms: P_6  and  O_9
REMARK    8  A    between atoms: O_9  and  P_10
REMARK    9  A    between atoms: P_10  and  O_12
REMARK   10  A    between atoms: P_10  and  O_13
REMARK   11  A    between atoms: C_14  and  O_15
REMARK                            x       y       z     vdW  Elec       q    Type
REMARK                         _______ _______ _______ _____ _____    ______ ____
ROOT
ATOM      1  P   UNL     1       6.796   5.151  15.674  0.00  0.00    +0.000 P 
ATOM      2  O   UNL     1       7.865   5.409  14.612  0.00  0.00    +0.000 OA
ENDROOT
BRANCH   1   3
ATOM      3  O   UNL     1       5.549   6.148  15.333  0.00  0.00    +0.000 OA
ATOM      4  H   UNL     1       4.948   5.735  14.669  0.00  0.00    +0.000 HD
ENDBRANCH   1   3
BRANCH   1   5
ATOM      5  C   UNL     1       6.069   3.877  14.580  0.00  0.00    +0.000 C 
BRANCH   5   6
ATOM      6  C   UNL     1       6.402   4.171  13.119  0.00  0.00    +0.000 C 
BRANCH   6   9
ATOM      7  C   UNL     1       4.175   3.051  11.285  0.00  0.00    +0.000 C 
ATOM      8  C   UNL     1       5.513   2.405  11.503  0.00  0.00    +0.000 C 
ATOM      9  C   UNL     1       6.487   2.917  12.303  0.00  0.00    +0.000 C 
BRANCH   8  10
ATOM     10  C   UNL     1       5.741   1.149  10.710  0.00  0.00    +0.000 C 
BRANCH  10  11
ATOM     11  O   UNL     1       6.347   0.163  11.537  0.00  0.00    +0.000 OA
ATOM     12  H   UNL     1       5.641  -0.470  11.759  0.00  0.00    +0.000 HD
ENDBRANCH  10  11
ENDBRANCH   8  10
ENDBRANCH   6   9
ENDBRANCH   5   6
ENDBRANCH   1   5
BRANCH   1  13
ATOM     13  O   UNL     1       7.485   6.355  16.708  0.00  0.00    +0.000 OA
BRANCH  13  14
ATOM     14  P   UNL     1       7.352   5.844  18.355  0.00  0.00    +0.000 P 
ATOM     15  O   UNL     1       5.827   5.911  18.335  0.00  0.00    +0.000 OA
BRANCH  14  16
ATOM     16  O   UNL     1       7.746   4.317  17.942  0.00  0.00    +0.000 OA
ATOM     17  H   UNL     1       8.679   4.086  18.078  0.00  0.00    +0.000 HD
ENDBRANCH  14  16
BRANCH  14  18
ATOM     18  O   UNL     1       7.219   5.333  20.003  0.00  0.00    +0.000 OA
ATOM     19  H   UNL     1       6.467   4.703  19.941  0.00  0.00    +0.000 HD
ENDBRANCH  14  18
ENDBRANCH  13  14
ENDBRANCH   1  13
TORSDOF 10
ENDMDL
MODEL 2
REMARK VINA RESULT:      -5.8      4.966      6.518
REMARK  Name = 
REMARK  11 active torsions:
REMARK  status: ('A' for Active; 'I' for Inactive)
REMARK    1  A    between atoms: C_1  and  C_2
REMARK    2  A    between atoms: C_2  and  C_14
REMARK    3  A    between atoms: C_3  and  C_4
REMARK    4  A    between atoms: C_4  and  C_5
REMARK    5  A    between atoms: C_5  and  P_6
REMARK    6  A    between atoms: P_6  and  O_8
REMARK    7  A    between atoms: P_6  and  O_9
REMARK    8  A    between atoms: O_9  and  P_10
REMARK    9  A    between atoms: P_10  and  O_12
REMARK   10  A    between atoms: P_10  and  O_13
REMARK   11  A    between atoms: C_14  and  O_15
REMARK                            x       y       z     vdW  Elec       q    Type
REMARK                         _______ _______ _______ _____ _____    ______ ____
ROOT
ATOM      1  P   UNL     1       4.557   5.675  18.051  0.00  0.00    +0.000 P 
ATOM      2  O   UNL     1       4.321   4.485  17.120  0.00  0.00    +0.000 OA
ENDROOT
BRANCH   1   3
ATOM      3  O   UNL     1       4.861   6.963  17.095  0.00  0.00    +0.000 OA
ATOM      4  H   UNL     1       4.287   7.724  17.346  0.00  0.00    +0.000 HD
ENDBRANCH   1   3
BRANCH   1   5
ATOM      5  C   UNL     1       2.767   6.046  17.970  0.00  0.00    +0.000 C 
BRANCH   5   6
ATOM      6  C   UNL     1       1.950   4.756  17.970  0.00  0.00    +0.000 C 
BRANCH   6   9
ATOM      7  C   UNL     1       2.466   1.941  19.147  0.00  0.00    +0.000 C 
ATOM      8  C   UNL     1       1.817   3.075  19.887  0.00  0.00    +0.000 C 
ATOM      9  C   UNL     1       1.609   4.312  19.360  0.00  0.00    +0.000 C 
BRANCH   8  10
ATOM     10  C   UNL     1       1.454   2.769  21.313  0.00  0.00    +0.000 C 
BRANCH  10  11
ATOM     11  O   UNL     1       2.636   2.545  22.072  0.00  0.00    +0.000 OA
ATOM     12  H   UNL     1       2.925   3.422  22.382  0.00  0.00    +0.000 HD
ENDBRANCH  10  11
ENDBRANCH   8  10
ENDBRANCH   6   9
ENDBRANCH   5   6
ENDBRANCH   1   5
BRANCH   1  13
ATOM     13  O   UNL     1       6.249   5.323  18.128  0.00  0.00    +0.000 OA
BRANCH  13  14
ATOM     14  P   UNL     1       6.905   5.287  16.528  0.00  0.00    +0.000 P 
ATOM     15  O   UNL     1       7.609   6.631  16.702  0.00  0.00    +0.000 OA
BRANCH  14  16
ATOM     16  O   UNL     1       7.986   4.148  16.966  0.00  0.00    +0.000 OA
ATOM     17  H   UNL     1       7.962   3.337  16.432  0.00  0.00    +0.000 HD
ENDBRANCH  14  16
BRANCH  14  18
ATOM     18  O   UNL     1       7.561   5.252  14.927  0.00  0.00    +0.000 OA
ATOM     19  H   UNL     1       7.821   4.307  14.854  0.00  0.00    +0.000 HD
ENDBRANCH  14  18
ENDBRANCH  13  14
ENDBRANCH   1  13
TORSDOF 10
ENDMDL
MODEL 3
REMARK VINA RESULT:      -5.7      4.411      6.780
REMARK  Name = 
REMARK  11 active torsions:
REMARK  status: ('A' for Active; 'I' for Inactive)
REMARK    1  A    between atoms: C_1  and  C_2
REMARK    2  A    between atoms: C_2  and  C_14
REMARK    3  A    between atoms: C_3  and  C_4
REMARK    4  A    between atoms: C_4  and  C_5
REMARK    5  A    between atoms: C_5  and  P_6
REMARK    6  A    between atoms: P_6  and  O_8
REMARK    7  A    between atoms: P_6  and  O_9
REMARK    8  A    between atoms: O_9  and  P_10
REMARK    9  A    between atoms: P_10  and  O_12
REMARK   10  A    between atoms: P_10  and  O_13
REMARK   11  A    between atoms: C_14  and  O_15
REMARK                            x       y       z     vdW  Elec       q    Type
REMARK                         _______ _______ _______ _____ _____    ______ ____
ROOT
ATOM      1  P   UNL     1       4.695   4.129  17.699  0.00  0.00    +0.000 P 
ATOM      2  O   UNL     1       5.422   3.755  18.990  0.00  0.00    +0.000 OA
ENDROOT
BRANCH   1   3
ATOM      3  O   UNL     1       5.521   3.430  16.477  0.00  0.00    +0.000 OA
ATOM      4  H   UNL     1       5.107   3.648  15.609  0.00  0.00    +0.000 HD
ENDBRANCH   1   3
BRANCH   1   5
ATOM      5  C   UNL     1       3.683   2.615  17.872  0.00  0.00    +0.000 C 
BRANCH   5   6
ATOM      6  C   UNL     1       2.204   2.970  18.010  0.00  0.00    +0.000 C 
BRANCH   6   9
ATOM      7  C   UNL     1       1.457   3.257  20.998  0.00  0.00    +0.000 C 
ATOM      8  C   UNL     1       1.665   4.404  20.052  0.00  0.00    +0.000 C 
ATOM      9  C   UNL     1       2.006   4.262  18.743  0.00  0.00    +0.000 C 
BRANCH   8  10
ATOM     10  C   UNL     1       1.528   5.765  20.674  0.00  0.00    +0.000 C 
BRANCH  10  11
ATOM     11  O   UNL     1       2.638   6.575  20.307  0.00  0.00    +0.000 OA
ATOM     12  H   UNL     1       2.273   7.307  19.779  0.00  0.00    +0.000 HD
ENDBRANCH  10  11
ENDBRANCH   8  10
ENDBRANCH   6   9
ENDBRANCH   5   6
ENDBRANCH   1   5
BRANCH   1  13
ATOM     13  O   UNL     1       5.651   5.562  17.536  0.00  0.00    +0.000 OA
BRANCH  13  14
ATOM     14  P   UNL     1       6.641   5.437  16.123  0.00  0.00    +0.000 P 
ATOM     15  O   UNL     1       5.596   6.110  15.235  0.00  0.00    +0.000 OA
BRANCH  14  16
ATOM     16  O   UNL     1       7.612   6.630  16.664  0.00  0.00    +0.000 OA
ATOM     17  H   UNL     1       8.257   6.357  17.337  0.00  0.00    +0.000 HD
ENDBRANCH  14  16
BRANCH  14  18
ATOM     18  O   UNL     1       7.631   5.313  14.710  0.00  0.00    +0.000 OA
ATOM     19  H   UNL     1       7.072   4.736  14.142  0.00  0.00    +0.000 HD
ENDBRANCH  14  18
ENDBRANCH  13  14
ENDBRANCH   1  13
TORSDOF 10
ENDMDL
MODEL 4
REMARK VINA RESULT:      -5.7      5.088      6.944
REMARK  Name = 
REMARK  11 active torsions:
REMARK  status: ('A' for Active; 'I' for Inactive)
REMARK    1  A    between atoms: C_1  and  C_2
REMARK    2  A    between atoms: C_2  and  C_14
REMARK    3  A    between atoms: C_3  and  C_4
REMARK    4  A    between atoms: C_4  and  C_5
REMARK    5  A    between atoms: C_5  and  P_6
REMARK    6  A    between atoms: P_6  and  O_8
REMARK    7  A    between atoms: P_6  and  O_9
REMARK    8  A    between atoms: O_9  and  P_10
REMARK    9  A    between atoms: P_10  and  O_12
REMARK   10  A    between atoms: P_10  and  O_13
REMARK   11  A    between atoms: C_14  and  O_15
REMARK                            x       y       z     vdW  Elec       q    Type
REMARK                         _______ _______ _______ _____ _____    ______ ____
ROOT
ATOM      1  P   UNL     1       4.371   4.913  18.243  0.00  0.00    +0.000 P 
ATOM      2  O   UNL     1       3.813   3.593  17.712  0.00  0.00    +0.000 OA
ENDROOT
BRANCH   1   3
ATOM      3  O   UNL     1       4.703   5.838  16.939  0.00  0.00    +0.000 OA
ATOM      4  H   UNL     1       3.999   5.738  16.255  0.00  0.00    +0.000 HD
ENDBRANCH   1   3
BRANCH   1   5
ATOM      5  C   UNL     1       2.667   5.580  18.273  0.00  0.00    +0.000 C 
BRANCH   5   6
ATOM      6  C   UNL     1       2.300   6.051  19.678  0.00  0.00    +0.000 C 
BRANCH   6   9
ATOM      7  C   UNL     1       0.596   3.468  19.727  0.00  0.00    +0.000 C 
ATOM      8  C   UNL     1       1.662   3.813  20.727  0.00  0.00    +0.000 C 
ATOM      9  C   UNL     1       2.412   4.947  20.685  0.00  0.00    +0.000 C 
BRANCH   8  10
ATOM     10  C   UNL     1       1.900   2.765  21.778  0.00  0.00    +0.000 C 
BRANCH  10  11
ATOM     11  O   UNL     1       3.243   2.303  21.701  0.00  0.00    +0.000 OA
ATOM     12  H   UNL     1       3.793   3.017  22.072  0.00  0.00    +0.000 HD
ENDBRANCH  10  11
ENDBRANCH   8  10
ENDBRANCH   6   9
ENDBRANCH   5   6
ENDBRANCH   1   5
BRANCH   1  13
ATOM     13  O   UNL     1       5.982   4.283  18.216  0.00  0.00    +0.000 OA
BRANCH  13  14
ATOM     14  P   UNL     1       6.762   4.756  16.747  0.00  0.00    +0.000 P 
ATOM     15  O   UNL     1       8.130   4.271  17.224  0.00  0.00    +0.000 OA
BRANCH  14  16
ATOM     16  O   UNL     1       6.088   3.501  15.952  0.00  0.00    +0.000 OA
ATOM     17  H   UNL     1       6.658   2.720  15.867  0.00  0.00    +0.000 HD
ENDBRANCH  14  16
BRANCH  14  18
ATOM     18  O   UNL     1       7.543   5.229  15.277  0.00  0.00    +0.000 OA
ATOM     19  H   UNL     1       6.909   4.882  14.610  0.00  0.00    +0.000 HD
ENDBRANCH  14  18
ENDBRANCH  13  14
ENDBRANCH   1  13
TORSDOF 10
ENDMDL
MODEL 5
REMARK VINA RESULT:      -5.7      5.318      6.700
REMARK  Name = 
REMARK  11 active torsions:
REMARK  status: ('A' for Active; 'I' for Inactive)
REMARK    1  A    between atoms: C_1  and  C_2
REMARK    2  A    between atoms: C_2  and  C_14
REMARK    3  A    between atoms: C_3  and  C_4
REMARK    4  A    between atoms: C_4  and  C_5
REMARK    5  A    between atoms: C_5  and  P_6
REMARK    6  A    between atoms: P_6  and  O_8
REMARK    7  A    between atoms: P_6  and  O_9
REMARK    8  A    between atoms: O_9  and  P_10
REMARK    9  A    between atoms: P_10  and  O_12
REMARK   10  A    between atoms: P_10  and  O_13
REMARK   11  A    between atoms: C_14  and  O_15
REMARK                            x       y       z     vdW  Elec       q    Type
REMARK                         _______ _______ _______ _____ _____    ______ ____
ROOT
ATOM      1  P   UNL     1       4.445   6.138  17.487  0.00  0.00    +0.000 P 
ATOM      2  O   UNL     1       5.407   5.745  18.608  0.00  0.00    +0.000 OA
ENDROOT
BRANCH   1   3
ATOM      3  O   UNL     1       3.703   4.766  17.005  0.00  0.00    +0.000 OA
ATOM      4  H   UNL     1       4.344   4.017  16.977  0.00  0.00    +0.000 HD
ENDBRANCH   1   3
BRANCH   1   5
ATOM      5  C   UNL     1       3.141   6.394  18.745  0.00  0.00    +0.000 C 
BRANCH   5   6
ATOM      6  C   UNL     1       2.080   5.300  18.648  0.00  0.00    +0.000 C 
BRANCH   6   9
ATOM      7  C   UNL     1       0.862   2.474  18.975  0.00  0.00    +0.000 C 
ATOM      8  C   UNL     1       1.379   3.321  20.101  0.00  0.00    +0.000 C 
ATOM      9  C   UNL     1       1.924   4.557  19.941  0.00  0.00    +0.000 C 
BRANCH   8  10
ATOM     10  C   UNL     1       1.311   2.675  21.456  0.00  0.00    +0.000 C 
BRANCH  10  11
ATOM     11  O   UNL     1       2.446   3.052  22.226  0.00  0.00    +0.000 OA
ATOM     12  H   UNL     1       3.130   2.384  22.039  0.00  0.00    +0.000 HD
ENDBRANCH  10  11
ENDBRANCH   8  10
ENDBRANCH   6   9
ENDBRANCH   5   6
ENDBRANCH   1   5
BRANCH   1  13
ATOM     13  O   UNL     1       5.679   5.898  16.298  0.00  0.00    +0.000 OA
BRANCH  13  14
ATOM     14  P   UNL     1       6.970   4.975  16.985  0.00  0.00    +0.000 P 
ATOM     15  O   UNL     1       7.511   4.566  15.616  0.00  0.00    +0.000 OA
BRANCH  14  16
ATOM     16  O   UNL     1       7.762   6.339  17.397  0.00  0.00    +0.000 OA
ATOM     17  H   UNL     1       7.321   7.162  17.133  0.00  0.00    +0.000 HD
ENDBRANCH  14  16
BRANCH  14  18
ATOM     18  O   UNL     1       8.262   4.051  17.671  0.00  0.00    +0.000 OA
ATOM     19  H   UNL     1       8.929   4.756  17.832  0.00  0.00    +0.000 HD
ENDBRANCH  14  18
ENDBRANCH  13  14
ENDBRANCH   1  13
TORSDOF 10
ENDMDL
MODEL 6
REMARK VINA RESULT:      -5.7      4.800      6.803
REMARK  Name = 
REMARK  11 active torsions:
REMARK  status: ('A' for Active; 'I' for Inactive)
REMARK    1  A    between atoms: C_1  and  C_2
REMARK    2  A    between atoms: C_2  and  C_14
REMARK    3  A    between atoms: C_3  and  C_4
REMARK    4  A    between atoms: C_4  and  C_5
REMARK    5  A    between atoms: C_5  and  P_6
REMARK    6  A    between atoms: P_6  and  O_8
REMARK    7  A    between atoms: P_6  and  O_9
REMARK    8  A    between atoms: O_9  and  P_10
REMARK    9  A    between atoms: P_10  and  O_12
REMARK   10  A    between atoms: P_10  and  O_13
REMARK   11  A    between atoms: C_14  and  O_15
REMARK                            x       y       z     vdW  Elec       q    Type
REMARK                         _______ _______ _______ _____ _____    ______ ____
ROOT
ATOM      1  P   UNL     1       4.054   4.579  17.151  0.00  0.00    +0.000 P 
ATOM      2  O   UNL     1       3.058   5.645  17.606  0.00  0.00    +0.000 OA
ENDROOT
BRANCH   1   3
ATOM      3  O   UNL     1       4.611   3.853  18.503  0.00  0.00    +0.000 OA
ATOM      4  H   UNL     1       4.368   4.376  19.303  0.00  0.00    +0.000 HD
ENDBRANCH   1   3
BRANCH   1   5
ATOM      5  C   UNL     1       2.678   3.375  17.079  0.00  0.00    +0.000 C 
BRANCH   5   6
ATOM      6  C   UNL     1       1.498   3.858  17.919  0.00  0.00    +0.000 C 
BRANCH   6   9
ATOM      7  C   UNL     1       1.662   5.168  20.718  0.00  0.00    +0.000 C 
ATOM      8  C   UNL     1       1.497   3.697  20.467  0.00  0.00    +0.000 C 
ATOM      9  C   UNL     1       1.414   3.137  19.230  0.00  0.00    +0.000 C 
BRANCH   8  10
ATOM     10  C   UNL     1       1.364   2.859  21.708  0.00  0.00    +0.000 C 
BRANCH  10  11
ATOM     11  O   UNL     1       2.650   2.424  22.133  0.00  0.00    +0.000 OA
ATOM     12  H   UNL     1       3.292   2.913  21.588  0.00  0.00    +0.000 HD
ENDBRANCH  10  11
ENDBRANCH   8  10
ENDBRANCH   6   9
ENDBRANCH   5   6
ENDBRANCH   1   5
BRANCH   1  13
ATOM     13  O   UNL     1       5.355   5.718  17.218  0.00  0.00    +0.000 OA
BRANCH  13  14
ATOM     14  P   UNL     1       6.845   4.878  17.474  0.00  0.00    +0.000 P 
ATOM     15  O   UNL     1       7.610   5.779  16.506  0.00  0.00    +0.000 OA
BRANCH  14  16
ATOM     16  O   UNL     1       7.006   5.556  18.948  0.00  0.00    +0.000 OA
ATOM     17  H   UNL     1       7.809   5.296  19.430  0.00  0.00    +0.000 HD
ENDBRANCH  14  16
BRANCH  14  18
ATOM     18  O   UNL     1       8.336   4.038  17.729  0.00  0.00    +0.000 OA
ATOM     19  H   UNL     1       8.516   3.700  16.823  0.00  0.00    +0.000 HD
ENDBRANCH  14  18
ENDBRANCH  13  14
ENDBRANCH   1  13
TORSDOF 10
ENDMDL
MODEL 7
REMARK VINA RESULT:      -5.6      4.854      7.007
REMARK  Name = 
REMARK  11 active torsions:
REMARK  status: ('A' for Active; 'I' for Inactive)
REMARK    1  A    between atoms: C_1  and  C_2
REMARK    2  A    between atoms: C_2  and  C_14
REMARK    3  A    between atoms: C_3  and  C_4
REMARK    4  A    between atoms: C_4  and  C_5
REMARK    5  A    between atoms: C_5  and  P_6
REMARK    6  A    between atoms: P_6  and  O_8
REMARK    7  A    between atoms: P_6  and  O_9
REMARK    8  A    between atoms: O_9  and  P_10
REMARK    9  A    between atoms: P_10  and  O_12
REMARK   10  A    between atoms: P_10  and  O_13
REMARK   11  A    between atoms: C_14  and  O_15
REMARK                            x       y       z     vdW  Elec       q    Type
REMARK                         _______ _______ _______ _____ _____    ______ ____
ROOT
ATOM      1  P   UNL     1       4.206   3.407  18.267  0.00  0.00    +0.000 P 
ATOM      2  O   UNL     1       4.972   2.931  19.501  0.00  0.00    +0.000 OA
ENDROOT
BRANCH   1   3
ATOM      3  O   UNL     1       5.090   2.965  16.968  0.00  0.00    +0.000 OA
ATOM      4  H   UNL     1       6.040   3.197  17.101  0.00  0.00    +0.000 HD
ENDBRANCH   1   3
BRANCH   1   5
ATOM      5  C   UNL     1       3.346   1.793  18.222  0.00  0.00    +0.000 C 
BRANCH   5   6
ATOM      6  C   UNL     1       1.903   1.940  18.699  0.00  0.00    +0.000 C 
BRANCH   6   9
ATOM      7  C   UNL     1       1.683   3.016  21.592  0.00  0.00    +0.000 C 
ATOM      8  C   UNL     1       1.471   3.837  20.352  0.00  0.00    +0.000 C 
ATOM      9  C   UNL     1       1.584   3.352  19.087  0.00  0.00    +0.000 C 
BRANCH   8  10
ATOM     10  C   UNL     1       1.176   5.289  20.603  0.00  0.00    +0.000 C 
BRANCH  10  11
ATOM     11  O   UNL     1       2.360   5.954  21.026  0.00  0.00    +0.000 OA
ATOM     12  H   UNL     1       2.315   6.849  20.645  0.00  0.00    +0.000 HD
ENDBRANCH  10  11
ENDBRANCH   8  10
ENDBRANCH   6   9
ENDBRANCH   5   6
ENDBRANCH   1   5
BRANCH   1  13
ATOM     13  O   UNL     1       5.018   4.934  18.310  0.00  0.00    +0.000 OA
BRANCH  13  14
ATOM     14  P   UNL     1       6.310   4.933  17.161  0.00  0.00    +0.000 P 
ATOM     15  O   UNL     1       6.523   6.441  17.281  0.00  0.00    +0.000 OA
BRANCH  14  16
ATOM     16  O   UNL     1       7.313   4.245  18.247  0.00  0.00    +0.000 OA
ATOM     17  H   UNL     1       6.970   3.437  18.663  0.00  0.00    +0.000 HD
ENDBRANCH  14  16
BRANCH  14  18
ATOM     18  O   UNL     1       7.603   4.933  16.011  0.00  0.00    +0.000 OA
ATOM     19  H   UNL     1       7.432   4.086  15.540  0.00  0.00    +0.000 HD
ENDBRANCH  14  18
ENDBRANCH  13  14
ENDBRANCH   1  13
TORSDOF 10
ENDMDL
MODEL 8
REMARK VINA RESULT:      -5.6      4.279      6.018
REMARK  Name = 
REMARK  11 active torsions:
REMARK  status: ('A' for Active; 'I' for Inactive)
REMARK    1  A    between atoms: C_1  and  C_2
REMARK    2  A    between atoms: C_2  and  C_14
REMARK    3  A    between atoms: C_3  and  C_4
REMARK    4  A    between atoms: C_4  and  C_5
REMARK    5  A    between atoms: C_5  and  P_6
REMARK    6  A    between atoms: P_6  and  O_8
REMARK    7  A    between atoms: P_6  and  O_9
REMARK    8  A    between atoms: O_9  and  P_10
REMARK    9  A    between atoms: P_10  and  O_12
REMARK   10  A    between atoms: P_10  and  O_13
REMARK   11  A    between atoms: C_14  and  O_15
REMARK                            x       y       z     vdW  Elec       q    Type
REMARK                         _______ _______ _______ _____ _____    ______ ____
ROOT
ATOM      1  P   UNL     1       5.325   5.140  17.303  0.00  0.00    +0.000 P 
ATOM      2  O   UNL     1       6.058   4.237  16.312  0.00  0.00    +0.000 OA
ENDROOT
BRANCH   1   3
ATOM      3  O   UNL     1       4.610   6.316  16.424  0.00  0.00    +0.000 OA
ATOM      4  H   UNL     1       3.665   6.093  16.252  0.00  0.00    +0.000 HD
ENDBRANCH   1   3
BRANCH   1   5
ATOM      5  C   UNL     1       3.837   4.094  17.100  0.00  0.00    +0.000 C 
BRANCH   5   6
ATOM      6  C   UNL     1       3.860   2.930  18.088  0.00  0.00    +0.000 C 
BRANCH   6   9
ATOM      7  C   UNL     1       0.900   2.443  18.844  0.00  0.00    +0.000 C 
ATOM      8  C   UNL     1       1.916   3.096  19.735  0.00  0.00    +0.000 C 
ATOM      9  C   UNL     1       3.218   3.292  19.393  0.00  0.00    +0.000 C 
BRANCH   8  10
ATOM     10  C   UNL     1       1.406   3.479  21.095  0.00  0.00    +0.000 C 
BRANCH  10  11
ATOM     11  O   UNL     1       1.810   2.506  22.051  0.00  0.00    +0.000 OA
ATOM     12  H   UNL     1       1.142   1.798  22.010  0.00  0.00    +0.000 HD
ENDBRANCH  10  11
ENDBRANCH   8  10
ENDBRANCH   6   9
ENDBRANCH   5   6
ENDBRANCH   1   5
BRANCH   1  13
ATOM     13  O   UNL     1       6.732   6.128  17.497  0.00  0.00    +0.000 OA
BRANCH  13  14
ATOM     14  P   UNL     1       7.491   5.761  19.006  0.00  0.00    +0.000 P 
ATOM     15  O   UNL     1       6.171   5.365  19.664  0.00  0.00    +0.000 OA
BRANCH  14  16
ATOM     16  O   UNL     1       8.120   4.390  18.388  0.00  0.00    +0.000 OA
ATOM     17  H   UNL     1       9.072   4.273  18.541  0.00  0.00    +0.000 HD
ENDBRANCH  14  16
BRANCH  14  18
ATOM     18  O   UNL     1       8.251   5.394  20.517  0.00  0.00    +0.000 OA
ATOM     19  H   UNL     1       8.805   4.622  20.263  0.00  0.00    +0.000 HD
ENDBRANCH  14  18
ENDBRANCH  13  14
ENDBRANCH   1  13
TORSDOF 10
ENDMDL
MODEL 9
REMARK VINA RESULT:      -5.6      4.860      6.128
REMARK  Name = 
REMARK  11 active torsions:
REMARK  status: ('A' for Active; 'I' for Inactive)
REMARK    1  A    between atoms: C_1  and  C_2
REMARK    2  A    between atoms: C_2  and  C_14
REMARK    3  A    between atoms: C_3  and  C_4
REMARK    4  A    between atoms: C_4  and  C_5
REMARK    5  A    between atoms: C_5  and  P_6
REMARK    6  A    between atoms: P_6  and  O_8
REMARK    7  A    between atoms: P_6  and  O_9
REMARK    8  A    between atoms: O_9  and  P_10
REMARK    9  A    between atoms: P_10  and  O_12
REMARK   10  A    between atoms: P_10  and  O_13
REMARK   11  A    between atoms: C_14  and  O_15
REMARK                            x       y       z     vdW  Elec       q    Type
REMARK                         _______ _______ _______ _____ _____    ______ ____
ROOT
ATOM      1  P   UNL     1       5.380   5.917  17.845  0.00  0.00    +0.000 P 
ATOM      2  O   UNL     1       6.348   5.434  18.926  0.00  0.00    +0.000 OA
ENDROOT
BRANCH   1   3
ATOM      3  O   UNL     1       4.902   4.591  17.021  0.00  0.00    +0.000 OA
ATOM      4  H   UNL     1       5.667   4.176  16.558  0.00  0.00    +0.000 HD
ENDBRANCH   1   3
BRANCH   1   5
ATOM      5  C   UNL     1       4.001   5.674  19.023  0.00  0.00    +0.000 C 
BRANCH   5   6
ATOM      6  C   UNL     1       2.659   5.741  18.299  0.00  0.00    +0.000 C 
BRANCH   6   9
ATOM      7  C   UNL     1       1.049   4.279  20.501  0.00  0.00    +0.000 C 
ATOM      8  C   UNL     1       1.327   3.728  19.132  0.00  0.00    +0.000 C 
ATOM      9  C   UNL     1       2.025   4.389  18.170  0.00  0.00    +0.000 C 
BRANCH   8  10
ATOM     10  C   UNL     1       0.714   2.384  18.859  0.00  0.00    +0.000 C 
BRANCH  10  11
ATOM     11  O   UNL     1       1.734   1.448  18.530  0.00  0.00    +0.000 OA
ATOM     12  H   UNL     1       1.739   0.794  19.252  0.00  0.00    +0.000 HD
ENDBRANCH  10  11
ENDBRANCH   8  10
ENDBRANCH   6   9
ENDBRANCH   5   6
ENDBRANCH   1   5
BRANCH   1  13
ATOM     13  O   UNL     1       6.684   6.147  16.732  0.00  0.00    +0.000 OA
BRANCH  13  14
ATOM     14  P   UNL     1       6.691   4.861  15.576  0.00  0.00    +0.000 P 
ATOM     15  O   UNL     1       7.592   5.627  14.610  0.00  0.00    +0.000 OA
BRANCH  14  16
ATOM     16  O   UNL     1       7.684   3.979  16.522  0.00  0.00    +0.000 OA
ATOM     17  H   UNL     1       8.487   3.657  16.080  0.00  0.00    +0.000 HD
ENDBRANCH  14  16
BRANCH  14  18
ATOM     18  O   UNL     1       6.698   3.574  14.420  0.00  0.00    +0.000 OA
ATOM     19  H   UNL     1       5.840   3.138  14.622  0.00  0.00    +0.000 HD
ENDBRANCH  14  18
ENDBRANCH  13  14
ENDBRANCH   1  13
TORSDOF 10
ENDMDL
