MODEL 1
REMARK VINA RESULT:      -8.3      0.000      0.000
REMARK  Name = 
REMARK  7 active torsions:
REMARK  status: ('A' for Active; 'I' for Inactive)
REMARK    1  A    between atoms: C_1  and  N_2
REMARK    2  A    between atoms: N_2  and  C_3
REMARK    3  A    between atoms: C_3  and  C_4
REMARK    4  A    between atoms: C_3  and  C_5
REMARK    5  A    between atoms: N_8  and  C_9
REMARK    6  A    between atoms: N_18  and  O_19
REMARK    7  A    between atoms: N_22  and  C_23
REMARK                            x       y       z     vdW  Elec       q    Type
REMARK                         _______ _______ _______ _____ _____    ______ ____
ROOT
ATOM      1  C   UNL     1       1.822   8.174  19.497  0.00  0.00    +0.000 A 
ATOM      2  C   UNL     1       2.176   6.893  19.968  0.00  0.00    +0.000 A 
ATOM      3  C   UNL     1       3.050   6.032  19.278  0.00  0.00    +0.000 A 
ATOM      4  C   UNL     1       3.606   6.486  18.085  0.00  0.00    +0.000 A 
ATOM      5  C   UNL     1       3.242   7.719  17.549  0.00  0.00    +0.000 A 
ATOM      6  C   UNL     1       2.352   8.533  18.243  0.00  0.00    +0.000 A 
ATOM      7  F   UNL     1       2.033   9.701  17.664  0.00  0.00    +0.000 F 
ATOM      8  C   UNL     1       4.617   5.668  17.399  0.00  0.00    +0.000 A 
ATOM      9  O   UNL     1       5.127   6.029  16.343  0.00  0.00    +0.000 OA
ATOM     10  N   UNL     1       4.962   4.504  18.043  0.00  0.00    +0.000 N 
ATOM     11  C   UNL     1       4.418   3.969  19.202  0.00  0.00    +0.000 A 
ATOM     12  O   UNL     1       4.804   2.906  19.693  0.00  0.00    +0.000 OA
ATOM     13  N   UNL     1       3.387   4.737  19.783  0.00  0.00    +0.000 N 
ENDROOT
BRANCH   1  17
ATOM     14  C   UNL     1      -0.632  10.612  20.920  0.00  0.00    +0.000 C 
ATOM     15  C   UNL     1      -0.267   9.691  22.087  0.00  0.00    +0.000 C 
ATOM     16  C   UNL     1       1.074   9.071  21.711  0.00  0.00    +0.000 C 
ATOM     17  N   UNL     1       1.030   9.009  20.258  0.00  0.00    +0.000 N 
ATOM     18  C   UNL     1       0.043   9.944  19.709  0.00  0.00    +0.000 C 
BRANCH  14  19
ATOM     19  C   UNL     1      -0.283  12.110  21.145  0.00  0.00    +0.000 C 
ATOM     20  C   UNL     1       0.980  12.477  20.350  0.00  0.00    +0.000 C 
BRANCH  19  22
ATOM     21  C   UNL     1      -1.289  13.179  23.114  0.00  0.00    +0.000 C 
ATOM     22  N   UNL     1      -0.152  12.450  22.568  0.00  0.00    +0.000 NA
ATOM     23  H   UNL     1      -0.054  11.594  23.111  0.00  0.00    +0.000 HD
ENDBRANCH  19  22
ENDBRANCH  14  19
ENDBRANCH   1  17
BRANCH  13  24
ATOM     24  C   UNL     1       2.722   4.225  20.971  0.00  0.00    +0.000 C 
ATOM     25  C   UNL     1       1.332   3.628  20.915  0.00  0.00    +0.000 C 
ATOM     26  C   UNL     1       2.503   2.747  21.194  0.00  0.00    +0.000 C 
ENDBRANCH  13  24
BRANCH  10  27
ATOM     27  O   UNL     1       5.987   3.757  17.417  0.00  0.00    +0.000 OA
ATOM     28  H   UNL     1       5.923   4.062  16.489  0.00  0.00    +0.000 HD
ENDBRANCH  10  27
TORSDOF 5
ENDMDL
MODEL 2
REMARK VINA RESULT:      -8.2      0.752      1.053
REMARK  Name = 
REMARK  7 active torsions:
REMARK  status: ('A' for Active; 'I' for Inactive)
REMARK    1  A    between atoms: C_1  and  N_2
REMARK    2  A    between atoms: N_2  and  C_3
REMARK    3  A    between atoms: C_3  and  C_4
REMARK    4  A    between atoms: C_3  and  C_5
REMARK    5  A    between atoms: N_8  and  C_9
REMARK    6  A    between atoms: N_18  and  O_19
REMARK    7  A    between atoms: N_22  and  C_23
REMARK                            x       y       z     vdW  Elec       q    Type
REMARK                         _______ _______ _______ _____ _____    ______ ____
ROOT
ATOM      1  C   UNL     1       1.698   8.174  19.814  0.00  0.00    +0.000 A 
ATOM      2  C   UNL     1       2.040   6.860  20.196  0.00  0.00    +0.000 A 
ATOM      3  C   UNL     1       2.848   6.013  19.414  0.00  0.00    +0.000 A 
ATOM      4  C   UNL     1       3.351   6.517  18.217  0.00  0.00    +0.000 A 
ATOM      5  C   UNL     1       2.994   7.786  17.767  0.00  0.00    +0.000 A 
ATOM      6  C   UNL     1       2.169   8.585  18.552  0.00  0.00    +0.000 A 
ATOM      7  F   UNL     1       1.854   9.791  18.054  0.00  0.00    +0.000 F 
ATOM      8  C   UNL     1       4.298   5.710  17.432  0.00  0.00    +0.000 A 
ATOM      9  O   UNL     1       4.759   6.114  16.369  0.00  0.00    +0.000 OA
ATOM     10  N   UNL     1       4.642   4.505  17.994  0.00  0.00    +0.000 N 
ATOM     11  C   UNL     1       4.148   3.922  19.152  0.00  0.00    +0.000 A 
ATOM     12  O   UNL     1       4.528   2.824  19.564  0.00  0.00    +0.000 OA
ATOM     13  N   UNL     1       3.174   4.685  19.830  0.00  0.00    +0.000 N 
ENDROOT
BRANCH   1  17
ATOM     14  C   UNL     1      -0.693  10.482  21.529  0.00  0.00    +0.000 C 
ATOM     15  C   UNL     1      -0.041   9.678  22.657  0.00  0.00    +0.000 C 
ATOM     16  C   UNL     1       1.266   9.151  22.078  0.00  0.00    +0.000 C 
ATOM     17  N   UNL     1       0.975   8.987  20.661  0.00  0.00    +0.000 N 
ATOM     18  C   UNL     1      -0.178   9.793  20.252  0.00  0.00    +0.000 C 
BRANCH  14  19
ATOM     19  C   UNL     1      -0.457  12.016  21.610  0.00  0.00    +0.000 C 
ATOM     20  C   UNL     1      -1.104  12.578  22.885  0.00  0.00    +0.000 C 
BRANCH  19  22
ATOM     21  C   UNL     1      -2.367  12.797  20.278  0.00  0.00    +0.000 C 
ATOM     22  N   UNL     1      -0.918  12.721  20.406  0.00  0.00    +0.000 NA
ATOM     23  H   UNL     1      -0.565  13.676  20.419  0.00  0.00    +0.000 HD
ENDBRANCH  19  22
ENDBRANCH  14  19
ENDBRANCH   1  17
BRANCH  13  24
ATOM     24  C   UNL     1       2.560   4.128  21.025  0.00  0.00    +0.000 C 
ATOM     25  C   UNL     1       1.204   3.456  20.990  0.00  0.00    +0.000 C 
ATOM     26  C   UNL     1       2.427   2.638  21.239  0.00  0.00    +0.000 C 
ENDBRANCH  13  24
BRANCH  10  27
ATOM     27  O   UNL     1       5.609   3.764  17.272  0.00  0.00    +0.000 OA
ATOM     28  H   UNL     1       6.441   4.037  17.709  0.00  0.00    +0.000 HD
ENDBRANCH  10  27
TORSDOF 5
ENDMDL
MODEL 3
REMARK VINA RESULT:      -7.8      0.834      1.406
REMARK  Name = 
REMARK  7 active torsions:
REMARK  status: ('A' for Active; 'I' for Inactive)
REMARK    1  A    between atoms: C_1  and  N_2
REMARK    2  A    between atoms: N_2  and  C_3
REMARK    3  A    between atoms: C_3  and  C_4
REMARK    4  A    between atoms: C_3  and  C_5
REMARK    5  A    between atoms: N_8  and  C_9
REMARK    6  A    between atoms: N_18  and  O_19
REMARK    7  A    between atoms: N_22  and  C_23
REMARK                            x       y       z     vdW  Elec       q    Type
REMARK                         _______ _______ _______ _____ _____    ______ ____
ROOT
ATOM      1  C   UNL     1       1.652   8.621  19.264  0.00  0.00    +0.000 A 
ATOM      2  C   UNL     1       1.913   7.346  19.805  0.00  0.00    +0.000 A 
ATOM      3  C   UNL     1       2.780   6.414  19.204  0.00  0.00    +0.000 A 
ATOM      4  C   UNL     1       3.426   6.789  18.029  0.00  0.00    +0.000 A 
ATOM      5  C   UNL     1       3.156   8.014  17.423  0.00  0.00    +0.000 A 
ATOM      6  C   UNL     1       2.271   8.900  18.030  0.00  0.00    +0.000 A 
ATOM      7  F   UNL     1       2.046  10.056  17.387  0.00  0.00    +0.000 F 
ATOM      8  C   UNL     1       4.432   5.894  17.437  0.00  0.00    +0.000 A 
ATOM      9  O   UNL     1       5.019   6.185  16.400  0.00  0.00    +0.000 OA
ATOM     10  N   UNL     1       4.679   4.744  18.147  0.00  0.00    +0.000 N 
ATOM     11  C   UNL     1       4.044   4.286  19.292  0.00  0.00    +0.000 A 
ATOM     12  O   UNL     1       4.346   3.228  19.847  0.00  0.00    +0.000 OA
ATOM     13  N   UNL     1       3.021   5.128  19.780  0.00  0.00    +0.000 N 
ENDROOT
BRANCH   1  17
ATOM     14  C   UNL     1       0.119  11.216  21.478  0.00  0.00    +0.000 C 
ATOM     15  C   UNL     1      -0.778  11.174  20.239  0.00  0.00    +0.000 C 
ATOM     16  C   UNL     1      -0.523   9.814  19.599  0.00  0.00    +0.000 C 
ATOM     17  N   UNL     1       0.862   9.525  19.942  0.00  0.00    +0.000 N 
ATOM     18  C   UNL     1       1.306  10.314  21.095  0.00  0.00    +0.000 C 
BRANCH  14  19
ATOM     19  C   UNL     1      -0.599  10.857  22.809  0.00  0.00    +0.000 C 
ATOM     20  C   UNL     1      -0.597   9.333  23.009  0.00  0.00    +0.000 C 
BRANCH  19  22
ATOM     21  C   UNL     1      -2.002  12.808  23.318  0.00  0.00    +0.000 C 
ATOM     22  N   UNL     1      -1.955  11.417  22.886  0.00  0.00    +0.000 NA
ATOM     23  H   UNL     1      -2.391  11.371  21.967  0.00  0.00    +0.000 HD
ENDBRANCH  19  22
ENDBRANCH  14  19
ENDBRANCH   1  17
BRANCH  13  24
ATOM     24  C   UNL     1       2.264   4.700  20.945  0.00  0.00    +0.000 C 
ATOM     25  C   UNL     1       1.022   3.843  20.822  0.00  0.00    +0.000 C 
ATOM     26  C   UNL     1       2.261   3.265  21.418  0.00  0.00    +0.000 C 
ENDBRANCH  13  24
BRANCH  10  27
ATOM     27  O   UNL     1       5.699   3.922  17.613  0.00  0.00    +0.000 OA
ATOM     28  H   UNL     1       5.667   4.150  16.662  0.00  0.00    +0.000 HD
ENDBRANCH  10  27
TORSDOF 5
ENDMDL
MODEL 4
REMARK VINA RESULT:      -7.6      2.092      3.816
REMARK  Name = 
REMARK  7 active torsions:
REMARK  status: ('A' for Active; 'I' for Inactive)
REMARK    1  A    between atoms: C_1  and  N_2
REMARK    2  A    between atoms: N_2  and  C_3
REMARK    3  A    between atoms: C_3  and  C_4
REMARK    4  A    between atoms: C_3  and  C_5
REMARK    5  A    between atoms: N_8  and  C_9
REMARK    6  A    between atoms: N_18  and  O_19
REMARK    7  A    between atoms: N_22  and  C_23
REMARK                            x       y       z     vdW  Elec       q    Type
REMARK                         _______ _______ _______ _____ _____    ______ ____
ROOT
ATOM      1  C   UNL     1       2.013   7.716  19.336  0.00  0.00    +0.000 A 
ATOM      2  C   UNL     1       2.886   7.099  18.417  0.00  0.00    +0.000 A 
ATOM      3  C   UNL     1       3.301   5.758  18.526  0.00  0.00    +0.000 A 
ATOM      4  C   UNL     1       2.799   5.005  19.584  0.00  0.00    +0.000 A 
ATOM      5  C   UNL     1       1.982   5.585  20.552  0.00  0.00    +0.000 A 
ATOM      6  C   UNL     1       1.614   6.922  20.429  0.00  0.00    +0.000 A 
ATOM      7  F   UNL     1       0.837   7.421  21.402  0.00  0.00    +0.000 F 
ATOM      8  C   UNL     1       3.110   3.570  19.665  0.00  0.00    +0.000 A 
ATOM      9  O   UNL     1       2.693   2.872  20.584  0.00  0.00    +0.000 OA
ATOM     10  N   UNL     1       3.862   3.077  18.626  0.00  0.00    +0.000 N 
ATOM     11  C   UNL     1       4.432   3.773  17.570  0.00  0.00    +0.000 A 
ATOM     12  O   UNL     1       5.099   3.226  16.690  0.00  0.00    +0.000 OA
ATOM     13  N   UNL     1       4.189   5.163  17.576  0.00  0.00    +0.000 N 
ENDROOT
BRANCH   1  17
ATOM     14  C   UNL     1       0.501  11.135  19.431  0.00  0.00    +0.000 C 
ATOM     15  C   UNL     1       1.673  11.248  18.454  0.00  0.00    +0.000 C 
ATOM     16  C   UNL     1       1.952   9.824  17.988  0.00  0.00    +0.000 C 
ATOM     17  N   UNL     1       1.572   9.006  19.130  0.00  0.00    +0.000 N 
ATOM     18  C   UNL     1       0.664   9.725  20.028  0.00  0.00    +0.000 C 
BRANCH  14  19
ATOM     19  C   UNL     1      -0.890  11.448  18.812  0.00  0.00    +0.000 C 
ATOM     20  C   UNL     1      -1.656  12.427  19.716  0.00  0.00    +0.000 C 
BRANCH  19  22
ATOM     21  C   UNL     1      -1.865   9.962  17.118  0.00  0.00    +0.000 C 
ATOM     22  N   UNL     1      -1.670  10.235  18.535  0.00  0.00    +0.000 NA
ATOM     23  H   UNL     1      -1.192   9.429  18.935  0.00  0.00    +0.000 HD
ENDBRANCH  19  22
ENDBRANCH  14  19
ENDBRANCH   1  17
BRANCH  13  24
ATOM     24  C   UNL     1       4.794   5.981  16.537  0.00  0.00    +0.000 C 
ATOM     25  C   UNL     1       6.009   6.843  16.802  0.00  0.00    +0.000 C 
ATOM     26  C   UNL     1       6.134   5.642  15.927  0.00  0.00    +0.000 C 
ENDBRANCH  13  24
BRANCH  10  27
ATOM     27  O   UNL     1       4.097   1.682  18.669  0.00  0.00    +0.000 OA
ATOM     28  H   UNL     1       3.370   1.371  19.245  0.00  0.00    +0.000 HD
ENDBRANCH  10  27
TORSDOF 5
ENDMDL
MODEL 5
REMARK VINA RESULT:      -7.5      2.194      3.739
REMARK  Name = 
REMARK  7 active torsions:
REMARK  status: ('A' for Active; 'I' for Inactive)
REMARK    1  A    between atoms: C_1  and  N_2
REMARK    2  A    between atoms: N_2  and  C_3
REMARK    3  A    between atoms: C_3  and  C_4
REMARK    4  A    between atoms: C_3  and  C_5
REMARK    5  A    between atoms: N_8  and  C_9
REMARK    6  A    between atoms: N_18  and  O_19
REMARK    7  A    between atoms: N_22  and  C_23
REMARK                            x       y       z     vdW  Elec       q    Type
REMARK                         _______ _______ _______ _____ _____    ______ ____
ROOT
ATOM      1  C   UNL     1       2.080   7.665  19.272  0.00  0.00    +0.000 A 
ATOM      2  C   UNL     1       2.954   7.042  18.357  0.00  0.00    +0.000 A 
ATOM      3  C   UNL     1       3.332   5.689  18.448  0.00  0.00    +0.000 A 
ATOM      4  C   UNL     1       2.791   4.930  19.483  0.00  0.00    +0.000 A 
ATOM      5  C   UNL     1       1.972   5.514  20.447  0.00  0.00    +0.000 A 
ATOM      6  C   UNL     1       1.641   6.862  20.342  0.00  0.00    +0.000 A 
ATOM      7  F   UNL     1       0.859   7.363  21.310  0.00  0.00    +0.000 F 
ATOM      8  C   UNL     1       3.063   3.486  19.542  0.00  0.00    +0.000 A 
ATOM      9  O   UNL     1       2.611   2.783  20.441  0.00  0.00    +0.000 OA
ATOM     10  N   UNL     1       3.822   2.993  18.509  0.00  0.00    +0.000 N 
ATOM     11  C   UNL     1       4.429   3.693  17.476  0.00  0.00    +0.000 A 
ATOM     12  O   UNL     1       5.097   3.145  16.598  0.00  0.00    +0.000 OA
ATOM     13  N   UNL     1       4.221   5.089  17.504  0.00  0.00    +0.000 N 
ENDROOT
BRANCH   1  17
ATOM     14  C   UNL     1       0.680  11.130  19.417  0.00  0.00    +0.000 C 
ATOM     15  C   UNL     1       1.836  11.212  18.416  0.00  0.00    +0.000 C 
ATOM     16  C   UNL     1       2.060   9.782  17.936  0.00  0.00    +0.000 C 
ATOM     17  N   UNL     1       1.677   8.970  19.082  0.00  0.00    +0.000 N 
ATOM     18  C   UNL     1       0.810   9.712  20.002  0.00  0.00    +0.000 C 
BRANCH  14  19
ATOM     19  C   UNL     1      -0.712  11.491  18.827  0.00  0.00    +0.000 C 
ATOM     20  C   UNL     1      -1.327  10.258  18.147  0.00  0.00    +0.000 C 
BRANCH  19  22
ATOM     21  C   UNL     1      -0.405  13.916  18.588  0.00  0.00    +0.000 C 
ATOM     22  N   UNL     1      -0.657  12.646  17.921  0.00  0.00    +0.000 NA
ATOM     23  H   UNL     1       0.090  12.507  17.243  0.00  0.00    +0.000 HD
ENDBRANCH  19  22
ENDBRANCH  14  19
ENDBRANCH   1  17
BRANCH  13  24
ATOM     24  C   UNL     1       4.866   5.909  16.491  0.00  0.00    +0.000 C 
ATOM     25  C   UNL     1       6.023   6.828  16.822  0.00  0.00    +0.000 C 
ATOM     26  C   UNL     1       6.260   5.614  15.987  0.00  0.00    +0.000 C 
ENDBRANCH  13  24
BRANCH  10  27
ATOM     27  O   UNL     1       4.020   1.592  18.530  0.00  0.00    +0.000 OA
ATOM     28  H   UNL     1       4.954   1.514  18.248  0.00  0.00    +0.000 HD
ENDBRANCH  10  27
TORSDOF 5
ENDMDL
MODEL 6
REMARK VINA RESULT:      -7.5      0.967      1.622
REMARK  Name = 
REMARK  7 active torsions:
REMARK  status: ('A' for Active; 'I' for Inactive)
REMARK    1  A    between atoms: C_1  and  N_2
REMARK    2  A    between atoms: N_2  and  C_3
REMARK    3  A    between atoms: C_3  and  C_4
REMARK    4  A    between atoms: C_3  and  C_5
REMARK    5  A    between atoms: N_8  and  C_9
REMARK    6  A    between atoms: N_18  and  O_19
REMARK    7  A    between atoms: N_22  and  C_23
REMARK                            x       y       z     vdW  Elec       q    Type
REMARK                         _______ _______ _______ _____ _____    ______ ____
ROOT
ATOM      1  C   UNL     1       1.574   8.787  19.059  0.00  0.00    +0.000 A 
ATOM      2  C   UNL     1       1.776   7.516  19.635  0.00  0.00    +0.000 A 
ATOM      3  C   UNL     1       2.715   6.587  19.147  0.00  0.00    +0.000 A 
ATOM      4  C   UNL     1       3.495   6.961  18.057  0.00  0.00    +0.000 A 
ATOM      5  C   UNL     1       3.293   8.181  17.416  0.00  0.00    +0.000 A 
ATOM      6  C   UNL     1       2.335   9.064  17.907  0.00  0.00    +0.000 A 
ATOM      7  F   UNL     1       2.182  10.215  17.235  0.00  0.00    +0.000 F 
ATOM      8  C   UNL     1       4.570   6.070  17.595  0.00  0.00    +0.000 A 
ATOM      9  O   UNL     1       5.276   6.360  16.634  0.00  0.00    +0.000 OA
ATOM     10  N   UNL     1       4.737   4.925  18.335  0.00  0.00    +0.000 N 
ATOM     11  C   UNL     1       3.972   4.468  19.399  0.00  0.00    +0.000 A 
ATOM     12  O   UNL     1       4.211   3.415  19.991  0.00  0.00    +0.000 OA
ATOM     13  N   UNL     1       2.893   5.305  19.755  0.00  0.00    +0.000 N 
ENDROOT
BRANCH   1  17
ATOM     14  C   UNL     1      -0.194  11.483  20.954  0.00  0.00    +0.000 C 
ATOM     15  C   UNL     1      -1.092  11.192  19.749  0.00  0.00    +0.000 C 
ATOM     16  C   UNL     1      -0.707   9.793  19.284  0.00  0.00    +0.000 C 
ATOM     17  N   UNL     1       0.703   9.689  19.632  0.00  0.00    +0.000 N 
ATOM     18  C   UNL     1       1.075  10.660  20.665  0.00  0.00    +0.000 C 
BRANCH  14  19
ATOM     19  C   UNL     1      -0.862  11.230  22.335  0.00  0.00    +0.000 C 
ATOM     20  C   UNL     1      -1.194  12.572  23.007  0.00  0.00    +0.000 C 
BRANCH  19  22
ATOM     21  C   UNL     1      -0.381   8.953  23.117  0.00  0.00    +0.000 C 
ATOM     22  N   UNL     1      -0.050  10.369  23.203  0.00  0.00    +0.000 NA
ATOM     23  H   UNL     1       0.932  10.465  22.951  0.00  0.00    +0.000 HD
ENDBRANCH  19  22
ENDBRANCH  14  19
ENDBRANCH   1  17
BRANCH  13  24
ATOM     24  C   UNL     1       2.003   4.878  20.823  0.00  0.00    +0.000 C 
ATOM     25  C   UNL     1       0.796   4.005  20.558  0.00  0.00    +0.000 C 
ATOM     26  C   UNL     1       1.959   3.447  21.307  0.00  0.00    +0.000 C 
ENDBRANCH  13  24
BRANCH  10  27
ATOM     27  O   UNL     1       5.819   4.107  17.932  0.00  0.00    +0.000 OA
ATOM     28  H   UNL     1       5.850   4.271  16.968  0.00  0.00    +0.000 HD
ENDBRANCH  10  27
TORSDOF 5
ENDMDL
MODEL 7
REMARK VINA RESULT:      -7.5      0.927      1.241
REMARK  Name = 
REMARK  7 active torsions:
REMARK  status: ('A' for Active; 'I' for Inactive)
REMARK    1  A    between atoms: C_1  and  N_2
REMARK    2  A    between atoms: N_2  and  C_3
REMARK    3  A    between atoms: C_3  and  C_4
REMARK    4  A    between atoms: C_3  and  C_5
REMARK    5  A    between atoms: N_8  and  C_9
REMARK    6  A    between atoms: N_18  and  O_19
REMARK    7  A    between atoms: N_22  and  C_23
REMARK                            x       y       z     vdW  Elec       q    Type
REMARK                         _______ _______ _______ _____ _____    ______ ____
ROOT
ATOM      1  C   UNL     1       1.915   7.876  19.449  0.00  0.00    +0.000 A 
ATOM      2  C   UNL     1       2.032   6.484  19.644  0.00  0.00    +0.000 A 
ATOM      3  C   UNL     1       2.813   5.652  18.820  0.00  0.00    +0.000 A 
ATOM      4  C   UNL     1       3.520   6.245  17.778  0.00  0.00    +0.000 A 
ATOM      5  C   UNL     1       3.390   7.606  17.508  0.00  0.00    +0.000 A 
ATOM      6  C   UNL     1       2.587   8.395  18.326  0.00  0.00    +0.000 A 
ATOM      7  F   UNL     1       2.496   9.694  18.003  0.00  0.00    +0.000 F 
ATOM      8  C   UNL     1       4.441   5.432  16.971  0.00  0.00    +0.000 A 
ATOM      9  O   UNL     1       5.079   5.915  16.040  0.00  0.00    +0.000 OA
ATOM     10  N   UNL     1       4.554   4.119  17.360  0.00  0.00    +0.000 N 
ATOM     11  C   UNL     1       3.849   3.452  18.352  0.00  0.00    +0.000 A 
ATOM     12  O   UNL     1       4.029   2.261  18.615  0.00  0.00    +0.000 OA
ATOM     13  N   UNL     1       2.908   4.243  19.044  0.00  0.00    +0.000 N 
ENDROOT
BRANCH   1  17
ATOM     14  C   UNL     1      -0.374  10.203  21.274  0.00  0.00    +0.000 C 
ATOM     15  C   UNL     1       0.099   9.203  22.333  0.00  0.00    +0.000 C 
ATOM     16  C   UNL     1       1.394   8.613  21.784  0.00  0.00    +0.000 C 
ATOM     17  N   UNL     1       1.207   8.654  20.341  0.00  0.00    +0.000 N 
ATOM     18  C   UNL     1       0.175   9.622  19.959  0.00  0.00    +0.000 C 
BRANCH  14  19
ATOM     19  C   UNL     1       0.002  11.682  21.568  0.00  0.00    +0.000 C 
ATOM     20  C   UNL     1      -1.063  12.619  20.977  0.00  0.00    +0.000 C 
BRANCH  19  22
ATOM     21  C   UNL     1       1.449  13.328  20.461  0.00  0.00    +0.000 C 
ATOM     22  N   UNL     1       1.352  12.023  21.100  0.00  0.00    +0.000 NA
ATOM     23  H   UNL     1       1.993  12.026  21.892  0.00  0.00    +0.000 HD
ENDBRANCH  19  22
ENDBRANCH  14  19
ENDBRANCH   1  17
BRANCH  13  24
ATOM     24  C   UNL     1       2.084   3.613  20.064  0.00  0.00    +0.000 C 
ATOM     25  C   UNL     1       2.683   2.762  21.164  0.00  0.00    +0.000 C 
ATOM     26  C   UNL     1       2.083   4.086  21.499  0.00  0.00    +0.000 C 
ENDBRANCH  13  24
BRANCH  10  27
ATOM     27  O   UNL     1       5.496   3.358  16.628  0.00  0.00    +0.000 OA
ATOM     28  H   UNL     1       6.236   3.991  16.529  0.00  0.00    +0.000 HD
ENDBRANCH  10  27
TORSDOF 5
ENDMDL
MODEL 8
REMARK VINA RESULT:      -7.4      2.134      3.788
REMARK  Name = 
REMARK  7 active torsions:
REMARK  status: ('A' for Active; 'I' for Inactive)
REMARK    1  A    between atoms: C_1  and  N_2
REMARK    2  A    between atoms: N_2  and  C_3
REMARK    3  A    between atoms: C_3  and  C_4
REMARK    4  A    between atoms: C_3  and  C_5
REMARK    5  A    between atoms: N_8  and  C_9
REMARK    6  A    between atoms: N_18  and  O_19
REMARK    7  A    between atoms: N_22  and  C_23
REMARK                            x       y       z     vdW  Elec       q    Type
REMARK                         _______ _______ _______ _____ _____    ______ ____
ROOT
ATOM      1  C   UNL     1       1.983   7.588  19.483  0.00  0.00    +0.000 A 
ATOM      2  C   UNL     1       2.887   7.066  18.536  0.00  0.00    +0.000 A 
ATOM      3  C   UNL     1       3.302   5.721  18.524  0.00  0.00    +0.000 A 
ATOM      4  C   UNL     1       2.768   4.866  19.485  0.00  0.00    +0.000 A 
ATOM      5  C   UNL     1       1.918   5.347  20.478  0.00  0.00    +0.000 A 
ATOM      6  C   UNL     1       1.551   6.689  20.477  0.00  0.00    +0.000 A 
ATOM      7  F   UNL     1       0.740   7.089  21.468  0.00  0.00    +0.000 F 
ATOM      8  C   UNL     1       3.081   3.430  19.432  0.00  0.00    +0.000 A 
ATOM      9  O   UNL     1       2.635   2.644  20.263  0.00  0.00    +0.000 OA
ATOM     10  N   UNL     1       3.868   3.043  18.375  0.00  0.00    +0.000 N 
ATOM     11  C   UNL     1       4.471   3.841  17.413  0.00  0.00    +0.000 A 
ATOM     12  O   UNL     1       5.168   3.384  16.506  0.00  0.00    +0.000 OA
ATOM     13  N   UNL     1       4.223   5.224  17.550  0.00  0.00    +0.000 N 
ENDROOT
BRANCH   1  17
ATOM     14  C   UNL     1       1.074  11.097  18.562  0.00  0.00    +0.000 C 
ATOM     15  C   UNL     1       0.109  10.722  19.690  0.00  0.00    +0.000 C 
ATOM     16  C   UNL     1       0.777   9.568  20.429  0.00  0.00    +0.000 C 
ATOM     17  N   UNL     1       1.545   8.893  19.392  0.00  0.00    +0.000 N 
ATOM     18  C   UNL     1       1.793   9.773  18.247  0.00  0.00    +0.000 C 
BRANCH  14  19
ATOM     19  C   UNL     1       1.997  12.307  18.878  0.00  0.00    +0.000 C 
ATOM     20  C   UNL     1       1.283  13.272  19.838  0.00  0.00    +0.000 C 
BRANCH  19  22
ATOM     21  C   UNL     1       3.025  14.313  17.903  0.00  0.00    +0.000 C 
ATOM     22  N   UNL     1       2.465  12.990  17.665  0.00  0.00    +0.000 NA
ATOM     23  H   UNL     1       3.192  12.429  17.222  0.00  0.00    +0.000 HD
ENDBRANCH  19  22
ENDBRANCH  14  19
ENDBRANCH   1  17
BRANCH  13  24
ATOM     24  C   UNL     1       4.860   6.141  16.619  0.00  0.00    +0.000 C 
ATOM     25  C   UNL     1       6.066   6.968  17.008  0.00  0.00    +0.000 C 
ATOM     26  C   UNL     1       6.219   5.862  16.019  0.00  0.00    +0.000 C 
ENDBRANCH  13  24
BRANCH  10  27
ATOM     27  O   UNL     1       4.106   1.651  18.286  0.00  0.00    +0.000 OA
ATOM     28  H   UNL     1       4.472   1.450  19.171  0.00  0.00    +0.000 HD
ENDBRANCH  10  27
TORSDOF 5
ENDMDL
MODEL 9
REMARK VINA RESULT:      -7.3      1.806      3.466
REMARK  Name = 
REMARK  7 active torsions:
REMARK  status: ('A' for Active; 'I' for Inactive)
REMARK    1  A    between atoms: C_1  and  N_2
REMARK    2  A    between atoms: N_2  and  C_3
REMARK    3  A    between atoms: C_3  and  C_4
REMARK    4  A    between atoms: C_3  and  C_5
REMARK    5  A    between atoms: N_8  and  C_9
REMARK    6  A    between atoms: N_18  and  O_19
REMARK    7  A    between atoms: N_22  and  C_23
REMARK                            x       y       z     vdW  Elec       q    Type
REMARK                         _______ _______ _______ _____ _____    ______ ____
ROOT
ATOM      1  C   UNL     1       1.980   7.621  19.465  0.00  0.00    +0.000 A 
ATOM      2  C   UNL     1       2.882   7.076  18.529  0.00  0.00    +0.000 A 
ATOM      3  C   UNL     1       3.297   5.731  18.548  0.00  0.00    +0.000 A 
ATOM      4  C   UNL     1       2.764   4.899  19.530  0.00  0.00    +0.000 A 
ATOM      5  C   UNL     1       1.916   5.403  20.513  0.00  0.00    +0.000 A 
ATOM      6  C   UNL     1       1.549   6.746  20.481  0.00  0.00    +0.000 A 
ATOM      7  F   UNL     1       0.741   7.169  21.464  0.00  0.00    +0.000 F 
ATOM      8  C   UNL     1       3.075   3.462  19.510  0.00  0.00    +0.000 A 
ATOM      9  O   UNL     1       2.631   2.696  20.360  0.00  0.00    +0.000 OA
ATOM     10  N   UNL     1       3.861   3.050  18.461  0.00  0.00    +0.000 N 
ATOM     11  C   UNL     1       4.462   3.825  17.479  0.00  0.00    +0.000 A 
ATOM     12  O   UNL     1       5.157   3.347  16.581  0.00  0.00    +0.000 OA
ATOM     13  N   UNL     1       4.215   5.210  17.584  0.00  0.00    +0.000 N 
ENDROOT
BRANCH   1  17
ATOM     14  C   UNL     1       0.688  11.108  19.861  0.00  0.00    +0.000 C 
ATOM     15  C   UNL     1       1.512  11.136  18.571  0.00  0.00    +0.000 C 
ATOM     16  C   UNL     1       1.587   9.686  18.106  0.00  0.00    +0.000 C 
ATOM     17  N   UNL     1       1.542   8.923  19.345  0.00  0.00    +0.000 N 
ATOM     18  C   UNL     1       0.975   9.712  20.442  0.00  0.00    +0.000 C 
BRANCH  14  19
ATOM     19  C   UNL     1      -0.813  11.467  19.676  0.00  0.00    +0.000 C 
ATOM     20  C   UNL     1      -0.978  12.425  18.486  0.00  0.00    +0.000 C 
BRANCH  19  22
ATOM     21  C   UNL     1      -0.538  12.881  21.665  0.00  0.00    +0.000 C 
ATOM     22  N   UNL     1      -1.418  12.006  20.901  0.00  0.00    +0.000 NA
ATOM     23  H   UNL     1      -2.245  12.547  20.658  0.00  0.00    +0.000 HD
ENDBRANCH  19  22
ENDBRANCH  14  19
ENDBRANCH   1  17
BRANCH  13  24
ATOM     24  C   UNL     1       4.850   6.105  16.630  0.00  0.00    +0.000 C 
ATOM     25  C   UNL     1       6.059   6.940  16.996  0.00  0.00    +0.000 C 
ATOM     26  C   UNL     1       6.207   5.810  16.033  0.00  0.00    +0.000 C 
ENDBRANCH  13  24
BRANCH  10  27
ATOM     27  O   UNL     1       4.097   1.656  18.404  0.00  0.00    +0.000 OA
ATOM     28  H   UNL     1       3.632   1.338  19.204  0.00  0.00    +0.000 HD
ENDBRANCH  10  27
TORSDOF 5
ENDMDL
