MODEL 1
REMARK VINA RESULT:      -7.7      0.000      0.000
REMARK  Name = 
REMARK  4 active torsions:
REMARK  status: ('A' for Active; 'I' for Inactive)
REMARK    1  A    between atoms: C_1  and  C_2
REMARK    2  A    between atoms: C_2  and  S_3
REMARK    3  A    between atoms: S_3  and  C_4
REMARK    4  A    between atoms: C_9  and  C_11
REMARK                            x       y       z     vdW  Elec       q    Type
REMARK                         _______ _______ _______ _____ _____    ______ ____
ROOT
ATOM      1  C   UNL     1       6.546   4.958  17.599  0.00  0.00    +0.000 A 
ATOM      2  N   UNL     1       7.080   4.590  18.743  0.00  0.00    +0.000 NA
ATOM      3  N   UNL     1       7.886   5.594  19.284  0.00  0.00    +0.000 NA
ATOM      4  C   UNL     1       7.870   6.691  18.555  0.00  0.00    +0.000 A 
ATOM      5  N   UNL     1       8.572   7.842  18.857  0.00  0.00    +0.000 N 
ATOM      6  C   UNL     1       8.353   9.070  18.264  0.00  0.00    +0.000 C 
ATOM      7  O   UNL     1       7.489   9.325  17.433  0.00  0.00    +0.000 OA
ATOM      8  S   UNL     1       6.952   6.545  17.120  0.00  0.00    +0.000 S 
ATOM      9  H   UNL     1       9.218   7.795  19.637  0.00  0.00    +0.000 HD
ENDROOT
BRANCH   6  10
ATOM     10  C   UNL     1       9.238  10.194  18.710  0.00  0.00    +0.000 A 
ATOM     11  C   UNL     1       9.343  10.426  20.077  0.00  0.00    +0.000 A 
ATOM     12  C   UNL     1      10.124  11.483  20.515  0.00  0.00    +0.000 A 
ATOM     13  C   UNL     1      10.770  12.288  19.578  0.00  0.00    +0.000 A 
ATOM     14  C   UNL     1      11.543  13.382  20.000  0.00  0.00    +0.000 A 
ATOM     15  C   UNL     1      12.174  14.195  19.066  0.00  0.00    +0.000 A 
ATOM     16  C   UNL     1      12.040  13.910  17.712  0.00  0.00    +0.000 A 
ATOM     17  C   UNL     1      11.273  12.811  17.297  0.00  0.00    +0.000 A 
ATOM     18  C   UNL     1      10.619  11.981  18.202  0.00  0.00    +0.000 A 
ATOM     19  N   UNL     1       9.869  10.940  17.763  0.00  0.00    +0.000 NA
ENDBRANCH   6  10
BRANCH   1  20
ATOM     20  S   UNL     1       5.570   3.930  16.576  0.00  0.00    +0.000 S 
BRANCH  20  22
ATOM     21  C   UNL     1       6.273   4.179  13.968  0.00  0.00    +0.000 C 
ATOM     22  C   UNL     1       5.454   4.883  15.042  0.00  0.00    +0.000 C 
ENDBRANCH  20  22
ENDBRANCH   1  20
TORSDOF 3
ENDMDL
MODEL 2
REMARK VINA RESULT:      -7.6      0.997      1.262
REMARK  Name = 
REMARK  4 active torsions:
REMARK  status: ('A' for Active; 'I' for Inactive)
REMARK    1  A    between atoms: C_1  and  C_2
REMARK    2  A    between atoms: C_2  and  S_3
REMARK    3  A    between atoms: S_3  and  C_4
REMARK    4  A    between atoms: C_9  and  C_11
REMARK                            x       y       z     vdW  Elec       q    Type
REMARK                         _______ _______ _______ _____ _____    ______ ____
ROOT
ATOM      1  C   UNL     1       6.539   4.994  17.529  0.00  0.00    +0.000 A 
ATOM      2  N   UNL     1       7.115   4.593  18.641  0.00  0.00    +0.000 NA
ATOM      3  N   UNL     1       7.931   5.586  19.188  0.00  0.00    +0.000 NA
ATOM      4  C   UNL     1       7.880   6.707  18.498  0.00  0.00    +0.000 A 
ATOM      5  N   UNL     1       8.583   7.853  18.816  0.00  0.00    +0.000 N 
ATOM      6  C   UNL     1       8.333   9.098  18.272  0.00  0.00    +0.000 C 
ATOM      7  O   UNL     1       7.440   9.374  17.480  0.00  0.00    +0.000 OA
ATOM      8  S   UNL     1       6.915   6.601  17.091  0.00  0.00    +0.000 S 
ATOM      9  H   UNL     1       9.255   7.786  19.571  0.00  0.00    +0.000 HD
ENDROOT
BRANCH   6  10
ATOM     10  C   UNL     1       9.224  10.215  18.727  0.00  0.00    +0.000 A 
ATOM     11  C   UNL     1       9.295  10.465  20.093  0.00  0.00    +0.000 A 
ATOM     12  C   UNL     1      10.080  11.517  20.537  0.00  0.00    +0.000 A 
ATOM     13  C   UNL     1      10.764  12.298  19.607  0.00  0.00    +0.000 A 
ATOM     14  C   UNL     1      11.543  13.386  20.034  0.00  0.00    +0.000 A 
ATOM     15  C   UNL     1      12.211  14.176  19.106  0.00  0.00    +0.000 A 
ATOM     16  C   UNL     1      12.109  13.873  17.754  0.00  0.00    +0.000 A 
ATOM     17  C   UNL     1      11.336  12.780  17.333  0.00  0.00    +0.000 A 
ATOM     18  C   UNL     1      10.646  11.973  18.232  0.00  0.00    +0.000 A 
ATOM     19  N   UNL     1       9.891  10.937  17.787  0.00  0.00    +0.000 NA
ENDBRANCH   6  10
BRANCH   1  20
ATOM     20  S   UNL     1       5.538   3.993  16.505  0.00  0.00    +0.000 S 
BRANCH  20  22
ATOM     21  C   UNL     1       3.508   5.118  17.908  0.00  0.00    +0.000 C 
ATOM     22  C   UNL     1       4.050   3.753  17.506  0.00  0.00    +0.000 C 
ENDBRANCH  20  22
ENDBRANCH   1  20
TORSDOF 3
ENDMDL
MODEL 3
REMARK VINA RESULT:      -7.2      6.921      9.579
REMARK  Name = 
REMARK  4 active torsions:
REMARK  status: ('A' for Active; 'I' for Inactive)
REMARK    1  A    between atoms: C_1  and  C_2
REMARK    2  A    between atoms: C_2  and  S_3
REMARK    3  A    between atoms: S_3  and  C_4
REMARK    4  A    between atoms: C_9  and  C_11
REMARK                            x       y       z     vdW  Elec       q    Type
REMARK                         _______ _______ _______ _____ _____    ______ ____
ROOT
ATOM      1  C   UNL     1      -0.174  10.510  22.140  0.00  0.00    +0.000 A 
ATOM      2  N   UNL     1       0.547   9.912  23.064  0.00  0.00    +0.000 NA
ATOM      3  N   UNL     1       1.334   8.892  22.525  0.00  0.00    +0.000 NA
ATOM      4  C   UNL     1       1.216   8.812  21.215  0.00  0.00    +0.000 A 
ATOM      5  N   UNL     1       1.884   7.898  20.424  0.00  0.00    +0.000 N 
ATOM      6  C   UNL     1       1.982   7.978  19.049  0.00  0.00    +0.000 C 
ATOM      7  O   UNL     1       1.541   8.880  18.346  0.00  0.00    +0.000 OA
ATOM      8  S   UNL     1       0.075   9.906  20.563  0.00  0.00    +0.000 S 
ATOM      9  H   UNL     1       2.418   7.181  20.902  0.00  0.00    +0.000 HD
ENDROOT
BRANCH   6  10
ATOM     10  C   UNL     1       2.729   6.872  18.367  0.00  0.00    +0.000 A 
ATOM     11  C   UNL     1       2.304   5.569  18.603  0.00  0.00    +0.000 A 
ATOM     12  C   UNL     1       3.001   4.525  18.017  0.00  0.00    +0.000 A 
ATOM     13  C   UNL     1       4.110   4.807  17.221  0.00  0.00    +0.000 A 
ATOM     14  C   UNL     1       4.847   3.762  16.641  0.00  0.00    +0.000 A 
ATOM     15  C   UNL     1       5.963   4.041  15.861  0.00  0.00    +0.000 A 
ATOM     16  C   UNL     1       6.336   5.364  15.653  0.00  0.00    +0.000 A 
ATOM     17  C   UNL     1       5.591   6.405  16.228  0.00  0.00    +0.000 A 
ATOM     18  C   UNL     1       4.474   6.163  17.023  0.00  0.00    +0.000 A 
ATOM     19  N   UNL     1       3.791   7.193  17.580  0.00  0.00    +0.000 NA
ENDBRANCH   6  10
BRANCH   1  20
ATOM     20  S   UNL     1      -1.358  11.758  22.449  0.00  0.00    +0.000 S 
BRANCH  20  22
ATOM     21  C   UNL     1      -2.640  12.575  20.202  0.00  0.00    +0.000 C 
ATOM     22  C   UNL     1      -1.313  12.742  20.932  0.00  0.00    +0.000 C 
ENDBRANCH  20  22
ENDBRANCH   1  20
TORSDOF 3
ENDMDL
MODEL 4
REMARK VINA RESULT:      -7.1      7.832     10.889
REMARK  Name = 
REMARK  4 active torsions:
REMARK  status: ('A' for Active; 'I' for Inactive)
REMARK    1  A    between atoms: C_1  and  C_2
REMARK    2  A    between atoms: C_2  and  S_3
REMARK    3  A    between atoms: S_3  and  C_4
REMARK    4  A    between atoms: C_9  and  C_11
REMARK                            x       y       z     vdW  Elec       q    Type
REMARK                         _______ _______ _______ _____ _____    ______ ____
ROOT
ATOM      1  C   UNL     1      -0.281  11.012  22.228  0.00  0.00    +0.000 A 
ATOM      2  N   UNL     1       0.047  10.275  23.268  0.00  0.00    +0.000 NA
ATOM      3  N   UNL     1       0.668   9.085  22.882  0.00  0.00    +0.000 NA
ATOM      4  C   UNL     1       0.836   9.012  21.577  0.00  0.00    +0.000 A 
ATOM      5  N   UNL     1       1.428   7.949  20.923  0.00  0.00    +0.000 N 
ATOM      6  C   UNL     1       1.852   7.978  19.609  0.00  0.00    +0.000 C 
ATOM      7  O   UNL     1       1.810   8.947  18.859  0.00  0.00    +0.000 OA
ATOM      8  S   UNL     1       0.168  10.336  20.727  0.00  0.00    +0.000 S 
ATOM      9  H   UNL     1       1.652   7.133  21.481  0.00  0.00    +0.000 HD
ENDROOT
BRANCH   6  10
ATOM     10  C   UNL     1       2.447   6.712  19.072  0.00  0.00    +0.000 A 
ATOM     11  C   UNL     1       3.365   6.823  18.033  0.00  0.00    +0.000 A 
ATOM     12  C   UNL     1       3.901   5.665  17.492  0.00  0.00    +0.000 A 
ATOM     13  C   UNL     1       3.498   4.428  17.992  0.00  0.00    +0.000 A 
ATOM     14  C   UNL     1       4.008   3.242  17.439  0.00  0.00    +0.000 A 
ATOM     15  C   UNL     1       3.594   2.008  17.926  0.00  0.00    +0.000 A 
ATOM     16  C   UNL     1       2.680   1.959  18.971  0.00  0.00    +0.000 A 
ATOM     17  C   UNL     1       2.180   3.147  19.526  0.00  0.00    +0.000 A 
ATOM     18  C   UNL     1       2.563   4.400  19.058  0.00  0.00    +0.000 A 
ATOM     19  N   UNL     1       2.043   5.527  19.605  0.00  0.00    +0.000 NA
ENDBRANCH   6  10
BRANCH   1  20
ATOM     20  S   UNL     1      -1.172  12.513  22.310  0.00  0.00    +0.000 S 
BRANCH  20  22
ATOM     21  C   UNL     1      -3.570  13.266  23.331  0.00  0.00    +0.000 C 
ATOM     22  C   UNL     1      -2.653  12.052  23.241  0.00  0.00    +0.000 C 
ENDBRANCH  20  22
ENDBRANCH   1  20
TORSDOF 3
ENDMDL
MODEL 5
REMARK VINA RESULT:      -7.0      7.241      8.772
REMARK  Name = 
REMARK  4 active torsions:
REMARK  status: ('A' for Active; 'I' for Inactive)
REMARK    1  A    between atoms: C_1  and  C_2
REMARK    2  A    between atoms: C_2  and  S_3
REMARK    3  A    between atoms: S_3  and  C_4
REMARK    4  A    between atoms: C_9  and  C_11
REMARK                            x       y       z     vdW  Elec       q    Type
REMARK                         _______ _______ _______ _____ _____    ______ ____
ROOT
ATOM      1  C   UNL     1       4.592   5.208  17.461  0.00  0.00    +0.000 A 
ATOM      2  N   UNL     1       4.231   4.357  18.398  0.00  0.00    +0.000 NA
ATOM      3  N   UNL     1       3.418   4.962  19.359  0.00  0.00    +0.000 NA
ATOM      4  C   UNL     1       3.153   6.219  19.066  0.00  0.00    +0.000 A 
ATOM      5  N   UNL     1       2.369   7.054  19.839  0.00  0.00    +0.000 N 
ATOM      6  C   UNL     1       1.865   8.268  19.414  0.00  0.00    +0.000 C 
ATOM      7  O   UNL     1       1.996   8.751  18.295  0.00  0.00    +0.000 OA
ATOM      8  S   UNL     1       3.947   6.776  17.658  0.00  0.00    +0.000 S 
ATOM      9  H   UNL     1       2.066   6.697  20.738  0.00  0.00    +0.000 HD
ENDROOT
BRANCH   6  10
ATOM     10  C   UNL     1       1.055   9.040  20.411  0.00  0.00    +0.000 A 
ATOM     11  C   UNL     1       1.138   8.652  21.744  0.00  0.00    +0.000 A 
ATOM     12  C   UNL     1       0.370   9.324  22.681  0.00  0.00    +0.000 A 
ATOM     13  C   UNL     1      -0.469  10.356  22.263  0.00  0.00    +0.000 A 
ATOM     14  C   UNL     1      -1.276  11.031  23.193  0.00  0.00    +0.000 A 
ATOM     15  C   UNL     1      -2.125  12.048  22.775  0.00  0.00    +0.000 A 
ATOM     16  C   UNL     1      -2.159  12.398  21.430  0.00  0.00    +0.000 A 
ATOM     17  C   UNL     1      -1.344  11.726  20.507  0.00  0.00    +0.000 A 
ATOM     18  C   UNL     1      -0.490  10.696  20.887  0.00  0.00    +0.000 A 
ATOM     19  N   UNL     1       0.268  10.055  19.963  0.00  0.00    +0.000 NA
ENDBRANCH   6  10
BRANCH   1  20
ATOM     20  S   UNL     1       5.696   4.845  16.155  0.00  0.00    +0.000 S 
BRANCH  20  22
ATOM     21  C   UNL     1       7.454   5.914  17.922  0.00  0.00    +0.000 C 
ATOM     22  C   UNL     1       7.290   4.712  17.000  0.00  0.00    +0.000 C 
ENDBRANCH  20  22
ENDBRANCH   1  20
TORSDOF 3
ENDMDL
MODEL 6
REMARK VINA RESULT:      -7.0      7.014      8.279
REMARK  Name = 
REMARK  4 active torsions:
REMARK  status: ('A' for Active; 'I' for Inactive)
REMARK    1  A    between atoms: C_1  and  C_2
REMARK    2  A    between atoms: C_2  and  S_3
REMARK    3  A    between atoms: S_3  and  C_4
REMARK    4  A    between atoms: C_9  and  C_11
REMARK                            x       y       z     vdW  Elec       q    Type
REMARK                         _______ _______ _______ _____ _____    ______ ____
ROOT
ATOM      1  C   UNL     1       5.208   4.608  16.679  0.00  0.00    +0.000 A 
ATOM      2  N   UNL     1       4.350   3.760  17.204  0.00  0.00    +0.000 NA
ATOM      3  N   UNL     1       3.353   4.417  17.929  0.00  0.00    +0.000 NA
ATOM      4  C   UNL     1       3.471   5.727  17.863  0.00  0.00    +0.000 A 
ATOM      5  N   UNL     1       2.619   6.622  18.482  0.00  0.00    +0.000 N 
ATOM      6  C   UNL     1       2.567   7.973  18.201  0.00  0.00    +0.000 C 
ATOM      7  O   UNL     1       3.222   8.558  17.346  0.00  0.00    +0.000 OA
ATOM      8  S   UNL     1       4.850   6.247  16.996  0.00  0.00    +0.000 S 
ATOM      9  H   UNL     1       1.922   6.234  19.107  0.00  0.00    +0.000 HD
ENDROOT
BRANCH   6  10
ATOM     10  C   UNL     1       1.591   8.783  19.000  0.00  0.00    +0.000 A 
ATOM     11  C   UNL     1       0.877   9.772  18.333  0.00  0.00    +0.000 A 
ATOM     12  C   UNL     1      -0.002  10.561  19.056  0.00  0.00    +0.000 A 
ATOM     13  C   UNL     1      -0.138  10.351  20.427  0.00  0.00    +0.000 A 
ATOM     14  C   UNL     1      -1.003  11.158  21.184  0.00  0.00    +0.000 A 
ATOM     15  C   UNL     1      -1.126  10.961  22.554  0.00  0.00    +0.000 A 
ATOM     16  C   UNL     1      -0.392   9.951  23.166  0.00  0.00    +0.000 A 
ATOM     17  C   UNL     1       0.464   9.142  22.404  0.00  0.00    +0.000 A 
ATOM     18  C   UNL     1       0.620   9.317  21.033  0.00  0.00    +0.000 A 
ATOM     19  N   UNL     1       1.474   8.529  20.332  0.00  0.00    +0.000 NA
ENDBRANCH   6  10
BRANCH   1  20
ATOM     20  S   UNL     1       6.649   4.155  15.799  0.00  0.00    +0.000 S 
BRANCH  20  22
ATOM     21  C   UNL     1       5.925   3.712  13.223  0.00  0.00    +0.000 C 
ATOM     22  C   UNL     1       6.348   4.842  14.153  0.00  0.00    +0.000 C 
ENDBRANCH  20  22
ENDBRANCH   1  20
TORSDOF 3
ENDMDL
MODEL 7
REMARK VINA RESULT:      -7.0      6.666      8.382
REMARK  Name = 
REMARK  4 active torsions:
REMARK  status: ('A' for Active; 'I' for Inactive)
REMARK    1  A    between atoms: C_1  and  C_2
REMARK    2  A    between atoms: C_2  and  S_3
REMARK    3  A    between atoms: S_3  and  C_4
REMARK    4  A    between atoms: C_9  and  C_11
REMARK                            x       y       z     vdW  Elec       q    Type
REMARK                         _______ _______ _______ _____ _____    ______ ____
ROOT
ATOM      1  C   UNL     1       4.701   4.666  17.185  0.00  0.00    +0.000 A 
ATOM      2  N   UNL     1       4.161   3.993  18.178  0.00  0.00    +0.000 NA
ATOM      3  N   UNL     1       3.347   4.806  18.969  0.00  0.00    +0.000 NA
ATOM      4  C   UNL     1       3.262   6.034  18.499  0.00  0.00    +0.000 A 
ATOM      5  N   UNL     1       2.521   7.045  19.080  0.00  0.00    +0.000 N 
ATOM      6  C   UNL     1       2.206   8.238  18.460  0.00  0.00    +0.000 C 
ATOM      7  O   UNL     1       2.491   8.550  17.310  0.00  0.00    +0.000 OA
ATOM      8  S   UNL     1       4.237   6.307  17.122  0.00  0.00    +0.000 S 
ATOM      9  H   UNL     1       2.101   6.847  19.981  0.00  0.00    +0.000 HD
ENDROOT
BRANCH   6  10
ATOM     10  C   UNL     1       1.413   9.220  19.268  0.00  0.00    +0.000 A 
ATOM     11  C   UNL     1       1.266  10.505  18.755  0.00  0.00    +0.000 A 
ATOM     12  C   UNL     1       0.572  11.443  19.501  0.00  0.00    +0.000 A 
ATOM     13  C   UNL     1       0.051  11.080  20.742  0.00  0.00    +0.000 A 
ATOM     14  C   UNL     1      -0.632  12.024  21.526  0.00  0.00    +0.000 A 
ATOM     15  C   UNL     1      -1.136  11.667  22.771  0.00  0.00    +0.000 A 
ATOM     16  C   UNL     1      -0.966  10.366  23.228  0.00  0.00    +0.000 A 
ATOM     17  C   UNL     1      -0.290   9.424  22.437  0.00  0.00    +0.000 A 
ATOM     18  C   UNL     1       0.237   9.748  21.191  0.00  0.00    +0.000 A 
ATOM     19  N   UNL     1       0.903   8.817  20.463  0.00  0.00    +0.000 NA
ENDBRANCH   6  10
BRANCH   1  20
ATOM     20  S   UNL     1       5.862   4.014  16.052  0.00  0.00    +0.000 S 
BRANCH  20  22
ATOM     21  C   UNL     1       7.615   4.847  17.947  0.00  0.00    +0.000 C 
ATOM     22  C   UNL     1       7.369   4.934  16.446  0.00  0.00    +0.000 C 
ENDBRANCH  20  22
ENDBRANCH   1  20
TORSDOF 3
ENDMDL
MODEL 8
REMARK VINA RESULT:      -6.9      7.166      8.520
REMARK  Name = 
REMARK  4 active torsions:
REMARK  status: ('A' for Active; 'I' for Inactive)
REMARK    1  A    between atoms: C_1  and  C_2
REMARK    2  A    between atoms: C_2  and  S_3
REMARK    3  A    between atoms: S_3  and  C_4
REMARK    4  A    between atoms: C_9  and  C_11
REMARK                            x       y       z     vdW  Elec       q    Type
REMARK                         _______ _______ _______ _____ _____    ______ ____
ROOT
ATOM      1  C   UNL     1       4.846   4.698  17.861  0.00  0.00    +0.000 A 
ATOM      2  N   UNL     1       4.474   3.942  18.871  0.00  0.00    +0.000 NA
ATOM      3  N   UNL     1       3.644   4.634  19.756  0.00  0.00    +0.000 NA
ATOM      4  C   UNL     1       3.380   5.855  19.338  0.00  0.00    +0.000 A 
ATOM      5  N   UNL     1       2.582   6.758  20.013  0.00  0.00    +0.000 N 
ATOM      6  C   UNL     1       2.081   7.922  19.464  0.00  0.00    +0.000 C 
ATOM      7  O   UNL     1       2.228   8.295  18.306  0.00  0.00    +0.000 OA
ATOM      8  S   UNL     1       4.194   6.275  17.894  0.00  0.00    +0.000 S 
ATOM      9  H   UNL     1       2.266   6.490  20.938  0.00  0.00    +0.000 HD
ENDROOT
BRANCH   6  10
ATOM     10  C   UNL     1       1.254   8.785  20.369  0.00  0.00    +0.000 A 
ATOM     11  C   UNL     1       1.278   8.498  21.729  0.00  0.00    +0.000 A 
ATOM     12  C   UNL     1       0.492   9.255  22.583  0.00  0.00    +0.000 A 
ATOM     13  C   UNL     1      -0.305  10.270  22.057  0.00  0.00    +0.000 A 
ATOM     14  C   UNL     1      -1.130  11.030  22.901  0.00  0.00    +0.000 A 
ATOM     15  C   UNL     1      -1.938  12.031  22.375  0.00  0.00    +0.000 A 
ATOM     16  C   UNL     1      -1.914  12.279  21.008  0.00  0.00    +0.000 A 
ATOM     17  C   UNL     1      -1.081  11.522  20.170  0.00  0.00    +0.000 A 
ATOM     18  C   UNL     1      -0.267  10.505  20.659  0.00  0.00    +0.000 A 
ATOM     19  N   UNL     1       0.509   9.780  19.815  0.00  0.00    +0.000 NA
ENDBRANCH   6  10
BRANCH   1  20
ATOM     20  S   UNL     1       5.971   4.214  16.614  0.00  0.00    +0.000 S 
BRANCH  20  22
ATOM     21  C   UNL     1       5.766   4.170  13.909  0.00  0.00    +0.000 C 
ATOM     22  C   UNL     1       5.252   4.938  15.120  0.00  0.00    +0.000 C 
ENDBRANCH  20  22
ENDBRANCH   1  20
TORSDOF 3
ENDMDL
MODEL 9
REMARK VINA RESULT:      -6.8      6.555      9.562
REMARK  Name = 
REMARK  4 active torsions:
REMARK  status: ('A' for Active; 'I' for Inactive)
REMARK    1  A    between atoms: C_1  and  C_2
REMARK    2  A    between atoms: C_2  and  S_3
REMARK    3  A    between atoms: S_3  and  C_4
REMARK    4  A    between atoms: C_9  and  C_11
REMARK                            x       y       z     vdW  Elec       q    Type
REMARK                         _______ _______ _______ _____ _____    ______ ____
ROOT
ATOM      1  C   UNL     1       0.028  10.030  21.558  0.00  0.00    +0.000 A 
ATOM      2  N   UNL     1       0.016  10.703  20.428  0.00  0.00    +0.000 NA
ATOM      3  N   UNL     1       0.753  10.056  19.434  0.00  0.00    +0.000 NA
ATOM      4  C   UNL     1       1.232   8.899  19.843  0.00  0.00    +0.000 A 
ATOM      5  N   UNL     1       1.992   8.047  19.065  0.00  0.00    +0.000 N 
ATOM      6  C   UNL     1       2.263   6.731  19.383  0.00  0.00    +0.000 C 
ATOM      7  O   UNL     1       1.838   6.122  20.358  0.00  0.00    +0.000 OA
ATOM      8  S   UNL     1       0.897   8.563  21.485  0.00  0.00    +0.000 S 
ATOM      9  H   UNL     1       2.281   8.390  18.156  0.00  0.00    +0.000 HD
ENDROOT
BRANCH   6  10
ATOM     10  C   UNL     1       3.132   5.978  18.421  0.00  0.00    +0.000 A 
ATOM     11  C   UNL     1       2.707   4.714  18.024  0.00  0.00    +0.000 A 
ATOM     12  C   UNL     1       3.510   3.981  17.166  0.00  0.00    +0.000 A 
ATOM     13  C   UNL     1       4.721   4.521  16.737  0.00  0.00    +0.000 A 
ATOM     14  C   UNL     1       5.563   3.783  15.890  0.00  0.00    +0.000 A 
ATOM     15  C   UNL     1       6.779   4.313  15.475  0.00  0.00    +0.000 A 
ATOM     16  C   UNL     1       7.148   5.585  15.898  0.00  0.00    +0.000 A 
ATOM     17  C   UNL     1       6.299   6.322  16.737  0.00  0.00    +0.000 A 
ATOM     18  C   UNL     1       5.080   5.819  17.181  0.00  0.00    +0.000 A 
ATOM     19  N   UNL     1       4.294   6.552  18.009  0.00  0.00    +0.000 NA
ENDBRANCH   6  10
BRANCH   1  20
ATOM     20  S   UNL     1      -0.691  10.578  23.054  0.00  0.00    +0.000 S 
BRANCH  20  22
ATOM     21  C   UNL     1      -2.665  12.409  22.723  0.00  0.00    +0.000 C 
ATOM     22  C   UNL     1      -1.147  12.288  22.679  0.00  0.00    +0.000 C 
ENDBRANCH  20  22
ENDBRANCH   1  20
TORSDOF 3
ENDMDL
