MODEL 1
REMARK VINA RESULT:      -8.0      0.000      0.000
REMARK  Name = 
REMARK  5 active torsions:
REMARK  status: ('A' for Active; 'I' for Inactive)
REMARK    1  A    between atoms: C_1  and  O_2
REMARK    2  A    between atoms: O_2  and  C_3
REMARK    3  A    between atoms: C_15  and  N_16
REMARK    4  A    between atoms: N_16  and  C_17
REMARK    5  A    between atoms: C_22  and  N_23
REMARK                            x       y       z     vdW  Elec       q    Type
REMARK                         _______ _______ _______ _____ _____    ______ ____
ROOT
ATOM      1  C   UNL     1       3.189   2.969  19.965  0.00  0.00    +0.000 A 
ATOM      2  C   UNL     1       2.362   3.195  21.057  0.00  0.00    +0.000 A 
ATOM      3  C   UNL     1       1.810   4.464  21.252  0.00  0.00    +0.000 A 
ATOM      4  C   UNL     1       2.052   5.514  20.384  0.00  0.00    +0.000 A 
ATOM      5  N   UNL     1       1.486   6.691  20.670  0.00  0.00    +0.000 NA
ATOM      6  C   UNL     1       1.654   7.724  19.839  0.00  0.00    +0.000 A 
ATOM      7  C   UNL     1       1.067   8.927  20.198  0.00  0.00    +0.000 A 
ATOM      8  C   UNL     1       1.167  10.054  19.386  0.00  0.00    +0.000 A 
ATOM      9 CL   UNL     1       0.484  11.544  19.903  0.00  0.00    +0.000 Cl
ATOM     10  C   UNL     1       1.822   9.973  18.165  0.00  0.00    +0.000 A 
ATOM     11  C   UNL     1       2.417   8.773  17.793  0.00  0.00    +0.000 A 
ATOM     12  C   UNL     1       2.405   7.641  18.648  0.00  0.00    +0.000 A 
ATOM     13  C   UNL     1       3.107   6.422  18.416  0.00  0.00    +0.000 A 
ATOM     14  C   UNL     1       2.885   5.310  19.271  0.00  0.00    +0.000 A 
ATOM     15  C   UNL     1       3.465   4.025  19.094  0.00  0.00    +0.000 A 
ENDROOT
BRANCH   1  17
ATOM     16  C   UNL     1       3.736   1.368  18.314  0.00  0.00    +0.000 C 
ATOM     17  O   UNL     1       3.801   1.781  19.678  0.00  0.00    +0.000 OA
ENDBRANCH   1  17
BRANCH  13  18
ATOM     18  N   UNL     1       4.010   6.267  17.324  0.00  0.00    +0.000 N 
ATOM     19  H   UNL     1       3.877   6.960  16.589  0.00  0.00    +0.000 HD
BRANCH  18  20
ATOM     20  C   UNL     1       5.335   5.765  17.341  0.00  0.00    +0.000 A 
ATOM     21  C   UNL     1       6.265   6.128  18.320  0.00  0.00    +0.000 A 
ATOM     22  C   UNL     1       7.539   5.572  18.319  0.00  0.00    +0.000 A 
ATOM     23  C   UNL     1       7.835   4.623  17.359  0.00  0.00    +0.000 A 
ATOM     24  N   UNL     1       6.963   4.215  16.411  0.00  0.00    +0.000 NA
ATOM     25  C   UNL     1       5.738   4.777  16.422  0.00  0.00    +0.000 A 
BRANCH  25  26
ATOM     26  N   UNL     1       4.857   4.327  15.426  0.00  0.00    +0.000 N 
ATOM     27  H   UNL     1       4.882   3.311  15.489  0.00  0.00    +0.000 HD
ATOM     28  H   UNL     1       3.921   4.675  15.618  0.00  0.00    +0.000 HD
ENDBRANCH  25  26
ENDBRANCH  18  20
ENDBRANCH  13  18
TORSDOF 4
ENDMDL
MODEL 2
REMARK VINA RESULT:      -7.9      4.746      8.264
REMARK  Name = 
REMARK  5 active torsions:
REMARK  status: ('A' for Active; 'I' for Inactive)
REMARK    1  A    between atoms: C_1  and  O_2
REMARK    2  A    between atoms: O_2  and  C_3
REMARK    3  A    between atoms: C_15  and  N_16
REMARK    4  A    between atoms: N_16  and  C_17
REMARK    5  A    between atoms: C_22  and  N_23
REMARK                            x       y       z     vdW  Elec       q    Type
REMARK                         _______ _______ _______ _____ _____    ______ ____
ROOT
ATOM      1  C   UNL     1      -1.249  11.393  22.557  0.00  0.00    +0.000 A 
ATOM      2  C   UNL     1      -0.762  10.456  23.459  0.00  0.00    +0.000 A 
ATOM      3  C   UNL     1       0.063   9.425  23.003  0.00  0.00    +0.000 A 
ATOM      4  C   UNL     1       0.424   9.303  21.673  0.00  0.00    +0.000 A 
ATOM      5  N   UNL     1       1.206   8.272  21.339  0.00  0.00    +0.000 NA
ATOM      6  C   UNL     1       1.618   8.137  20.075  0.00  0.00    +0.000 A 
ATOM      7  C   UNL     1       2.405   7.036  19.781  0.00  0.00    +0.000 A 
ATOM      8  C   UNL     1       2.901   6.821  18.497  0.00  0.00    +0.000 A 
ATOM      9 CL   UNL     1       3.815   5.404  18.158  0.00  0.00    +0.000 Cl
ATOM     10  C   UNL     1       2.653   7.747  17.493  0.00  0.00    +0.000 A 
ATOM     11  C   UNL     1       1.864   8.856  17.775  0.00  0.00    +0.000 A 
ATOM     12  C   UNL     1       1.274   9.044  19.051  0.00  0.00    +0.000 A 
ATOM     13  C   UNL     1       0.339  10.066  19.387  0.00  0.00    +0.000 A 
ATOM     14  C   UNL     1      -0.055  10.240  20.741  0.00  0.00    +0.000 A 
ATOM     15  C   UNL     1      -0.916  11.271  21.207  0.00  0.00    +0.000 A 
ENDROOT
BRANCH   1  17
ATOM     16  C   UNL     1      -3.228  12.089  23.647  0.00  0.00    +0.000 C 
ATOM     17  O   UNL     1      -2.076  12.433  22.878  0.00  0.00    +0.000 OA
ENDBRANCH   1  17
BRANCH  13  18
ATOM     18  N   UNL     1      -0.195  10.954  18.408  0.00  0.00    +0.000 N 
ATOM     19  H   UNL     1       0.522  11.413  17.847  0.00  0.00    +0.000 HD
BRANCH  18  20
ATOM     20  C   UNL     1      -1.427  10.863  17.716  0.00  0.00    +0.000 A 
ATOM     21  C   UNL     1      -1.717   9.824  16.825  0.00  0.00    +0.000 A 
ATOM     22  C   UNL     1      -2.959   9.756  16.206  0.00  0.00    +0.000 A 
ATOM     23  C   UNL     1      -3.905  10.709  16.535  0.00  0.00    +0.000 A 
ATOM     24  N   UNL     1      -3.687  11.714  17.412  0.00  0.00    +0.000 NA
ATOM     25  C   UNL     1      -2.470  11.770  17.989  0.00  0.00    +0.000 A 
BRANCH  25  26
ATOM     26  N   UNL     1      -2.279  12.823  18.898  0.00  0.00    +0.000 N 
ATOM     27  H   UNL     1      -2.063  13.635  18.321  0.00  0.00    +0.000 HD
ATOM     28  H   UNL     1      -3.134  12.976  19.425  0.00  0.00    +0.000 HD
ENDBRANCH  25  26
ENDBRANCH  18  20
ENDBRANCH  13  18
TORSDOF 4
ENDMDL
MODEL 3
REMARK VINA RESULT:      -7.9      1.703      2.278
REMARK  Name = 
REMARK  5 active torsions:
REMARK  status: ('A' for Active; 'I' for Inactive)
REMARK    1  A    between atoms: C_1  and  O_2
REMARK    2  A    between atoms: O_2  and  C_3
REMARK    3  A    between atoms: C_15  and  N_16
REMARK    4  A    between atoms: N_16  and  C_17
REMARK    5  A    between atoms: C_22  and  N_23
REMARK                            x       y       z     vdW  Elec       q    Type
REMARK                         _______ _______ _______ _____ _____    ______ ____
ROOT
ATOM      1  C   UNL     1       4.427   2.106  20.516  0.00  0.00    +0.000 A 
ATOM      2  C   UNL     1       3.213   2.214  21.181  0.00  0.00    +0.000 A 
ATOM      3  C   UNL     1       2.443   3.369  21.026  0.00  0.00    +0.000 A 
ATOM      4  C   UNL     1       2.843   4.419  20.219  0.00  0.00    +0.000 A 
ATOM      5  N   UNL     1       2.039   5.484  20.150  0.00  0.00    +0.000 NA
ATOM      6  C   UNL     1       2.361   6.505  19.350  0.00  0.00    +0.000 A 
ATOM      7  C   UNL     1       1.504   7.594  19.338  0.00  0.00    +0.000 A 
ATOM      8  C   UNL     1       1.743   8.696  18.520  0.00  0.00    +0.000 A 
ATOM      9 CL   UNL     1       0.693  10.056  18.589  0.00  0.00    +0.000 Cl
ATOM     10  C   UNL     1       2.829   8.696  17.656  0.00  0.00    +0.000 A 
ATOM     11  C   UNL     1       3.697   7.610  17.658  0.00  0.00    +0.000 A 
ATOM     12  C   UNL     1       3.522   6.521  18.550  0.00  0.00    +0.000 A 
ATOM     13  C   UNL     1       4.436   5.440  18.725  0.00  0.00    +0.000 A 
ATOM     14  C   UNL     1       4.067   4.332  19.534  0.00  0.00    +0.000 A 
ATOM     15  C   UNL     1       4.859   3.167  19.718  0.00  0.00    +0.000 A 
ENDROOT
BRANCH   1  17
ATOM     16  C   UNL     1       5.717   0.707  21.918  0.00  0.00    +0.000 C 
ATOM     17  O   UNL     1       5.275   1.037  20.602  0.00  0.00    +0.000 OA
ENDBRANCH   1  17
BRANCH  13  18
ATOM     18  N   UNL     1       5.707   5.415  18.081  0.00  0.00    +0.000 N 
ATOM     19  H   UNL     1       6.478   5.214  18.717  0.00  0.00    +0.000 HD
BRANCH  18  20
ATOM     20  C   UNL     1       6.012   5.039  16.749  0.00  0.00    +0.000 A 
ATOM     21  C   UNL     1       5.318   4.030  16.074  0.00  0.00    +0.000 A 
ATOM     22  C   UNL     1       5.626   3.730  14.752  0.00  0.00    +0.000 A 
ATOM     23  C   UNL     1       6.594   4.487  14.120  0.00  0.00    +0.000 A 
ATOM     24  N   UNL     1       7.272   5.492  14.718  0.00  0.00    +0.000 NA
ATOM     25  C   UNL     1       6.968   5.756  16.004  0.00  0.00    +0.000 A 
BRANCH  25  26
ATOM     26  N   UNL     1       7.686   6.809  16.591  0.00  0.00    +0.000 N 
ATOM     27  H   UNL     1       7.402   6.811  17.570  0.00  0.00    +0.000 HD
ATOM     28  H   UNL     1       8.683   6.629  16.509  0.00  0.00    +0.000 HD
ENDBRANCH  25  26
ENDBRANCH  18  20
ENDBRANCH  13  18
TORSDOF 4
ENDMDL
MODEL 4
REMARK VINA RESULT:      -7.7      2.789      5.672
REMARK  Name = 
REMARK  5 active torsions:
REMARK  status: ('A' for Active; 'I' for Inactive)
REMARK    1  A    between atoms: C_1  and  O_2
REMARK    2  A    between atoms: O_2  and  C_3
REMARK    3  A    between atoms: C_15  and  N_16
REMARK    4  A    between atoms: N_16  and  C_17
REMARK    5  A    between atoms: C_22  and  N_23
REMARK                            x       y       z     vdW  Elec       q    Type
REMARK                         _______ _______ _______ _____ _____    ______ ____
ROOT
ATOM      1  C   UNL     1       1.488   2.847  19.925  0.00  0.00    +0.000 A 
ATOM      2  C   UNL     1       1.667   1.779  19.054  0.00  0.00    +0.000 A 
ATOM      3  C   UNL     1       2.562   1.902  17.989  0.00  0.00    +0.000 A 
ATOM      4  C   UNL     1       3.292   3.056  17.768  0.00  0.00    +0.000 A 
ATOM      5  N   UNL     1       4.111   3.074  16.712  0.00  0.00    +0.000 NA
ATOM      6  C   UNL     1       4.870   4.150  16.482  0.00  0.00    +0.000 A 
ATOM      7  C   UNL     1       5.680   4.124  15.359  0.00  0.00    +0.000 A 
ATOM      8  C   UNL     1       6.523   5.189  15.048  0.00  0.00    +0.000 A 
ATOM      9 CL   UNL     1       7.459   5.146  13.606  0.00  0.00    +0.000 Cl
ATOM     10  C   UNL     1       6.602   6.282  15.898  0.00  0.00    +0.000 A 
ATOM     11  C   UNL     1       5.794   6.321  17.029  0.00  0.00    +0.000 A 
ATOM     12  C   UNL     1       4.862   5.290  17.313  0.00  0.00    +0.000 A 
ATOM     13  C   UNL     1       3.897   5.313  18.361  0.00  0.00    +0.000 A 
ATOM     14  C   UNL     1       3.130   4.150  18.636  0.00  0.00    +0.000 A 
ATOM     15  C   UNL     1       2.198   4.029  19.702  0.00  0.00    +0.000 A 
ENDROOT
BRANCH   1  17
ATOM     16  C   UNL     1       1.191   2.436  22.233  0.00  0.00    +0.000 C 
ATOM     17  O   UNL     1       0.631   2.854  20.989  0.00  0.00    +0.000 OA
ENDBRANCH   1  17
BRANCH  13  18
ATOM     18  N   UNL     1       3.695   6.465  19.177  0.00  0.00    +0.000 N 
ATOM     19  H   UNL     1       4.532   6.750  19.686  0.00  0.00    +0.000 HD
BRANCH  18  20
ATOM     20  C   UNL     1       2.813   7.552  18.962  0.00  0.00    +0.000 A 
ATOM     21  C   UNL     1       2.752   8.244  17.748  0.00  0.00    +0.000 A 
ATOM     22  C   UNL     1       1.837   9.275  17.572  0.00  0.00    +0.000 A 
ATOM     23  C   UNL     1       0.966   9.556  18.608  0.00  0.00    +0.000 A 
ATOM     24  N   UNL     1       0.963   8.898  19.788  0.00  0.00    +0.000 NA
ATOM     25  C   UNL     1       1.868   7.912  19.942  0.00  0.00    +0.000 A 
BRANCH  25  26
ATOM     26  N   UNL     1       1.834   7.247  21.178  0.00  0.00    +0.000 N 
ATOM     27  H   UNL     1       2.106   7.949  21.864  0.00  0.00    +0.000 HD
ATOM     28  H   UNL     1       0.891   6.914  21.359  0.00  0.00    +0.000 HD
ENDBRANCH  25  26
ENDBRANCH  18  20
ENDBRANCH  13  18
TORSDOF 4
ENDMDL
MODEL 5
REMARK VINA RESULT:      -7.6      4.568      7.889
REMARK  Name = 
REMARK  5 active torsions:
REMARK  status: ('A' for Active; 'I' for Inactive)
REMARK    1  A    between atoms: C_1  and  O_2
REMARK    2  A    between atoms: O_2  and  C_3
REMARK    3  A    between atoms: C_15  and  N_16
REMARK    4  A    between atoms: N_16  and  C_17
REMARK    5  A    between atoms: C_22  and  N_23
REMARK                            x       y       z     vdW  Elec       q    Type
REMARK                         _______ _______ _______ _____ _____    ______ ____
ROOT
ATOM      1  C   UNL     1      -0.948  11.204  22.373  0.00  0.00    +0.000 A 
ATOM      2  C   UNL     1      -0.789  10.107  23.210  0.00  0.00    +0.000 A 
ATOM      3  C   UNL     1      -0.065   8.999  22.763  0.00  0.00    +0.000 A 
ATOM      4  C   UNL     1       0.513   8.954  21.507  0.00  0.00    +0.000 A 
ATOM      5  N   UNL     1       1.172   7.840  21.173  0.00  0.00    +0.000 NA
ATOM      6  C   UNL     1       1.786   7.766  19.987  0.00  0.00    +0.000 A 
ATOM      7  C   UNL     1       2.432   6.578  19.684  0.00  0.00    +0.000 A 
ATOM      8  C   UNL     1       3.118   6.413  18.483  0.00  0.00    +0.000 A 
ATOM      9 CL   UNL     1       3.845   4.900  18.114  0.00  0.00    +0.000 Cl
ATOM     10  C   UNL     1       3.208   7.467  17.584  0.00  0.00    +0.000 A 
ATOM     11  C   UNL     1       2.564   8.664  17.877  0.00  0.00    +0.000 A 
ATOM     12  C   UNL     1       1.783   8.820  19.051  0.00  0.00    +0.000 A 
ATOM     13  C   UNL     1       0.974   9.952  19.362  0.00  0.00    +0.000 A 
ATOM     14  C   UNL     1       0.368  10.052  20.642  0.00  0.00    +0.000 A 
ATOM     15  C   UNL     1      -0.393  11.165  21.092  0.00  0.00    +0.000 A 
ENDROOT
BRANCH   1  17
ATOM     16  C   UNL     1      -2.884  12.125  23.368  0.00  0.00    +0.000 C 
ATOM     17  O   UNL     1      -1.647  12.335  22.688  0.00  0.00    +0.000 OA
ENDBRANCH   1  17
BRANCH  13  18
ATOM     18  N   UNL     1       0.777  11.017  18.435  0.00  0.00    +0.000 N 
ATOM     19  H   UNL     1       0.044  10.827  17.752  0.00  0.00    +0.000 HD
BRANCH  18  20
ATOM     20  C   UNL     1       0.960  12.407  18.638  0.00  0.00    +0.000 A 
ATOM     21  C   UNL     1       2.170  12.951  19.080  0.00  0.00    +0.000 A 
ATOM     22  C   UNL     1       2.312  14.326  19.220  0.00  0.00    +0.000 A 
ATOM     23  C   UNL     1       1.246  15.131  18.865  0.00  0.00    +0.000 A 
ATOM     24  N   UNL     1       0.067  14.658  18.405  0.00  0.00    +0.000 NA
ATOM     25  C   UNL     1      -0.054  13.320  18.290  0.00  0.00    +0.000 A 
BRANCH  25  26
ATOM     26  N   UNL     1      -1.289  12.864  17.805  0.00  0.00    +0.000 N 
ATOM     27  H   UNL     1      -1.645  12.242  18.529  0.00  0.00    +0.000 HD
ATOM     28  H   UNL     1      -1.915  13.653  17.671  0.00  0.00    +0.000 HD
ENDBRANCH  25  26
ENDBRANCH  18  20
ENDBRANCH  13  18
TORSDOF 4
ENDMDL
MODEL 6
REMARK VINA RESULT:      -7.6      3.850      6.811
REMARK  Name = 
REMARK  5 active torsions:
REMARK  status: ('A' for Active; 'I' for Inactive)
REMARK    1  A    between atoms: C_1  and  O_2
REMARK    2  A    between atoms: O_2  and  C_3
REMARK    3  A    between atoms: C_15  and  N_16
REMARK    4  A    between atoms: N_16  and  C_17
REMARK    5  A    between atoms: C_22  and  N_23
REMARK                            x       y       z     vdW  Elec       q    Type
REMARK                         _______ _______ _______ _____ _____    ______ ____
ROOT
ATOM      1  C   UNL     1       5.930   3.011  12.318  0.00  0.00    +0.000 A 
ATOM      2  C   UNL     1       6.768   4.017  11.853  0.00  0.00    +0.000 A 
ATOM      3  C   UNL     1       7.299   4.942  12.754  0.00  0.00    +0.000 A 
ATOM      4  C   UNL     1       7.027   4.891  14.110  0.00  0.00    +0.000 A 
ATOM      5  N   UNL     1       7.575   5.833  14.884  0.00  0.00    +0.000 NA
ATOM      6  C   UNL     1       7.377   5.800  16.205  0.00  0.00    +0.000 A 
ATOM      7  C   UNL     1       7.947   6.816  16.955  0.00  0.00    +0.000 A 
ATOM      8  C   UNL     1       7.816   6.856  18.341  0.00  0.00    +0.000 A 
ATOM      9 CL   UNL     1       8.479   8.172  19.227  0.00  0.00    +0.000 Cl
ATOM     10  C   UNL     1       7.146   5.836  19.004  0.00  0.00    +0.000 A 
ATOM     11  C   UNL     1       6.569   4.811  18.263  0.00  0.00    +0.000 A 
ATOM     12  C   UNL     1       6.613   4.803  16.845  0.00  0.00    +0.000 A 
ATOM     13  C   UNL     1       5.929   3.879  16.002  0.00  0.00    +0.000 A 
ATOM     14  C   UNL     1       6.183   3.882  14.605  0.00  0.00    +0.000 A 
ATOM     15  C   UNL     1       5.623   2.960  13.679  0.00  0.00    +0.000 A 
ENDROOT
BRANCH   1  17
ATOM     16  C   UNL     1       6.194   1.016  11.079  0.00  0.00    +0.000 C 
ATOM     17  O   UNL     1       5.337   2.062  11.534  0.00  0.00    +0.000 OA
ENDBRANCH   1  17
BRANCH  13  18
ATOM     18  N   UNL     1       5.015   2.916  16.522  0.00  0.00    +0.000 N 
ATOM     19  H   UNL     1       5.455   2.025  16.750  0.00  0.00    +0.000 HD
BRANCH  18  20
ATOM     20  C   UNL     1       3.845   3.137  17.289  0.00  0.00    +0.000 A 
ATOM     21  C   UNL     1       3.087   4.309  17.186  0.00  0.00    +0.000 A 
ATOM     22  C   UNL     1       1.921   4.458  17.928  0.00  0.00    +0.000 A 
ATOM     23  C   UNL     1       1.514   3.402  18.721  0.00  0.00    +0.000 A 
ATOM     24  N   UNL     1       2.192   2.238  18.832  0.00  0.00    +0.000 NA
ATOM     25  C   UNL     1       3.328   2.121  18.116  0.00  0.00    +0.000 A 
BRANCH  25  26
ATOM     26  N   UNL     1       4.004   0.899  18.250  0.00  0.00    +0.000 N 
ATOM     27  H   UNL     1       3.598   0.460  19.075  0.00  0.00    +0.000 HD
ATOM     28  H   UNL     1       3.843   0.328  17.425  0.00  0.00    +0.000 HD
ENDBRANCH  25  26
ENDBRANCH  18  20
ENDBRANCH  13  18
TORSDOF 4
ENDMDL
MODEL 7
REMARK VINA RESULT:      -7.5      5.269      8.242
REMARK  Name = 
REMARK  5 active torsions:
REMARK  status: ('A' for Active; 'I' for Inactive)
REMARK    1  A    between atoms: C_1  and  O_2
REMARK    2  A    between atoms: O_2  and  C_3
REMARK    3  A    between atoms: C_15  and  N_16
REMARK    4  A    between atoms: N_16  and  C_17
REMARK    5  A    between atoms: C_22  and  N_23
REMARK                            x       y       z     vdW  Elec       q    Type
REMARK                         _______ _______ _______ _____ _____    ______ ____
ROOT
ATOM      1  C   UNL     1      -2.993  10.875  16.441  0.00  0.00    +0.000 A 
ATOM      2  C   UNL     1      -4.303  11.228  16.735  0.00  0.00    +0.000 A 
ATOM      3  C   UNL     1      -4.608  11.764  17.988  0.00  0.00    +0.000 A 
ATOM      4  C   UNL     1      -3.642  11.966  18.958  0.00  0.00    +0.000 A 
ATOM      5  N   UNL     1      -4.041  12.472  20.129  0.00  0.00    +0.000 NA
ATOM      6  C   UNL     1      -3.139  12.727  21.082  0.00  0.00    +0.000 A 
ATOM      7  C   UNL     1      -3.613  13.226  22.284  0.00  0.00    +0.000 A 
ATOM      8  C   UNL     1      -2.748  13.543  23.329  0.00  0.00    +0.000 A 
ATOM      9 CL   UNL     1      -3.383  14.093  24.829  0.00  0.00    +0.000 Cl
ATOM     10  C   UNL     1      -1.377  13.410  23.159  0.00  0.00    +0.000 A 
ATOM     11  C   UNL     1      -0.889  12.910  21.957  0.00  0.00    +0.000 A 
ATOM     12  C   UNL     1      -1.759  12.494  20.916  0.00  0.00    +0.000 A 
ATOM     13  C   UNL     1      -1.357  11.839  19.716  0.00  0.00    +0.000 A 
ATOM     14  C   UNL     1      -2.308  11.618  18.684  0.00  0.00    +0.000 A 
ATOM     15  C   UNL     1      -2.009  11.048  17.417  0.00  0.00    +0.000 A 
ENDROOT
BRANCH   1  17
ATOM     16  C   UNL     1      -3.589  10.144  14.274  0.00  0.00    +0.000 C 
ATOM     17  O   UNL     1      -2.575  10.327  15.261  0.00  0.00    +0.000 OA
ENDBRANCH   1  17
BRANCH  13  18
ATOM     18  N   UNL     1      -0.011  11.423  19.496  0.00  0.00    +0.000 N 
ATOM     19  H   UNL     1       0.657  12.192  19.515  0.00  0.00    +0.000 HD
BRANCH  18  20
ATOM     20  C   UNL     1       0.596  10.189  19.839  0.00  0.00    +0.000 A 
ATOM     21  C   UNL     1       0.370   9.553  21.064  0.00  0.00    +0.000 A 
ATOM     22  C   UNL     1       0.954   8.322  21.334  0.00  0.00    +0.000 A 
ATOM     23  C   UNL     1       1.715   7.730  20.343  0.00  0.00    +0.000 A 
ATOM     24  N   UNL     1       1.939   8.288  19.133  0.00  0.00    +0.000 NA
ATOM     25  C   UNL     1       1.375   9.489  18.898  0.00  0.00    +0.000 A 
BRANCH  25  26
ATOM     26  N   UNL     1       1.624  10.036  17.630  0.00  0.00    +0.000 N 
ATOM     27  H   UNL     1       2.445   9.543  17.284  0.00  0.00    +0.000 HD
ATOM     28  H   UNL     1       0.825   9.870  17.024  0.00  0.00    +0.000 HD
ENDBRANCH  25  26
ENDBRANCH  18  20
ENDBRANCH  13  18
TORSDOF 4
ENDMDL
MODEL 8
REMARK VINA RESULT:      -7.5      0.944      1.390
REMARK  Name = 
REMARK  5 active torsions:
REMARK  status: ('A' for Active; 'I' for Inactive)
REMARK    1  A    between atoms: C_1  and  O_2
REMARK    2  A    between atoms: O_2  and  C_3
REMARK    3  A    between atoms: C_15  and  N_16
REMARK    4  A    between atoms: N_16  and  C_17
REMARK    5  A    between atoms: C_22  and  N_23
REMARK                            x       y       z     vdW  Elec       q    Type
REMARK                         _______ _______ _______ _____ _____    ______ ____
ROOT
ATOM      1  C   UNL     1       3.466   3.208  19.662  0.00  0.00    +0.000 A 
ATOM      2  C   UNL     1       2.769   3.361  20.854  0.00  0.00    +0.000 A 
ATOM      3  C   UNL     1       2.182   4.592  21.155  0.00  0.00    +0.000 A 
ATOM      4  C   UNL     1       2.262   5.677  20.300  0.00  0.00    +0.000 A 
ATOM      5  N   UNL     1       1.677   6.813  20.690  0.00  0.00    +0.000 NA
ATOM      6  C   UNL     1       1.689   7.875  19.879  0.00  0.00    +0.000 A 
ATOM      7  C   UNL     1       1.091   9.034  20.345  0.00  0.00    +0.000 A 
ATOM      8  C   UNL     1       1.033  10.186  19.564  0.00  0.00    +0.000 A 
ATOM      9 CL   UNL     1       0.344  11.624  20.208  0.00  0.00    +0.000 Cl
ATOM     10  C   UNL     1       1.536  10.173  18.270  0.00  0.00    +0.000 A 
ATOM     11  C   UNL     1       2.140   9.016  17.790  0.00  0.00    +0.000 A 
ATOM     12  C   UNL     1       2.290   7.864  18.603  0.00  0.00    +0.000 A 
ATOM     13  C   UNL     1       3.020   6.691  18.248  0.00  0.00    +0.000 A 
ATOM     14  C   UNL     1       2.961   5.546  19.087  0.00  0.00    +0.000 A 
ATOM     15  C   UNL     1       3.579   4.300  18.799  0.00  0.00    +0.000 A 
ENDROOT
BRANCH   1  17
ATOM     16  C   UNL     1       3.589   1.462  18.075  0.00  0.00    +0.000 C 
ATOM     17  O   UNL     1       4.096   2.063  19.265  0.00  0.00    +0.000 OA
ENDBRANCH   1  17
BRANCH  13  18
ATOM     18  N   UNL     1       3.787   6.613  17.050  0.00  0.00    +0.000 N 
ATOM     19  H   UNL     1       3.813   7.489  16.529  0.00  0.00    +0.000 HD
BRANCH  18  20
ATOM     20  C   UNL     1       4.922   5.808  16.782  0.00  0.00    +0.000 A 
ATOM     21  C   UNL     1       4.833   4.572  16.134  0.00  0.00    +0.000 A 
ATOM     22  C   UNL     1       5.981   3.842  15.854  0.00  0.00    +0.000 A 
ATOM     23  C   UNL     1       7.203   4.395  16.187  0.00  0.00    +0.000 A 
ATOM     24  N   UNL     1       7.346   5.598  16.786  0.00  0.00    +0.000 NA
ATOM     25  C   UNL     1       6.218   6.283  17.062  0.00  0.00    +0.000 A 
BRANCH  25  26
ATOM     26  N   UNL     1       6.403   7.529  17.679  0.00  0.00    +0.000 N 
ATOM     27  H   UNL     1       5.590   8.081  17.411  0.00  0.00    +0.000 HD
ATOM     28  H   UNL     1       6.438   7.409  18.687  0.00  0.00    +0.000 HD
ENDBRANCH  25  26
ENDBRANCH  18  20
ENDBRANCH  13  18
TORSDOF 4
ENDMDL
MODEL 9
REMARK VINA RESULT:      -7.4      1.027      1.030
REMARK  Name = 
REMARK  5 active torsions:
REMARK  status: ('A' for Active; 'I' for Inactive)
REMARK    1  A    between atoms: C_1  and  O_2
REMARK    2  A    between atoms: O_2  and  C_3
REMARK    3  A    between atoms: C_15  and  N_16
REMARK    4  A    between atoms: N_16  and  C_17
REMARK    5  A    between atoms: C_22  and  N_23
REMARK                            x       y       z     vdW  Elec       q    Type
REMARK                         _______ _______ _______ _____ _____    ______ ____
ROOT
ATOM      1  C   UNL     1       2.584   2.522  19.650  0.00  0.00    +0.000 A 
ATOM      2  C   UNL     1       1.750   2.632  20.755  0.00  0.00    +0.000 A 
ATOM      3  C   UNL     1       1.283   3.890  21.143  0.00  0.00    +0.000 A 
ATOM      4  C   UNL     1       1.617   5.045  20.457  0.00  0.00    +0.000 A 
ATOM      5  N   UNL     1       1.127   6.199  20.919  0.00  0.00    +0.000 NA
ATOM      6  C   UNL     1       1.385   7.336  20.265  0.00  0.00    +0.000 A 
ATOM      7  C   UNL     1       0.874   8.505  20.804  0.00  0.00    +0.000 A 
ATOM      8  C   UNL     1       1.071   9.737  20.183  0.00  0.00    +0.000 A 
ATOM      9 CL   UNL     1       0.481  11.172  20.922  0.00  0.00    +0.000 Cl
ATOM     10  C   UNL     1       1.746   9.803  18.972  0.00  0.00    +0.000 A 
ATOM     11  C   UNL     1       2.264   8.637  18.421  0.00  0.00    +0.000 A 
ATOM     12  C   UNL     1       2.155   7.388  19.085  0.00  0.00    +0.000 A 
ATOM     13  C   UNL     1       2.776   6.173  18.670  0.00  0.00    +0.000 A 
ATOM     14  C   UNL     1       2.458   4.959  19.334  0.00  0.00    +0.000 A 
ATOM     15  C   UNL     1       2.952   3.680  18.962  0.00  0.00    +0.000 A 
ENDROOT
BRANCH   1  17
ATOM     16  C   UNL     1       3.779   1.437  17.923  0.00  0.00    +0.000 C 
ATOM     17  O   UNL     1       3.119   1.353  19.186  0.00  0.00    +0.000 OA
ENDBRANCH   1  17
BRANCH  13  18
ATOM     18  N   UNL     1       3.690   6.128  17.577  0.00  0.00    +0.000 N 
ATOM     19  H   UNL     1       3.324   6.554  16.727  0.00  0.00    +0.000 HD
BRANCH  18  20
ATOM     20  C   UNL     1       5.106   6.155  17.612  0.00  0.00    +0.000 A 
ATOM     21  C   UNL     1       5.839   5.803  18.750  0.00  0.00    +0.000 A 
ATOM     22  C   UNL     1       7.228   5.803  18.719  0.00  0.00    +0.000 A 
ATOM     23  C   UNL     1       7.853   6.109  17.525  0.00  0.00    +0.000 A 
ATOM     24  N   UNL     1       7.192   6.426  16.389  0.00  0.00    +0.000 NA
ATOM     25  C   UNL     1       5.846   6.435  16.446  0.00  0.00    +0.000 A 
BRANCH  25  26
ATOM     26  N   UNL     1       5.192   6.763  15.249  0.00  0.00    +0.000 N 
ATOM     27  H   UNL     1       4.226   6.470  15.386  0.00  0.00    +0.000 HD
ATOM     28  H   UNL     1       5.243   7.767  15.097  0.00  0.00    +0.000 HD
ENDBRANCH  25  26
ENDBRANCH  18  20
ENDBRANCH  13  18
TORSDOF 4
ENDMDL
