MODEL 1
REMARK VINA RESULT:      -8.9      0.000      0.000
REMARK  Name = 
REMARK  8 active torsions:
REMARK  status: ('A' for Active; 'I' for Inactive)
REMARK    1  A    between atoms: C_1  and  O_2
REMARK    2  A    between atoms: O_2  and  C_3
REMARK    3  A    between atoms: C_11  and  C_12
REMARK    4  A    between atoms: C_12  and  C_13
REMARK    5  A    between atoms: C_13  and  N_14
REMARK    6  A    between atoms: C_17  and  N_18
REMARK    7  A    between atoms: N_18  and  C_19
REMARK    8  A    between atoms: C_19  and  C_20
REMARK                            x       y       z     vdW  Elec       q    Type
REMARK                         _______ _______ _______ _____ _____    ______ ____
ROOT
ATOM      1  N   UNL     1       3.366   2.321  18.660  0.00  0.00    +0.000 NA
ATOM      2  C   UNL     1       3.648   3.226  19.798  0.00  0.00    +0.000 C 
ATOM      3  C   UNL     1       2.700   2.922  20.960  0.00  0.00    +0.000 C 
ATOM      4  C   UNL     1       1.250   3.155  20.497  0.00  0.00    +0.000 C 
ATOM      5  C   UNL     1       0.976   2.168  19.351  0.00  0.00    +0.000 C 
ATOM      6  C   UNL     1       1.954   2.419  18.204  0.00  0.00    +0.000 C 
ENDROOT
BRANCH   4   7
ATOM      7  N   UNL     1       1.062   4.551  20.052  0.00  0.00    +0.000 NA
ATOM      8  H   UNL     1       0.112   4.894  20.284  0.00  0.00    +0.000 HD
BRANCH   7   9
ATOM      9  C   UNL     1       1.971   5.498  20.716  0.00  0.00    +0.000 C 
BRANCH   9  10
ATOM     10  C   UNL     1       1.946   6.797  19.991  0.00  0.00    +0.000 A 
ATOM     11  C   UNL     1       2.456   7.072  18.683  0.00  0.00    +0.000 A 
ATOM     12  C   UNL     1       2.276   8.379  18.126  0.00  0.00    +0.000 A 
ATOM     13  C   UNL     1       1.606   9.347  18.916  0.00  0.00    +0.000 A 
ATOM     14  C   UNL     1       1.197   9.016  20.155  0.00  0.00    +0.000 A 
ATOM     15  C   UNL     1       1.335   7.792  20.701  0.00  0.00    +0.000 A 
ATOM     16  C   UNL     1       0.554  10.080  20.833  0.00  0.00    +0.000 C 
ATOM     17  C   UNL     1       0.650  11.194  19.815  0.00  0.00    +0.000 C 
ATOM     18  O   UNL     1       1.248  10.632  18.669  0.00  0.00    +0.000 OA
ENDBRANCH   9  10
ENDBRANCH   7   9
ENDBRANCH   4   7
BRANCH   1  19
ATOM     19  C   UNL     1       4.247   2.559  17.496  0.00  0.00    +0.000 C 
BRANCH  19  20
ATOM     20  C   UNL     1       3.960   3.886  16.758  0.00  0.00    +0.000 C 
BRANCH  20  29
ATOM     21  C   UNL     1       5.776   3.652  13.040  0.00  0.00    +0.000 A 
ATOM     22  C   UNL     1       7.001   4.276  12.729  0.00  0.00    +0.000 A 
ATOM     23  C   UNL     1       7.605   5.102  13.708  0.00  0.00    +0.000 A 
ATOM     24  C   UNL     1       6.996   5.277  14.938  0.00  0.00    +0.000 A 
ATOM     25  N   UNL     1       7.554   6.083  15.903  0.00  0.00    +0.000 NA
ATOM     26  C   UNL     1       6.975   6.242  17.114  0.00  0.00    +0.000 A 
ATOM     27  C   UNL     1       5.800   5.564  17.447  0.00  0.00    +0.000 A 
ATOM     28  F   UNL     1       5.284   5.728  18.688  0.00  0.00    +0.000 F 
ATOM     29  C   UNL     1       5.193   4.712  16.466  0.00  0.00    +0.000 A 
ATOM     30  C   UNL     1       5.806   4.607  15.228  0.00  0.00    +0.000 A 
ATOM     31  N   UNL     1       5.238   3.813  14.251  0.00  0.00    +0.000 NA
BRANCH  21  33
ATOM     32  C   UNL     1       4.073   3.251  11.342  0.00  0.00    +0.000 C 
ATOM     33  O   UNL     1       5.146   2.850  12.126  0.00  0.00    +0.000 OA
ENDBRANCH  21  33
ENDBRANCH  20  29
ENDBRANCH  19  20
ENDBRANCH   1  19
TORSDOF 7
ENDMDL
MODEL 2
REMARK VINA RESULT:      -8.8      2.542      7.364
REMARK  Name = 
REMARK  8 active torsions:
REMARK  status: ('A' for Active; 'I' for Inactive)
REMARK    1  A    between atoms: C_1  and  O_2
REMARK    2  A    between atoms: O_2  and  C_3
REMARK    3  A    between atoms: C_11  and  C_12
REMARK    4  A    between atoms: C_12  and  C_13
REMARK    5  A    between atoms: C_13  and  N_14
REMARK    6  A    between atoms: C_17  and  N_18
REMARK    7  A    between atoms: N_18  and  C_19
REMARK    8  A    between atoms: C_19  and  C_20
REMARK                            x       y       z     vdW  Elec       q    Type
REMARK                         _______ _______ _______ _____ _____    ______ ____
ROOT
ATOM      1  N   UNL     1       1.021   4.199  20.431  0.00  0.00    +0.000 NA
ATOM      2  C   UNL     1       1.265   3.743  19.043  0.00  0.00    +0.000 C 
ATOM      3  C   UNL     1       1.638   2.259  19.035  0.00  0.00    +0.000 C 
ATOM      4  C   UNL     1       2.930   2.063  19.851  0.00  0.00    +0.000 C 
ATOM      5  C   UNL     1       2.626   2.499  21.293  0.00  0.00    +0.000 C 
ATOM      6  C   UNL     1       2.195   3.965  21.312  0.00  0.00    +0.000 C 
ENDROOT
BRANCH   4   7
ATOM      7  N   UNL     1       4.035   2.857  19.276  0.00  0.00    +0.000 NA
ATOM      8  H   UNL     1       4.955   2.508  19.600  0.00  0.00    +0.000 HD
BRANCH   7   9
ATOM      9  C   UNL     1       4.102   2.780  17.809  0.00  0.00    +0.000 C 
BRANCH   9  10
ATOM     10  C   UNL     1       4.900   3.923  17.290  0.00  0.00    +0.000 A 
ATOM     11  C   UNL     1       4.837   4.505  15.984  0.00  0.00    +0.000 A 
ATOM     12  C   UNL     1       5.643   5.653  15.693  0.00  0.00    +0.000 A 
ATOM     13  C   UNL     1       6.481   6.150  16.723  0.00  0.00    +0.000 A 
ATOM     14  C   UNL     1       6.511   5.515  17.910  0.00  0.00    +0.000 A 
ATOM     15  C   UNL     1       5.753   4.445  18.221  0.00  0.00    +0.000 A 
ATOM     16  C   UNL     1       7.397   6.113  18.840  0.00  0.00    +0.000 C 
ATOM     17  C   UNL     1       7.977   7.246  18.024  0.00  0.00    +0.000 C 
ATOM     18  O   UNL     1       7.313   7.218  16.780  0.00  0.00    +0.000 OA
ENDBRANCH   9  10
ENDBRANCH   7   9
ENDBRANCH   4   7
BRANCH   1  19
ATOM     19  C   UNL     1       0.655   5.630  20.515  0.00  0.00    +0.000 C 
BRANCH  19  20
ATOM     20  C   UNL     1       1.868   6.575  20.676  0.00  0.00    +0.000 C 
BRANCH  20  29
ATOM     21  C   UNL     1       0.100  10.220  21.547  0.00  0.00    +0.000 A 
ATOM     22  C   UNL     1      -0.023  11.271  20.615  0.00  0.00    +0.000 A 
ATOM     23  C   UNL     1       0.565  11.111  19.336  0.00  0.00    +0.000 A 
ATOM     24  C   UNL     1       1.237   9.942  19.026  0.00  0.00    +0.000 A 
ATOM     25  N   UNL     1       1.828   9.765  17.796  0.00  0.00    +0.000 NA
ATOM     26  C   UNL     1       2.468   8.618  17.477  0.00  0.00    +0.000 A 
ATOM     27  C   UNL     1       2.526   7.550  18.376  0.00  0.00    +0.000 A 
ATOM     28  F   UNL     1       3.145   6.409  17.990  0.00  0.00    +0.000 F 
ATOM     29  C   UNL     1       1.917   7.699  19.665  0.00  0.00    +0.000 A 
ATOM     30  C   UNL     1       1.301   8.905  19.957  0.00  0.00    +0.000 A 
ATOM     31  N   UNL     1       0.722   9.093  21.197  0.00  0.00    +0.000 NA
BRANCH  21  33
ATOM     32  C   UNL     1      -1.443  11.226  23.144  0.00  0.00    +0.000 C 
ATOM     33  O   UNL     1      -0.443  10.328  22.800  0.00  0.00    +0.000 OA
ENDBRANCH  21  33
ENDBRANCH  20  29
ENDBRANCH  19  20
ENDBRANCH   1  19
TORSDOF 7
ENDMDL
MODEL 3
REMARK VINA RESULT:      -8.6      0.537      1.250
REMARK  Name = 
REMARK  8 active torsions:
REMARK  status: ('A' for Active; 'I' for Inactive)
REMARK    1  A    between atoms: C_1  and  O_2
REMARK    2  A    between atoms: O_2  and  C_3
REMARK    3  A    between atoms: C_11  and  C_12
REMARK    4  A    between atoms: C_12  and  C_13
REMARK    5  A    between atoms: C_13  and  N_14
REMARK    6  A    between atoms: C_17  and  N_18
REMARK    7  A    between atoms: N_18  and  C_19
REMARK    8  A    between atoms: C_19  and  C_20
REMARK                            x       y       z     vdW  Elec       q    Type
REMARK                         _______ _______ _______ _____ _____    ______ ____
ROOT
ATOM      1  N   UNL     1       3.440   2.226  18.481  0.00  0.00    +0.000 NA
ATOM      2  C   UNL     1       3.770   3.036  19.676  0.00  0.00    +0.000 C 
ATOM      3  C   UNL     1       2.821   2.689  20.825  0.00  0.00    +0.000 C 
ATOM      4  C   UNL     1       1.378   3.013  20.398  0.00  0.00    +0.000 C 
ATOM      5  C   UNL     1       1.053   2.122  19.188  0.00  0.00    +0.000 C 
ATOM      6  C   UNL     1       2.029   2.413  18.050  0.00  0.00    +0.000 C 
ENDROOT
BRANCH   4   7
ATOM      7  N   UNL     1       1.244   4.443  20.055  0.00  0.00    +0.000 NA
ATOM      8  H   UNL     1       0.248   4.728  20.018  0.00  0.00    +0.000 HD
BRANCH   7   9
ATOM      9  C   UNL     1       1.849   5.338  21.053  0.00  0.00    +0.000 C 
BRANCH   9  10
ATOM     10  C   UNL     1       1.546   6.751  20.699  0.00  0.00    +0.000 A 
ATOM     11  C   UNL     1       0.853   7.716  21.496  0.00  0.00    +0.000 A 
ATOM     12  C   UNL     1       0.718   9.056  21.007  0.00  0.00    +0.000 A 
ATOM     13  C   UNL     1       1.273   9.353  19.736  0.00  0.00    +0.000 A 
ATOM     14  C   UNL     1       1.871   8.373  19.034  0.00  0.00    +0.000 A 
ATOM     15  C   UNL     1       2.030   7.109  19.473  0.00  0.00    +0.000 A 
ATOM     16  C   UNL     1       2.370   8.808  17.782  0.00  0.00    +0.000 C 
ATOM     17  C   UNL     1       1.952  10.262  17.775  0.00  0.00    +0.000 C 
ATOM     18  O   UNL     1       1.350  10.506  19.026  0.00  0.00    +0.000 OA
ENDBRANCH   9  10
ENDBRANCH   7   9
ENDBRANCH   4   7
BRANCH   1  19
ATOM     19  C   UNL     1       4.319   2.510  17.325  0.00  0.00    +0.000 C 
BRANCH  19  20
ATOM     20  C   UNL     1       4.031   3.865  16.642  0.00  0.00    +0.000 C 
BRANCH  20  29
ATOM     21  C   UNL     1       5.890   3.679  12.943  0.00  0.00    +0.000 A 
ATOM     22  C   UNL     1       7.117   4.310  12.653  0.00  0.00    +0.000 A 
ATOM     23  C   UNL     1       7.708   5.127  13.648  0.00  0.00    +0.000 A 
ATOM     24  C   UNL     1       7.083   5.286  14.872  0.00  0.00    +0.000 A 
ATOM     25  N   UNL     1       7.628   6.083  15.852  0.00  0.00    +0.000 NA
ATOM     26  C   UNL     1       7.035   6.227  17.058  0.00  0.00    +0.000 A 
ATOM     27  C   UNL     1       5.858   5.542  17.370  0.00  0.00    +0.000 A 
ATOM     28  F   UNL     1       5.327   5.691  18.607  0.00  0.00    +0.000 F 
ATOM     29  C   UNL     1       5.265   4.699  16.373  0.00  0.00    +0.000 A 
ATOM     30  C   UNL     1       5.892   4.610  15.141  0.00  0.00    +0.000 A 
ATOM     31  N   UNL     1       5.339   3.825  14.148  0.00  0.00    +0.000 NA
BRANCH  21  33
ATOM     32  C   UNL     1       4.104   3.224  11.347  0.00  0.00    +0.000 C 
ATOM     33  O   UNL     1       5.273   2.885  12.012  0.00  0.00    +0.000 OA
ENDBRANCH  21  33
ENDBRANCH  20  29
ENDBRANCH  19  20
ENDBRANCH   1  19
TORSDOF 7
ENDMDL
MODEL 4
REMARK VINA RESULT:      -8.6      0.932      1.164
REMARK  Name = 
REMARK  8 active torsions:
REMARK  status: ('A' for Active; 'I' for Inactive)
REMARK    1  A    between atoms: C_1  and  O_2
REMARK    2  A    between atoms: O_2  and  C_3
REMARK    3  A    between atoms: C_11  and  C_12
REMARK    4  A    between atoms: C_12  and  C_13
REMARK    5  A    between atoms: C_13  and  N_14
REMARK    6  A    between atoms: C_17  and  N_18
REMARK    7  A    between atoms: N_18  and  C_19
REMARK    8  A    between atoms: C_19  and  C_20
REMARK                            x       y       z     vdW  Elec       q    Type
REMARK                         _______ _______ _______ _____ _____    ______ ____
ROOT
ATOM      1  N   UNL     1       3.100   2.698  18.861  0.00  0.00    +0.000 NA
ATOM      2  C   UNL     1       3.734   2.925  20.180  0.00  0.00    +0.000 C 
ATOM      3  C   UNL     1       2.670   2.939  21.280  0.00  0.00    +0.000 C 
ATOM      4  C   UNL     1       1.682   4.088  21.007  0.00  0.00    +0.000 C 
ATOM      5  C   UNL     1       1.009   3.796  19.657  0.00  0.00    +0.000 C 
ATOM      6  C   UNL     1       2.064   3.720  18.555  0.00  0.00    +0.000 C 
ENDROOT
BRANCH   4   7
ATOM      7  N   UNL     1       2.387   5.386  20.980  0.00  0.00    +0.000 NA
ATOM      8  H   UNL     1       3.398   5.268  21.175  0.00  0.00    +0.000 HD
BRANCH   7   9
ATOM      9  C   UNL     1       2.337   6.045  19.666  0.00  0.00    +0.000 C 
BRANCH   9  10
ATOM     10  C   UNL     1       1.830   7.434  19.829  0.00  0.00    +0.000 A 
ATOM     11  C   UNL     1       1.848   8.484  18.857  0.00  0.00    +0.000 A 
ATOM     12  C   UNL     1       1.247   9.743  19.182  0.00  0.00    +0.000 A 
ATOM     13  C   UNL     1       0.669   9.887  20.468  0.00  0.00    +0.000 A 
ATOM     14  C   UNL     1       0.734   8.861  21.337  0.00  0.00    +0.000 A 
ATOM     15  C   UNL     1       1.276   7.660  21.057  0.00  0.00    +0.000 A 
ATOM     16  C   UNL     1       0.128   9.147  22.584  0.00  0.00    +0.000 C 
ATOM     17  C   UNL     1      -0.319  10.578  22.387  0.00  0.00    +0.000 C 
ATOM     18  O   UNL     1       0.001  10.912  21.055  0.00  0.00    +0.000 OA
ENDBRANCH   9  10
ENDBRANCH   7   9
ENDBRANCH   4   7
BRANCH   1  19
ATOM     19  C   UNL     1       4.072   2.674  17.746  0.00  0.00    +0.000 C 
BRANCH  19  20
ATOM     20  C   UNL     1       3.872   3.812  16.721  0.00  0.00    +0.000 C 
BRANCH  20  29
ATOM     21  C   UNL     1       5.666   3.590  12.992  0.00  0.00    +0.000 A 
ATOM     22  C   UNL     1       6.903   4.191  12.683  0.00  0.00    +0.000 A 
ATOM     23  C   UNL     1       7.530   4.991  13.671  0.00  0.00    +0.000 A 
ATOM     24  C   UNL     1       6.930   5.161  14.905  0.00  0.00    +0.000 A 
ATOM     25  N   UNL     1       7.510   5.941  15.879  0.00  0.00    +0.000 NA
ATOM     26  C   UNL     1       6.940   6.096  17.095  0.00  0.00    +0.000 A 
ATOM     27  C   UNL     1       5.751   5.440  17.424  0.00  0.00    +0.000 A 
ATOM     28  F   UNL     1       5.245   5.598  18.670  0.00  0.00    +0.000 F 
ATOM     29  C   UNL     1       5.121   4.615  16.434  0.00  0.00    +0.000 A 
ATOM     30  C   UNL     1       5.727   4.514  15.192  0.00  0.00    +0.000 A 
ATOM     31  N   UNL     1       5.138   3.747  14.207  0.00  0.00    +0.000 NA
BRANCH  21  33
ATOM     32  C   UNL     1       4.062   3.292  11.181  0.00  0.00    +0.000 C 
ATOM     33  O   UNL     1       5.014   2.815  12.069  0.00  0.00    +0.000 OA
ENDBRANCH  21  33
ENDBRANCH  20  29
ENDBRANCH  19  20
ENDBRANCH   1  19
TORSDOF 7
ENDMDL
MODEL 5
REMARK VINA RESULT:      -8.6      1.998      7.836
REMARK  Name = 
REMARK  8 active torsions:
REMARK  status: ('A' for Active; 'I' for Inactive)
REMARK    1  A    between atoms: C_1  and  O_2
REMARK    2  A    between atoms: O_2  and  C_3
REMARK    3  A    between atoms: C_11  and  C_12
REMARK    4  A    between atoms: C_12  and  C_13
REMARK    5  A    between atoms: C_13  and  N_14
REMARK    6  A    between atoms: C_17  and  N_18
REMARK    7  A    between atoms: N_18  and  C_19
REMARK    8  A    between atoms: C_19  and  C_20
REMARK                            x       y       z     vdW  Elec       q    Type
REMARK                         _______ _______ _______ _____ _____    ______ ____
ROOT
ATOM      1  N   UNL     1       1.179   4.151  20.388  0.00  0.00    +0.000 NA
ATOM      2  C   UNL     1       1.294   3.726  18.974  0.00  0.00    +0.000 C 
ATOM      3  C   UNL     1       1.784   2.278  18.898  0.00  0.00    +0.000 C 
ATOM      4  C   UNL     1       3.174   2.183  19.552  0.00  0.00    +0.000 C 
ATOM      5  C   UNL     1       3.009   2.584  21.027  0.00  0.00    +0.000 C 
ATOM      6  C   UNL     1       2.465   4.009  21.121  0.00  0.00    +0.000 C 
ENDROOT
BRANCH   4   7
ATOM      7  N   UNL     1       4.135   3.071  18.865  0.00  0.00    +0.000 NA
ATOM      8  H   UNL     1       5.113   2.788  19.060  0.00  0.00    +0.000 HD
BRANCH   7   9
ATOM      9  C   UNL     1       4.020   3.026  17.400  0.00  0.00    +0.000 C 
BRANCH   9  10
ATOM     10  C   UNL     1       5.105   3.843  16.793  0.00  0.00    +0.000 A 
ATOM     11  C   UNL     1       5.988   4.749  17.463  0.00  0.00    +0.000 A 
ATOM     12  C   UNL     1       7.020   5.398  16.712  0.00  0.00    +0.000 A 
ATOM     13  C   UNL     1       7.105   5.115  15.325  0.00  0.00    +0.000 A 
ATOM     14  C   UNL     1       6.206   4.283  14.767  0.00  0.00    +0.000 A 
ATOM     15  C   UNL     1       5.235   3.644  15.448  0.00  0.00    +0.000 A 
ATOM     16  C   UNL     1       6.404   4.100  13.377  0.00  0.00    +0.000 C 
ATOM     17  C   UNL     1       7.587   5.004  13.114  0.00  0.00    +0.000 C 
ATOM     18  O   UNL     1       7.973   5.524  14.366  0.00  0.00    +0.000 OA
ENDBRANCH   9  10
ENDBRANCH   7   9
ENDBRANCH   4   7
BRANCH   1  19
ATOM     19  C   UNL     1       0.711   5.546  20.538  0.00  0.00    +0.000 C 
BRANCH  19  20
ATOM     20  C   UNL     1       1.850   6.565  20.761  0.00  0.00    +0.000 C 
BRANCH  20  29
ATOM     21  C   UNL     1       0.133  10.273  21.450  0.00  0.00    +0.000 A 
ATOM     22  C   UNL     1       0.041  11.284  20.472  0.00  0.00    +0.000 A 
ATOM     23  C   UNL     1       0.645  11.061  19.210  0.00  0.00    +0.000 A 
ATOM     24  C   UNL     1       1.301   9.869  18.960  0.00  0.00    +0.000 A 
ATOM     25  N   UNL     1       1.908   9.630  17.748  0.00  0.00    +0.000 NA
ATOM     26  C   UNL     1       2.533   8.460  17.488  0.00  0.00    +0.000 A 
ATOM     27  C   UNL     1       2.559   7.430  18.432  0.00  0.00    +0.000 A 
ATOM     28  F   UNL     1       3.164   6.264  18.105  0.00  0.00    +0.000 F 
ATOM     29  C   UNL     1       1.933   7.644  19.704  0.00  0.00    +0.000 A 
ATOM     30  C   UNL     1       1.334   8.872  19.935  0.00  0.00    +0.000 A 
ATOM     31  N   UNL     1       0.741   9.122  21.157  0.00  0.00    +0.000 NA
BRANCH  21  33
ATOM     32  C   UNL     1      -1.378  11.406  22.991  0.00  0.00    +0.000 C 
ATOM     33  O   UNL     1      -0.427  10.443  22.688  0.00  0.00    +0.000 OA
ENDBRANCH  21  33
ENDBRANCH  20  29
ENDBRANCH  19  20
ENDBRANCH   1  19
TORSDOF 7
ENDMDL
MODEL 6
REMARK VINA RESULT:      -8.5      0.937      1.401
REMARK  Name = 
REMARK  8 active torsions:
REMARK  status: ('A' for Active; 'I' for Inactive)
REMARK    1  A    between atoms: C_1  and  O_2
REMARK    2  A    between atoms: O_2  and  C_3
REMARK    3  A    between atoms: C_11  and  C_12
REMARK    4  A    between atoms: C_12  and  C_13
REMARK    5  A    between atoms: C_13  and  N_14
REMARK    6  A    between atoms: C_17  and  N_18
REMARK    7  A    between atoms: N_18  and  C_19
REMARK    8  A    between atoms: C_19  and  C_20
REMARK                            x       y       z     vdW  Elec       q    Type
REMARK                         _______ _______ _______ _____ _____    ______ ____
ROOT
ATOM      1  N   UNL     1       3.080   2.699  18.842  0.00  0.00    +0.000 NA
ATOM      2  C   UNL     1       3.707   2.845  20.176  0.00  0.00    +0.000 C 
ATOM      3  C   UNL     1       2.629   2.894  21.261  0.00  0.00    +0.000 C 
ATOM      4  C   UNL     1       1.720   4.111  21.010  0.00  0.00    +0.000 C 
ATOM      5  C   UNL     1       1.051   3.904  19.643  0.00  0.00    +0.000 C 
ATOM      6  C   UNL     1       2.116   3.794  18.553  0.00  0.00    +0.000 C 
ENDROOT
BRANCH   4   7
ATOM      7  N   UNL     1       2.506   5.362  21.033  0.00  0.00    +0.000 NA
ATOM      8  H   UNL     1       3.523   5.165  21.079  0.00  0.00    +0.000 HD
BRANCH   7   9
ATOM      9  C   UNL     1       2.340   6.173  19.818  0.00  0.00    +0.000 C 
BRANCH   9  10
ATOM     10  C   UNL     1       1.712   7.474  20.173  0.00  0.00    +0.000 A 
ATOM     11  C   UNL     1       1.117   7.838  21.423  0.00  0.00    +0.000 A 
ATOM     12  C   UNL     1       0.622   9.171  21.596  0.00  0.00    +0.000 A 
ATOM     13  C   UNL     1       0.737  10.065  20.502  0.00  0.00    +0.000 A 
ATOM     14  C   UNL     1       1.271   9.627  19.348  0.00  0.00    +0.000 A 
ATOM     15  C   UNL     1       1.762   8.386  19.158  0.00  0.00    +0.000 A 
ATOM     16  C   UNL     1       1.315  10.621  18.340  0.00  0.00    +0.000 C 
ATOM     17  C   UNL     1       0.669  11.795  19.041  0.00  0.00    +0.000 C 
ATOM     18  O   UNL     1       0.411  11.374  20.361  0.00  0.00    +0.000 OA
ENDBRANCH   9  10
ENDBRANCH   7   9
ENDBRANCH   4   7
BRANCH   1  19
ATOM     19  C   UNL     1       4.066   2.647  17.740  0.00  0.00    +0.000 C 
BRANCH  19  20
ATOM     20  C   UNL     1       3.908   3.785  16.708  0.00  0.00    +0.000 C 
BRANCH  20  29
ATOM     21  C   UNL     1       5.753   3.719  12.998  0.00  0.00    +0.000 A 
ATOM     22  C   UNL     1       6.999   4.323  12.734  0.00  0.00    +0.000 A 
ATOM     23  C   UNL     1       7.618   5.071  13.766  0.00  0.00    +0.000 A 
ATOM     24  C   UNL     1       7.002   5.190  14.998  0.00  0.00    +0.000 A 
ATOM     25  N   UNL     1       7.574   5.921  16.014  0.00  0.00    +0.000 NA
ATOM     26  C   UNL     1       6.988   6.025  17.228  0.00  0.00    +0.000 A 
ATOM     27  C   UNL     1       5.790   5.364  17.510  0.00  0.00    +0.000 A 
ATOM     28  F   UNL     1       5.267   5.470  18.755  0.00  0.00    +0.000 F 
ATOM     29  C   UNL     1       5.168   4.590  16.476  0.00  0.00    +0.000 A 
ATOM     30  C   UNL     1       5.790   4.541  15.238  0.00  0.00    +0.000 A 
ATOM     31  N   UNL     1       5.209   3.824  14.211  0.00  0.00    +0.000 NA
BRANCH  21  33
ATOM     32  C   UNL     1       5.653   1.889  11.390  0.00  0.00    +0.000 C 
ATOM     33  O   UNL     1       5.109   2.992  12.032  0.00  0.00    +0.000 OA
ENDBRANCH  21  33
ENDBRANCH  20  29
ENDBRANCH  19  20
ENDBRANCH   1  19
TORSDOF 7
ENDMDL
MODEL 7
REMARK VINA RESULT:      -8.2      3.152      8.965
REMARK  Name = 
REMARK  8 active torsions:
REMARK  status: ('A' for Active; 'I' for Inactive)
REMARK    1  A    between atoms: C_1  and  O_2
REMARK    2  A    between atoms: O_2  and  C_3
REMARK    3  A    between atoms: C_11  and  C_12
REMARK    4  A    between atoms: C_12  and  C_13
REMARK    5  A    between atoms: C_13  and  N_14
REMARK    6  A    between atoms: C_17  and  N_18
REMARK    7  A    between atoms: N_18  and  C_19
REMARK    8  A    between atoms: C_19  and  C_20
REMARK                            x       y       z     vdW  Elec       q    Type
REMARK                         _______ _______ _______ _____ _____    ______ ____
ROOT
ATOM      1  N   UNL     1       1.593   7.191  19.792  0.00  0.00    +0.000 NA
ATOM      2  C   UNL     1       2.564   6.848  18.728  0.00  0.00    +0.000 C 
ATOM      3  C   UNL     1       2.277   5.446  18.186  0.00  0.00    +0.000 C 
ATOM      4  C   UNL     1       2.423   4.426  19.331  0.00  0.00    +0.000 C 
ATOM      5  C   UNL     1       1.371   4.783  20.392  0.00  0.00    +0.000 C 
ATOM      6  C   UNL     1       1.607   6.203  20.903  0.00  0.00    +0.000 C 
ENDROOT
BRANCH   4   7
ATOM      7  N   UNL     1       3.786   4.472  19.898  0.00  0.00    +0.000 NA
ATOM      8  H   UNL     1       3.789   4.181  20.893  0.00  0.00    +0.000 HD
BRANCH   7   9
ATOM      9  C   UNL     1       4.720   3.547  19.239  0.00  0.00    +0.000 C 
BRANCH   9  10
ATOM     10  C   UNL     1       5.544   4.295  18.252  0.00  0.00    +0.000 A 
ATOM     11  C   UNL     1       6.444   5.377  18.515  0.00  0.00    +0.000 A 
ATOM     12  C   UNL     1       7.204   5.928  17.433  0.00  0.00    +0.000 A 
ATOM     13  C   UNL     1       7.013   5.375  16.142  0.00  0.00    +0.000 A 
ATOM     14  C   UNL     1       6.115   4.387  15.976  0.00  0.00    +0.000 A 
ATOM     15  C   UNL     1       5.397   3.834  16.974  0.00  0.00    +0.000 A 
ATOM     16  C   UNL     1       6.020   3.937  14.637  0.00  0.00    +0.000 C 
ATOM     17  C   UNL     1       7.006   4.847  13.939  0.00  0.00    +0.000 C 
ATOM     18  O   UNL     1       7.596   5.637  14.946  0.00  0.00    +0.000 OA
ENDBRANCH   9  10
ENDBRANCH   7   9
ENDBRANCH   4   7
BRANCH   1  19
ATOM     19  C   UNL     1       1.812   8.537  20.365  0.00  0.00    +0.000 C 
BRANCH  19  20
ATOM     20  C   UNL     1       0.785   9.590  19.892  0.00  0.00    +0.000 C 
BRANCH  20  29
ATOM     21  C   UNL     1       1.094  13.722  19.992  0.00  0.00    +0.000 A 
ATOM     22  C   UNL     1       0.641  14.513  21.067  0.00  0.00    +0.000 A 
ATOM     23  C   UNL     1      -0.038  13.875  22.135  0.00  0.00    +0.000 A 
ATOM     24  C   UNL     1      -0.236  12.507  22.109  0.00  0.00    +0.000 A 
ATOM     25  N   UNL     1      -0.902  11.863  23.126  0.00  0.00    +0.000 NA
ATOM     26  C   UNL     1      -1.083  10.524  23.118  0.00  0.00    +0.000 A 
ATOM     27  C   UNL     1      -0.569   9.732  22.088  0.00  0.00    +0.000 A 
ATOM     28  F   UNL     1      -0.744   8.391  22.150  0.00  0.00    +0.000 F 
ATOM     29  C   UNL     1       0.134  10.370  21.013  0.00  0.00    +0.000 A 
ATOM     30  C   UNL     1       0.265  11.749  21.050  0.00  0.00    +0.000 A 
ATOM     31  N   UNL     1       0.917  12.400  20.021  0.00  0.00    +0.000 NA
BRANCH  21  33
ATOM     32  C   UNL     1       2.534  13.588  18.029  0.00  0.00    +0.000 C 
ATOM     33  O   UNL     1       1.747  14.290  18.931  0.00  0.00    +0.000 OA
ENDBRANCH  21  33
ENDBRANCH  20  29
ENDBRANCH  19  20
ENDBRANCH   1  19
TORSDOF 7
ENDMDL
MODEL 8
REMARK VINA RESULT:      -8.2      3.590      6.065
REMARK  Name = 
REMARK  8 active torsions:
REMARK  status: ('A' for Active; 'I' for Inactive)
REMARK    1  A    between atoms: C_1  and  O_2
REMARK    2  A    between atoms: O_2  and  C_3
REMARK    3  A    between atoms: C_11  and  C_12
REMARK    4  A    between atoms: C_12  and  C_13
REMARK    5  A    between atoms: C_13  and  N_14
REMARK    6  A    between atoms: C_17  and  N_18
REMARK    7  A    between atoms: N_18  and  C_19
REMARK    8  A    between atoms: C_19  and  C_20
REMARK                            x       y       z     vdW  Elec       q    Type
REMARK                         _______ _______ _______ _____ _____    ______ ____
ROOT
ATOM      1  N   UNL     1       1.931   8.475  19.943  0.00  0.00    +0.000 NA
ATOM      2  C   UNL     1       1.429   9.343  18.853  0.00  0.00    +0.000 C 
ATOM      3  C   UNL     1       1.423  10.805  19.306  0.00  0.00    +0.000 C 
ATOM      4  C   UNL     1       0.486  10.950  20.519  0.00  0.00    +0.000 C 
ATOM      5  C   UNL     1       1.062  10.076  21.644  0.00  0.00    +0.000 C 
ATOM      6  C   UNL     1       1.129   8.619  21.187  0.00  0.00    +0.000 C 
ENDROOT
BRANCH   4   7
ATOM      7  N   UNL     1      -0.887  10.531  20.170  0.00  0.00    +0.000 NA
ATOM      8  H   UNL     1      -1.274   9.884  20.881  0.00  0.00    +0.000 HD
BRANCH   7   9
ATOM      9  C   UNL     1      -1.841  11.649  20.127  0.00  0.00    +0.000 C 
BRANCH   9  10
ATOM     10  C   UNL     1      -2.737  11.491  18.950  0.00  0.00    +0.000 A 
ATOM     11  C   UNL     1      -4.067  11.995  18.796  0.00  0.00    +0.000 A 
ATOM     12  C   UNL     1      -4.748  11.795  17.552  0.00  0.00    +0.000 A 
ATOM     13  C   UNL     1      -4.065  11.088  16.531  0.00  0.00    +0.000 A 
ATOM     14  C   UNL     1      -2.830  10.610  16.775  0.00  0.00    +0.000 A 
ATOM     15  C   UNL     1      -2.156  10.796  17.927  0.00  0.00    +0.000 A 
ATOM     16  C   UNL     1      -2.272   9.918  15.673  0.00  0.00    +0.000 C 
ATOM     17  C   UNL     1      -3.394   9.996  14.662  0.00  0.00    +0.000 C 
ATOM     18  O   UNL     1      -4.407  10.776  15.257  0.00  0.00    +0.000 OA
ENDBRANCH   9  10
ENDBRANCH   7   9
ENDBRANCH   4   7
BRANCH   1  19
ATOM     19  C   UNL     1       1.963   7.042  19.576  0.00  0.00    +0.000 C 
BRANCH  19  20
ATOM     20  C   UNL     1       2.324   6.787  18.095  0.00  0.00    +0.000 C 
BRANCH  20  29
ATOM     21  C   UNL     1       6.345   6.771  17.094  0.00  0.00    +0.000 A 
ATOM     22  C   UNL     1       7.050   5.612  16.712  0.00  0.00    +0.000 A 
ATOM     23  C   UNL     1       6.376   4.366  16.756  0.00  0.00    +0.000 A 
ATOM     24  C   UNL     1       5.055   4.310  17.162  0.00  0.00    +0.000 A 
ATOM     25  N   UNL     1       4.379   3.113  17.226  0.00  0.00    +0.000 NA
ATOM     26  C   UNL     1       3.082   3.052  17.601  0.00  0.00    +0.000 A 
ATOM     27  C   UNL     1       2.364   4.210  17.909  0.00  0.00    +0.000 A 
ATOM     28  F   UNL     1       1.056   4.095  18.240  0.00  0.00    +0.000 F 
ATOM     29  C   UNL     1       3.036   5.475  17.848  0.00  0.00    +0.000 A 
ATOM     30  C   UNL     1       4.374   5.483  17.490  0.00  0.00    +0.000 A 
ATOM     31  N   UNL     1       5.060   6.681  17.443  0.00  0.00    +0.000 NA
BRANCH  21  33
ATOM     32  C   UNL     1       8.052   8.337  17.854  0.00  0.00    +0.000 C 
ATOM     33  O   UNL     1       6.953   7.998  17.078  0.00  0.00    +0.000 OA
ENDBRANCH  21  33
ENDBRANCH  20  29
ENDBRANCH  19  20
ENDBRANCH   1  19
TORSDOF 7
ENDMDL
MODEL 9
REMARK VINA RESULT:      -8.1      3.174      8.549
REMARK  Name = 
REMARK  8 active torsions:
REMARK  status: ('A' for Active; 'I' for Inactive)
REMARK    1  A    between atoms: C_1  and  O_2
REMARK    2  A    between atoms: O_2  and  C_3
REMARK    3  A    between atoms: C_11  and  C_12
REMARK    4  A    between atoms: C_12  and  C_13
REMARK    5  A    between atoms: C_13  and  N_14
REMARK    6  A    between atoms: C_17  and  N_18
REMARK    7  A    between atoms: N_18  and  C_19
REMARK    8  A    between atoms: C_19  and  C_20
REMARK                            x       y       z     vdW  Elec       q    Type
REMARK                         _______ _______ _______ _____ _____    ______ ____
ROOT
ATOM      1  N   UNL     1       1.346   7.048  19.972  0.00  0.00    +0.000 NA
ATOM      2  C   UNL     1       2.484   7.149  19.029  0.00  0.00    +0.000 C 
ATOM      3  C   UNL     1       2.525   5.918  18.121  0.00  0.00    +0.000 C 
ATOM      4  C   UNL     1       2.717   4.661  18.990  0.00  0.00    +0.000 C 
ATOM      5  C   UNL     1       1.498   4.561  19.920  0.00  0.00    +0.000 C 
ATOM      6  C   UNL     1       1.408   5.811  20.795  0.00  0.00    +0.000 C 
ENDROOT
BRANCH   4   7
ATOM      7  N   UNL     1       3.971   4.750  19.765  0.00  0.00    +0.000 NA
ATOM      8  H   UNL     1       3.826   4.455  20.748  0.00  0.00    +0.000 HD
BRANCH   7   9
ATOM      9  C   UNL     1       5.029   3.860  19.262  0.00  0.00    +0.000 C 
BRANCH   9  10
ATOM     10  C   UNL     1       5.764   4.539  18.161  0.00  0.00    +0.000 A 
ATOM     11  C   UNL     1       6.616   5.684  18.262  0.00  0.00    +0.000 A 
ATOM     12  C   UNL     1       7.293   6.154  17.091  0.00  0.00    +0.000 A 
ATOM     13  C   UNL     1       7.071   5.458  15.876  0.00  0.00    +0.000 A 
ATOM     14  C   UNL     1       6.219   4.416  15.861  0.00  0.00    +0.000 A 
ATOM     15  C   UNL     1       5.580   3.939  16.947  0.00  0.00    +0.000 A 
ATOM     16  C   UNL     1       6.085   3.823  14.582  0.00  0.00    +0.000 C 
ATOM     17  C   UNL     1       6.987   4.700  13.742  0.00  0.00    +0.000 C 
ATOM     18  O   UNL     1       7.582   5.620  14.630  0.00  0.00    +0.000 OA
ENDBRANCH   9  10
ENDBRANCH   7   9
ENDBRANCH   4   7
BRANCH   1  19
ATOM     19  C   UNL     1       1.245   8.208  20.885  0.00  0.00    +0.000 C 
BRANCH  19  20
ATOM     20  C   UNL     1      -0.188   8.474  21.399  0.00  0.00    +0.000 C 
BRANCH  20  29
ATOM     21  C   UNL     1      -1.462  10.513  18.024  0.00  0.00    +0.000 A 
ATOM     22  C   UNL     1      -1.686  11.904  17.990  0.00  0.00    +0.000 A 
ATOM     23  C   UNL     1      -1.555  12.638  19.195  0.00  0.00    +0.000 A 
ATOM     24  C   UNL     1      -1.210  11.988  20.366  0.00  0.00    +0.000 A 
ATOM     25  N   UNL     1      -1.089  12.674  21.553  0.00  0.00    +0.000 NA
ATOM     26  C   UNL     1      -0.732  12.049  22.698  0.00  0.00    +0.000 A 
ATOM     27  C   UNL     1      -0.438  10.684  22.714  0.00  0.00    +0.000 A 
ATOM     28  F   UNL     1      -0.047  10.117  23.880  0.00  0.00    +0.000 F 
ATOM     29  C   UNL     1      -0.551   9.939  21.494  0.00  0.00    +0.000 A 
ATOM     30  C   UNL     1      -0.952  10.617  20.354  0.00  0.00    +0.000 A 
ATOM     31  N   UNL     1      -1.093   9.928  19.165  0.00  0.00    +0.000 NA
BRANCH  21  33
ATOM     32  C   UNL     1      -2.502  10.004  15.879  0.00  0.00    +0.000 C 
ATOM     33  O   UNL     1      -1.584   9.756  16.889  0.00  0.00    +0.000 OA
ENDBRANCH  21  33
ENDBRANCH  20  29
ENDBRANCH  19  20
ENDBRANCH   1  19
TORSDOF 7
ENDMDL
