MODEL 1
REMARK VINA RESULT:      -8.3      0.000      0.000
REMARK  Name = 
REMARK  15 active torsions:
REMARK  status: ('A' for Active; 'I' for Inactive)
REMARK    1  A    between atoms: C_1  and  C_2
REMARK    2  A    between atoms: C_2  and  O_4
REMARK    3  A    between atoms: O_4  and  C_5
REMARK    4  A    between atoms: C_6  and  C_7
REMARK    5  A    between atoms: C_7  and  C_8
REMARK    6  A    between atoms: C_7  and  O_9
REMARK    7  A    between atoms: O_9  and  C_10
REMARK    8  A    between atoms: C_10  and  C_12
REMARK    9  A    between atoms: C_12  and  C_13
REMARK   10  A    between atoms: C_13  and  C_14
REMARK   11  A    between atoms: C_14  and  C_15
REMARK   12  A    between atoms: C_24  and  C_26
REMARK   13  A    between atoms: C_26  and  C_27
REMARK   14  A    between atoms: C_27  and  C_28
REMARK   15  A    between atoms: C_28  and  C_29
REMARK                            x       y       z     vdW  Elec       q    Type
REMARK                         _______ _______ _______ _____ _____    ______ ____
ROOT
ATOM      1  C   UNL     1       4.732   4.373  19.158  0.00  0.00    +0.000 C 
ATOM      2  C   UNL     1       3.829   4.642  17.908  0.00  0.00    +0.000 C 
ATOM      3  C   UNL     1       4.958   5.557  17.449  0.00  0.00    +0.000 C 
ATOM      4  O   UNL     1       5.128   6.307  16.514  0.00  0.00    +0.000 OA
ATOM      5  N   UNL     1       5.740   5.197  18.500  0.00  0.00    +0.000 N 
ATOM      6  C   UNL     1       6.916   5.706  18.996  0.00  0.00    +0.000 C 
ATOM      7  O   UNL     1       7.269   5.539  20.162  0.00  0.00    +0.000 OA
ENDROOT
BRANCH   2   8
ATOM      8  C   UNL     1       2.497   5.352  18.067  0.00  0.00    +0.000 C 
ATOM      9  C   UNL     1       1.334   4.467  17.614  0.00  0.00    +0.000 C 
BRANCH   8  10
ATOM     10  O   UNL     1       2.302   5.822  19.421  0.00  0.00    +0.000 OA
BRANCH  10  11
ATOM     11  C   UNL     1       2.261   7.157  19.673  0.00  0.00    +0.000 C 
ATOM     12  O   UNL     1       2.059   7.663  20.767  0.00  0.00    +0.000 OA
BRANCH  11  13
ATOM     13  C   UNL     1       2.569   7.948  18.434  0.00  0.00    +0.000 C 
BRANCH  13  14
ATOM     14  C   UNL     1       1.358   8.757  17.998  0.00  0.00    +0.000 C 
BRANCH  14  15
ATOM     15  C   UNL     1       1.558  10.245  18.274  0.00  0.00    +0.000 C 
BRANCH  15  16
ATOM     16  C   UNL     1       0.501  10.737  19.226  0.00  0.00    +0.000 A 
ATOM     17  C   UNL     1      -0.749  11.148  18.746  0.00  0.00    +0.000 A 
ATOM     18  C   UNL     1      -1.698  11.678  19.618  0.00  0.00    +0.000 A 
ATOM     19  C   UNL     1      -1.406  11.803  20.975  0.00  0.00    +0.000 A 
ATOM     20  C   UNL     1      -0.166  11.393  21.463  0.00  0.00    +0.000 A 
ATOM     21  C   UNL     1       0.785  10.863  20.592  0.00  0.00    +0.000 A 
ENDBRANCH  15  16
ENDBRANCH  14  15
ENDBRANCH  13  14
ENDBRANCH  11  13
ENDBRANCH  10  11
ENDBRANCH   8  10
ENDBRANCH   2   8
BRANCH   1  22
ATOM     22  O   UNL     1       5.094   2.985  19.299  0.00  0.00    +0.000 OA
BRANCH  22  24
ATOM     23  C   UNL     1       3.252   2.480  20.645  0.00  0.00    +0.000 C 
ATOM     24  C   UNL     1       4.032   2.149  19.411  0.00  0.00    +0.000 C 
ATOM     25  O   UNL     1       3.828   1.180  18.696  0.00  0.00    +0.000 OA
ENDBRANCH  22  24
ENDBRANCH   1  22
BRANCH   6  26
ATOM     26  C   UNL     1       7.719   6.535  18.006  0.00  0.00    +0.000 C 
BRANCH  26  27
ATOM     27  C   UNL     1       8.380   7.747  18.654  0.00  0.00    +0.000 C 
BRANCH  27  28
ATOM     28  C   UNL     1       8.077   9.029  17.872  0.00  0.00    +0.000 C 
BRANCH  28  29
ATOM     29  C   UNL     1       8.800  10.215  18.449  0.00  0.00    +0.000 A 
ATOM     30  C   UNL     1       9.361  10.141  19.729  0.00  0.00    +0.000 A 
ATOM     31  C   UNL     1      10.023  11.244  20.274  0.00  0.00    +0.000 A 
ATOM     32  C   UNL     1      10.120  12.430  19.543  0.00  0.00    +0.000 A 
ATOM     33  C   UNL     1       9.554  12.509  18.269  0.00  0.00    +0.000 A 
ATOM     34  C   UNL     1       8.895  11.410  17.724  0.00  0.00    +0.000 A 
ENDBRANCH  28  29
ENDBRANCH  27  28
ENDBRANCH  26  27
ENDBRANCH   6  26
TORSDOF 13
ENDMDL
MODEL 2
REMARK VINA RESULT:      -8.3      0.889      1.573
REMARK  Name = 
REMARK  15 active torsions:
REMARK  status: ('A' for Active; 'I' for Inactive)
REMARK    1  A    between atoms: C_1  and  C_2
REMARK    2  A    between atoms: C_2  and  O_4
REMARK    3  A    between atoms: O_4  and  C_5
REMARK    4  A    between atoms: C_6  and  C_7
REMARK    5  A    between atoms: C_7  and  C_8
REMARK    6  A    between atoms: C_7  and  O_9
REMARK    7  A    between atoms: O_9  and  C_10
REMARK    8  A    between atoms: C_10  and  C_12
REMARK    9  A    between atoms: C_12  and  C_13
REMARK   10  A    between atoms: C_13  and  C_14
REMARK   11  A    between atoms: C_14  and  C_15
REMARK   12  A    between atoms: C_24  and  C_26
REMARK   13  A    between atoms: C_26  and  C_27
REMARK   14  A    between atoms: C_27  and  C_28
REMARK   15  A    between atoms: C_28  and  C_29
REMARK                            x       y       z     vdW  Elec       q    Type
REMARK                         _______ _______ _______ _____ _____    ______ ____
ROOT
ATOM      1  C   UNL     1       4.745   4.528  18.982  0.00  0.00    +0.000 C 
ATOM      2  C   UNL     1       3.826   4.893  17.768  0.00  0.00    +0.000 C 
ATOM      3  C   UNL     1       4.962   5.818  17.350  0.00  0.00    +0.000 C 
ATOM      4  O   UNL     1       5.129   6.626  16.464  0.00  0.00    +0.000 OA
ATOM      5  N   UNL     1       5.755   5.378  18.361  0.00  0.00    +0.000 N 
ATOM      6  C   UNL     1       6.948   5.834  18.869  0.00  0.00    +0.000 C 
ATOM      7  O   UNL     1       7.318   5.585  20.014  0.00  0.00    +0.000 OA
ENDROOT
BRANCH   2   8
ATOM      8  C   UNL     1       2.508   5.611  17.997  0.00  0.00    +0.000 C 
ATOM      9  C   UNL     1       1.316   4.690  17.737  0.00  0.00    +0.000 C 
BRANCH   8  10
ATOM     10  O   UNL     1       2.442   6.194  19.320  0.00  0.00    +0.000 OA
BRANCH  10  11
ATOM     11  C   UNL     1       2.157   7.515  19.462  0.00  0.00    +0.000 C 
ATOM     12  O   UNL     1       1.737   8.041  20.483  0.00  0.00    +0.000 OA
BRANCH  11  13
ATOM     13  C   UNL     1       2.491   8.276  18.210  0.00  0.00    +0.000 C 
BRANCH  13  14
ATOM     14  C   UNL     1       1.320   9.144  17.780  0.00  0.00    +0.000 C 
BRANCH  14  15
ATOM     15  C   UNL     1       0.688   9.852  18.975  0.00  0.00    +0.000 C 
BRANCH  15  16
ATOM     16  C   UNL     1      -0.685  10.348  18.610  0.00  0.00    +0.000 A 
ATOM     17  C   UNL     1      -1.357   9.819  17.501  0.00  0.00    +0.000 A 
ATOM     18  C   UNL     1      -2.594  10.335  17.117  0.00  0.00    +0.000 A 
ATOM     19  C   UNL     1      -3.167  11.383  17.835  0.00  0.00    +0.000 A 
ATOM     20  C   UNL     1      -2.507  11.913  18.943  0.00  0.00    +0.000 A 
ATOM     21  C   UNL     1      -1.270  11.398  19.329  0.00  0.00    +0.000 A 
ENDBRANCH  15  16
ENDBRANCH  14  15
ENDBRANCH  13  14
ENDBRANCH  11  13
ENDBRANCH  10  11
ENDBRANCH   8  10
ENDBRANCH   2   8
BRANCH   1  22
ATOM     22  O   UNL     1       5.087   3.128  19.024  0.00  0.00    +0.000 OA
BRANCH  22  24
ATOM     23  C   UNL     1       3.609   1.388  18.525  0.00  0.00    +0.000 C 
ATOM     24  C   UNL     1       4.118   2.343  19.559  0.00  0.00    +0.000 C 
ATOM     25  O   UNL     1       3.633   2.492  20.670  0.00  0.00    +0.000 OA
ENDBRANCH  22  24
ENDBRANCH   1  22
BRANCH   6  26
ATOM     26  C   UNL     1       7.748   6.715  17.920  0.00  0.00    +0.000 C 
BRANCH  26  27
ATOM     27  C   UNL     1       8.357   7.926  18.617  0.00  0.00    +0.000 C 
BRANCH  27  28
ATOM     28  C   UNL     1       8.198   9.193  17.769  0.00  0.00    +0.000 C 
BRANCH  28  29
ATOM     29  C   UNL     1       8.823  10.388  18.434  0.00  0.00    +0.000 A 
ATOM     30  C   UNL     1       8.807  11.635  17.797  0.00  0.00    +0.000 A 
ATOM     31  C   UNL     1       9.398  12.745  18.405  0.00  0.00    +0.000 A 
ATOM     32  C   UNL     1      10.015  12.612  19.651  0.00  0.00    +0.000 A 
ATOM     33  C   UNL     1      10.039  11.368  20.285  0.00  0.00    +0.000 A 
ATOM     34  C   UNL     1       9.450  10.260  19.679  0.00  0.00    +0.000 A 
ENDBRANCH  28  29
ENDBRANCH  27  28
ENDBRANCH  26  27
ENDBRANCH   6  26
TORSDOF 13
ENDMDL
MODEL 3
REMARK VINA RESULT:      -7.5      1.810      2.562
REMARK  Name = 
REMARK  15 active torsions:
REMARK  status: ('A' for Active; 'I' for Inactive)
REMARK    1  A    between atoms: C_1  and  C_2
REMARK    2  A    between atoms: C_2  and  O_4
REMARK    3  A    between atoms: O_4  and  C_5
REMARK    4  A    between atoms: C_6  and  C_7
REMARK    5  A    between atoms: C_7  and  C_8
REMARK    6  A    between atoms: C_7  and  O_9
REMARK    7  A    between atoms: O_9  and  C_10
REMARK    8  A    between atoms: C_10  and  C_12
REMARK    9  A    between atoms: C_12  and  C_13
REMARK   10  A    between atoms: C_13  and  C_14
REMARK   11  A    between atoms: C_14  and  C_15
REMARK   12  A    between atoms: C_24  and  C_26
REMARK   13  A    between atoms: C_26  and  C_27
REMARK   14  A    between atoms: C_27  and  C_28
REMARK   15  A    between atoms: C_28  and  C_29
REMARK                            x       y       z     vdW  Elec       q    Type
REMARK                         _______ _______ _______ _____ _____    ______ ____
ROOT
ATOM      1  C   UNL     1       4.168   4.970  19.315  0.00  0.00    +0.000 C 
ATOM      2  C   UNL     1       3.239   5.609  18.229  0.00  0.00    +0.000 C 
ATOM      3  C   UNL     1       4.520   6.219  17.675  0.00  0.00    +0.000 C 
ATOM      4  O   UNL     1       4.788   6.988  16.778  0.00  0.00    +0.000 OA
ATOM      5  N   UNL     1       5.285   5.548  18.576  0.00  0.00    +0.000 N 
ATOM      6  C   UNL     1       6.608   5.657  18.931  0.00  0.00    +0.000 C 
ATOM      7  O   UNL     1       7.033   5.277  20.020  0.00  0.00    +0.000 OA
ENDROOT
BRANCH   2   8
ATOM      8  C   UNL     1       2.196   6.638  18.625  0.00  0.00    +0.000 C 
ATOM      9  C   UNL     1       2.519   7.268  19.981  0.00  0.00    +0.000 C 
BRANCH   8  10
ATOM     10  O   UNL     1       2.031   7.649  17.604  0.00  0.00    +0.000 OA
BRANCH  10  11
ATOM     11  C   UNL     1       1.939   8.958  17.958  0.00  0.00    +0.000 C 
ATOM     12  O   UNL     1       2.660   9.855  17.542  0.00  0.00    +0.000 OA
BRANCH  11  13
ATOM     13  C   UNL     1       0.781   9.185  18.887  0.00  0.00    +0.000 C 
BRANCH  13  14
ATOM     14  C   UNL     1       0.105  10.514  18.589  0.00  0.00    +0.000 C 
BRANCH  14  15
ATOM     15  C   UNL     1      -1.325  10.539  19.125  0.00  0.00    +0.000 C 
BRANCH  15  16
ATOM     16  C   UNL     1      -2.300  10.598  17.980  0.00  0.00    +0.000 A 
ATOM     17  C   UNL     1      -2.000   9.976  16.761  0.00  0.00    +0.000 A 
ATOM     18  C   UNL     1      -2.868  10.099  15.677  0.00  0.00    +0.000 A 
ATOM     19  C   UNL     1      -4.038  10.845  15.800  0.00  0.00    +0.000 A 
ATOM     20  C   UNL     1      -4.346  11.466  17.011  0.00  0.00    +0.000 A 
ATOM     21  C   UNL     1      -3.480  11.343  18.096  0.00  0.00    +0.000 A 
ENDBRANCH  15  16
ENDBRANCH  14  15
ENDBRANCH  13  14
ENDBRANCH  11  13
ENDBRANCH  10  11
ENDBRANCH   8  10
ENDBRANCH   2   8
BRANCH   1  22
ATOM     22  O   UNL     1       4.129   3.530  19.308  0.00  0.00    +0.000 OA
BRANCH  22  24
ATOM     23  C   UNL     1       2.835   2.457  17.685  0.00  0.00    +0.000 C 
ATOM     24  C   UNL     1       2.897   3.015  19.072  0.00  0.00    +0.000 C 
ATOM     25  O   UNL     1       1.939   3.123  19.824  0.00  0.00    +0.000 OA
ENDBRANCH  22  24
ENDBRANCH   1  22
BRANCH   6  26
ATOM     26  C   UNL     1       7.492   6.332  17.894  0.00  0.00    +0.000 C 
BRANCH  26  27
ATOM     27  C   UNL     1       8.226   7.547  18.449  0.00  0.00    +0.000 C 
BRANCH  27  28
ATOM     28  C   UNL     1       7.862   8.818  17.675  0.00  0.00    +0.000 C 
BRANCH  28  29
ATOM     29  C   UNL     1       8.539  10.032  18.250  0.00  0.00    +0.000 A 
ATOM     30  C   UNL     1       9.273   9.930  19.438  0.00  0.00    +0.000 A 
ATOM     31  C   UNL     1       9.893  11.057  19.982  0.00  0.00    +0.000 A 
ATOM     32  C   UNL     1       9.775  12.294  19.345  0.00  0.00    +0.000 A 
ATOM     33  C   UNL     1       9.037  12.400  18.164  0.00  0.00    +0.000 A 
ATOM     34  C   UNL     1       8.419  11.277  17.620  0.00  0.00    +0.000 A 
ENDBRANCH  28  29
ENDBRANCH  27  28
ENDBRANCH  26  27
ENDBRANCH   6  26
TORSDOF 13
ENDMDL
MODEL 4
REMARK VINA RESULT:      -7.4      1.151      1.718
REMARK  Name = 
REMARK  15 active torsions:
REMARK  status: ('A' for Active; 'I' for Inactive)
REMARK    1  A    between atoms: C_1  and  C_2
REMARK    2  A    between atoms: C_2  and  O_4
REMARK    3  A    between atoms: O_4  and  C_5
REMARK    4  A    between atoms: C_6  and  C_7
REMARK    5  A    between atoms: C_7  and  C_8
REMARK    6  A    between atoms: C_7  and  O_9
REMARK    7  A    between atoms: O_9  and  C_10
REMARK    8  A    between atoms: C_10  and  C_12
REMARK    9  A    between atoms: C_12  and  C_13
REMARK   10  A    between atoms: C_13  and  C_14
REMARK   11  A    between atoms: C_14  and  C_15
REMARK   12  A    between atoms: C_24  and  C_26
REMARK   13  A    between atoms: C_26  and  C_27
REMARK   14  A    between atoms: C_27  and  C_28
REMARK   15  A    between atoms: C_28  and  C_29
REMARK                            x       y       z     vdW  Elec       q    Type
REMARK                         _______ _______ _______ _____ _____    ______ ____
ROOT
ATOM      1  C   UNL     1       4.807   4.599  19.075  0.00  0.00    +0.000 C 
ATOM      2  C   UNL     1       3.887   5.029  17.884  0.00  0.00    +0.000 C 
ATOM      3  C   UNL     1       5.046   5.931  17.481  0.00  0.00    +0.000 C 
ATOM      4  O   UNL     1       5.229   6.760  16.617  0.00  0.00    +0.000 OA
ATOM      5  N   UNL     1       5.836   5.436  18.469  0.00  0.00    +0.000 N 
ATOM      6  C   UNL     1       7.048   5.840  18.976  0.00  0.00    +0.000 C 
ATOM      7  O   UNL     1       7.422   5.545  20.110  0.00  0.00    +0.000 OA
ENDROOT
BRANCH   2   8
ATOM      8  C   UNL     1       2.595   5.780  18.149  0.00  0.00    +0.000 C 
ATOM      9  C   UNL     1       1.432   4.820  18.407  0.00  0.00    +0.000 C 
BRANCH   8  10
ATOM     10  O   UNL     1       2.742   6.727  19.232  0.00  0.00    +0.000 OA
BRANCH  10  11
ATOM     11  C   UNL     1       1.951   6.623  20.333  0.00  0.00    +0.000 C 
ATOM     12  O   UNL     1       1.576   5.574  20.836  0.00  0.00    +0.000 OA
BRANCH  11  13
ATOM     13  C   UNL     1       1.645   7.977  20.907  0.00  0.00    +0.000 C 
BRANCH  13  14
ATOM     14  C   UNL     1       0.628   8.708  20.046  0.00  0.00    +0.000 C 
BRANCH  14  15
ATOM     15  C   UNL     1       1.301   9.411  18.870  0.00  0.00    +0.000 C 
BRANCH  15  16
ATOM     16  C   UNL     1       0.677  10.764  18.655  0.00  0.00    +0.000 A 
ATOM     17  C   UNL     1       1.451  11.926  18.765  0.00  0.00    +0.000 A 
ATOM     18  C   UNL     1       0.856  13.181  18.645  0.00  0.00    +0.000 A 
ATOM     19  C   UNL     1      -0.515  13.284  18.416  0.00  0.00    +0.000 A 
ATOM     20  C   UNL     1      -1.292  12.132  18.301  0.00  0.00    +0.000 A 
ATOM     21  C   UNL     1      -0.699  10.877  18.421  0.00  0.00    +0.000 A 
ENDBRANCH  15  16
ENDBRANCH  14  15
ENDBRANCH  13  14
ENDBRANCH  11  13
ENDBRANCH  10  11
ENDBRANCH   8  10
ENDBRANCH   2   8
BRANCH   1  22
ATOM     22  O   UNL     1       5.105   3.189  19.072  0.00  0.00    +0.000 OA
BRANCH  22  24
ATOM     23  C   UNL     1       3.621   1.492  18.456  0.00  0.00    +0.000 C 
ATOM     24  C   UNL     1       4.094   2.413  19.536  0.00  0.00    +0.000 C 
ATOM     25  O   UNL     1       3.553   2.548  20.624  0.00  0.00    +0.000 OA
ENDBRANCH  22  24
ENDBRANCH   1  22
BRANCH   6  26
ATOM     26  C   UNL     1       7.865   6.723  18.046  0.00  0.00    +0.000 C 
BRANCH  26  27
ATOM     27  C   UNL     1       8.480   7.920  18.763  0.00  0.00    +0.000 C 
BRANCH  27  28
ATOM     28  C   UNL     1       8.270   9.212  17.968  0.00  0.00    +0.000 C 
BRANCH  28  29
ATOM     29  C   UNL     1       8.995  10.373  18.592  0.00  0.00    +0.000 A 
ATOM     30  C   UNL     1       9.357  11.477  17.812  0.00  0.00    +0.000 A 
ATOM     31  C   UNL     1      10.043  12.551  18.384  0.00  0.00    +0.000 A 
ATOM     32  C   UNL     1      10.377  12.522  19.740  0.00  0.00    +0.000 A 
ATOM     33  C   UNL     1      10.024  11.418  20.519  0.00  0.00    +0.000 A 
ATOM     34  C   UNL     1       9.340  10.347  19.949  0.00  0.00    +0.000 A 
ENDBRANCH  28  29
ENDBRANCH  27  28
ENDBRANCH  26  27
ENDBRANCH   6  26
TORSDOF 13
ENDMDL
MODEL 5
REMARK VINA RESULT:      -7.4      3.542      5.202
REMARK  Name = 
REMARK  15 active torsions:
REMARK  status: ('A' for Active; 'I' for Inactive)
REMARK    1  A    between atoms: C_1  and  C_2
REMARK    2  A    between atoms: C_2  and  O_4
REMARK    3  A    between atoms: O_4  and  C_5
REMARK    4  A    between atoms: C_6  and  C_7
REMARK    5  A    between atoms: C_7  and  C_8
REMARK    6  A    between atoms: C_7  and  O_9
REMARK    7  A    between atoms: O_9  and  C_10
REMARK    8  A    between atoms: C_10  and  C_12
REMARK    9  A    between atoms: C_12  and  C_13
REMARK   10  A    between atoms: C_13  and  C_14
REMARK   11  A    between atoms: C_14  and  C_15
REMARK   12  A    between atoms: C_24  and  C_26
REMARK   13  A    between atoms: C_26  and  C_27
REMARK   14  A    between atoms: C_27  and  C_28
REMARK   15  A    between atoms: C_28  and  C_29
REMARK                            x       y       z     vdW  Elec       q    Type
REMARK                         _______ _______ _______ _____ _____    ______ ____
ROOT
ATOM      1  C   UNL     1       2.668   5.373  19.043  0.00  0.00    +0.000 C 
ATOM      2  C   UNL     1       2.463   6.768  18.364  0.00  0.00    +0.000 C 
ATOM      3  C   UNL     1       3.946   6.680  18.027  0.00  0.00    +0.000 C 
ATOM      4  O   UNL     1       4.753   7.415  17.502  0.00  0.00    +0.000 OA
ATOM      5  N   UNL     1       4.035   5.423  18.534  0.00  0.00    +0.000 N 
ATOM      6  C   UNL     1       5.107   4.614  18.824  0.00  0.00    +0.000 C 
ATOM      7  O   UNL     1       5.043   3.697  19.640  0.00  0.00    +0.000 OA
ENDROOT
BRANCH   2   8
ATOM      8  C   UNL     1       2.100   7.980  19.203  0.00  0.00    +0.000 C 
ATOM      9  C   UNL     1       1.394   9.049  18.366  0.00  0.00    +0.000 C 
BRANCH   8  10
ATOM     10  O   UNL     1       1.310   7.611  20.357  0.00  0.00    +0.000 OA
BRANCH  10  11
ATOM     11  C   UNL     1       1.193   8.475  21.399  0.00  0.00    +0.000 C 
ATOM     12  O   UNL     1       2.126   9.007  21.985  0.00  0.00    +0.000 OA
BRANCH  11  13
ATOM     13  C   UNL     1      -0.251   8.757  21.706  0.00  0.00    +0.000 C 
BRANCH  13  14
ATOM     14  C   UNL     1      -0.542  10.245  21.602  0.00  0.00    +0.000 C 
BRANCH  14  15
ATOM     15  C   UNL     1      -0.965  10.821  22.951  0.00  0.00    +0.000 C 
BRANCH  15  16
ATOM     16  C   UNL     1      -1.965  11.927  22.746  0.00  0.00    +0.000 A 
ATOM     17  C   UNL     1      -3.066  12.053  23.604  0.00  0.00    +0.000 A 
ATOM     18  C   UNL     1      -4.034  13.028  23.365  0.00  0.00    +0.000 A 
ATOM     19  C   UNL     1      -3.912  13.880  22.270  0.00  0.00    +0.000 A 
ATOM     20  C   UNL     1      -2.818  13.763  21.413  0.00  0.00    +0.000 A 
ATOM     21  C   UNL     1      -1.848  12.790  21.650  0.00  0.00    +0.000 A 
ENDBRANCH  15  16
ENDBRANCH  14  15
ENDBRANCH  13  14
ENDBRANCH  11  13
ENDBRANCH  10  11
ENDBRANCH   8  10
ENDBRANCH   2   8
BRANCH   1  22
ATOM     22  O   UNL     1       1.851   4.340  18.459  0.00  0.00    +0.000 OA
BRANCH  22  24
ATOM     23  C   UNL     1       1.191   4.010  20.676  0.00  0.00    +0.000 C 
ATOM     24  C   UNL     1       1.456   3.388  19.340  0.00  0.00    +0.000 C 
ATOM     25  O   UNL     1       1.459   2.186  19.119  0.00  0.00    +0.000 OA
ENDBRANCH  22  24
ENDBRANCH   1  22
BRANCH   6  26
ATOM     26  C   UNL     1       6.393   4.977  18.096  0.00  0.00    +0.000 C 
BRANCH  26  27
ATOM     27  C   UNL     1       6.529   4.264  16.755  0.00  0.00    +0.000 C 
BRANCH  27  28
ATOM     28  C   UNL     1       7.205   5.163  15.714  0.00  0.00    +0.000 C 
BRANCH  28  29
ATOM     29  C   UNL     1       6.937   4.688  14.312  0.00  0.00    +0.000 A 
ATOM     30  C   UNL     1       5.875   3.812  14.058  0.00  0.00    +0.000 A 
ATOM     31  C   UNL     1       5.630   3.358  12.760  0.00  0.00    +0.000 A 
ATOM     32  C   UNL     1       6.452   3.773  11.710  0.00  0.00    +0.000 A 
ATOM     33  C   UNL     1       7.517   4.640  11.962  0.00  0.00    +0.000 A 
ATOM     34  C   UNL     1       7.762   5.093  13.256  0.00  0.00    +0.000 A 
ENDBRANCH  28  29
ENDBRANCH  27  28
ENDBRANCH  26  27
ENDBRANCH   6  26
TORSDOF 13
ENDMDL
MODEL 6
REMARK VINA RESULT:      -7.4      3.430      5.165
REMARK  Name = 
REMARK  15 active torsions:
REMARK  status: ('A' for Active; 'I' for Inactive)
REMARK    1  A    between atoms: C_1  and  C_2
REMARK    2  A    between atoms: C_2  and  O_4
REMARK    3  A    between atoms: O_4  and  C_5
REMARK    4  A    between atoms: C_6  and  C_7
REMARK    5  A    between atoms: C_7  and  C_8
REMARK    6  A    between atoms: C_7  and  O_9
REMARK    7  A    between atoms: O_9  and  C_10
REMARK    8  A    between atoms: C_10  and  C_12
REMARK    9  A    between atoms: C_12  and  C_13
REMARK   10  A    between atoms: C_13  and  C_14
REMARK   11  A    between atoms: C_14  and  C_15
REMARK   12  A    between atoms: C_24  and  C_26
REMARK   13  A    between atoms: C_26  and  C_27
REMARK   14  A    between atoms: C_27  and  C_28
REMARK   15  A    between atoms: C_28  and  C_29
REMARK                            x       y       z     vdW  Elec       q    Type
REMARK                         _______ _______ _______ _____ _____    ______ ____
ROOT
ATOM      1  C   UNL     1       2.825   5.084  18.380  0.00  0.00    +0.000 C 
ATOM      2  C   UNL     1       2.636   6.468  17.673  0.00  0.00    +0.000 C 
ATOM      3  C   UNL     1       4.158   6.532  17.673  0.00  0.00    +0.000 C 
ATOM      4  O   UNL     1       4.983   7.354  17.339  0.00  0.00    +0.000 OA
ATOM      5  N   UNL     1       4.257   5.278  18.186  0.00  0.00    +0.000 N 
ATOM      6  C   UNL     1       5.315   4.571  18.705  0.00  0.00    +0.000 C 
ATOM      7  O   UNL     1       5.165   3.633  19.486  0.00  0.00    +0.000 OA
ENDROOT
BRANCH   2   8
ATOM      8  C   UNL     1       1.978   7.620  18.412  0.00  0.00    +0.000 C 
ATOM      9  C   UNL     1       2.234   7.538  19.918  0.00  0.00    +0.000 C 
BRANCH   8  10
ATOM     10  O   UNL     1       2.391   8.899  17.879  0.00  0.00    +0.000 OA
BRANCH  10  11
ATOM     11  C   UNL     1       1.674  10.016  18.173  0.00  0.00    +0.000 C 
ATOM     12  O   UNL     1       2.148  11.116  18.421  0.00  0.00    +0.000 OA
BRANCH  11  13
ATOM     13  C   UNL     1       0.198   9.747  18.087  0.00  0.00    +0.000 C 
BRANCH  13  14
ATOM     14  C   UNL     1      -0.586  11.048  18.081  0.00  0.00    +0.000 C 
BRANCH  14  15
ATOM     15  C   UNL     1      -1.696  11.030  19.129  0.00  0.00    +0.000 C 
BRANCH  15  16
ATOM     16  C   UNL     1      -3.007  11.409  18.494  0.00  0.00    +0.000 A 
ATOM     17  C   UNL     1      -3.996  12.058  19.245  0.00  0.00    +0.000 A 
ATOM     18  C   UNL     1      -5.239  12.337  18.679  0.00  0.00    +0.000 A 
ATOM     19  C   UNL     1      -5.505  11.967  17.363  0.00  0.00    +0.000 A 
ATOM     20  C   UNL     1      -4.526  11.322  16.607  0.00  0.00    +0.000 A 
ATOM     21  C   UNL     1      -3.282  11.044  17.171  0.00  0.00    +0.000 A 
ENDBRANCH  15  16
ENDBRANCH  14  15
ENDBRANCH  13  14
ENDBRANCH  11  13
ENDBRANCH  10  11
ENDBRANCH   8  10
ENDBRANCH   2   8
BRANCH   1  22
ATOM     22  O   UNL     1       2.263   3.990  17.629  0.00  0.00    +0.000 OA
BRANCH  22  24
ATOM     23  C   UNL     1       1.065   3.426  19.554  0.00  0.00    +0.000 C 
ATOM     24  C   UNL     1       1.877   2.940  18.395  0.00  0.00    +0.000 C 
ATOM     25  O   UNL     1       2.257   1.788  18.244  0.00  0.00    +0.000 OA
ENDBRANCH  22  24
ENDBRANCH   1  22
BRANCH   6  26
ATOM     26  C   UNL     1       6.687   5.073  18.279  0.00  0.00    +0.000 C 
BRANCH  26  27
ATOM     27  C   UNL     1       7.145   4.475  16.954  0.00  0.00    +0.000 C 
BRANCH  27  28
ATOM     28  C   UNL     1       7.066   5.505  15.822  0.00  0.00    +0.000 C 
BRANCH  28  29
ATOM     29  C   UNL     1       6.826   4.849  14.490  0.00  0.00    +0.000 A 
ATOM     30  C   UNL     1       7.717   5.064  13.431  0.00  0.00    +0.000 A 
ATOM     31  C   UNL     1       7.491   4.467  12.188  0.00  0.00    +0.000 A 
ATOM     32  C   UNL     1       6.369   3.658  11.996  0.00  0.00    +0.000 A 
ATOM     33  C   UNL     1       5.475   3.449  13.048  0.00  0.00    +0.000 A 
ATOM     34  C   UNL     1       5.699   4.043  14.288  0.00  0.00    +0.000 A 
ENDBRANCH  28  29
ENDBRANCH  27  28
ENDBRANCH  26  27
ENDBRANCH   6  26
TORSDOF 13
ENDMDL
MODEL 7
REMARK VINA RESULT:      -7.4      1.276      2.013
REMARK  Name = 
REMARK  15 active torsions:
REMARK  status: ('A' for Active; 'I' for Inactive)
REMARK    1  A    between atoms: C_1  and  C_2
REMARK    2  A    between atoms: C_2  and  O_4
REMARK    3  A    between atoms: O_4  and  C_5
REMARK    4  A    between atoms: C_6  and  C_7
REMARK    5  A    between atoms: C_7  and  C_8
REMARK    6  A    between atoms: C_7  and  O_9
REMARK    7  A    between atoms: O_9  and  C_10
REMARK    8  A    between atoms: C_10  and  C_12
REMARK    9  A    between atoms: C_12  and  C_13
REMARK   10  A    between atoms: C_13  and  C_14
REMARK   11  A    between atoms: C_14  and  C_15
REMARK   12  A    between atoms: C_24  and  C_26
REMARK   13  A    between atoms: C_26  and  C_27
REMARK   14  A    between atoms: C_27  and  C_28
REMARK   15  A    between atoms: C_28  and  C_29
REMARK                            x       y       z     vdW  Elec       q    Type
REMARK                         _______ _______ _______ _____ _____    ______ ____
ROOT
ATOM      1  C   UNL     1       4.427   4.814  18.896  0.00  0.00    +0.000 C 
ATOM      2  C   UNL     1       3.371   5.647  18.096  0.00  0.00    +0.000 C 
ATOM      3  C   UNL     1       4.558   6.494  17.657  0.00  0.00    +0.000 C 
ATOM      4  O   UNL     1       4.699   7.500  16.999  0.00  0.00    +0.000 OA
ATOM      5  N   UNL     1       5.438   5.668  18.282  0.00  0.00    +0.000 N 
ATOM      6  C   UNL     1       6.777   5.787  18.569  0.00  0.00    +0.000 C 
ATOM      7  O   UNL     1       7.317   5.158  19.477  0.00  0.00    +0.000 OA
ENDROOT
BRANCH   2   8
ATOM      8  C   UNL     1       2.301   6.433  18.832  0.00  0.00    +0.000 C 
ATOM      9  C   UNL     1       1.995   5.818  20.198  0.00  0.00    +0.000 C 
BRANCH   8  10
ATOM     10  O   UNL     1       2.656   7.830  18.953  0.00  0.00    +0.000 OA
BRANCH  10  11
ATOM     11  C   UNL     1       1.867   8.779  18.383  0.00  0.00    +0.000 C 
ATOM     12  O   UNL     1       2.053   9.285  17.285  0.00  0.00    +0.000 OA
BRANCH  11  13
ATOM     13  C   UNL     1       0.680   9.085  19.250  0.00  0.00    +0.000 C 
BRANCH  13  14
ATOM     14  C   UNL     1       1.053  10.072  20.344  0.00  0.00    +0.000 C 
BRANCH  14  15
ATOM     15  C   UNL     1       0.859  11.513  19.878  0.00  0.00    +0.000 C 
BRANCH  15  16
ATOM     16  C   UNL     1      -0.285  12.144  20.626  0.00  0.00    +0.000 A 
ATOM     17  C   UNL     1      -0.049  12.868  21.802  0.00  0.00    +0.000 A 
ATOM     18  C   UNL     1      -1.115  13.384  22.536  0.00  0.00    +0.000 A 
ATOM     19  C   UNL     1      -2.424  13.180  22.104  0.00  0.00    +0.000 A 
ATOM     20  C   UNL     1      -2.668  12.463  20.932  0.00  0.00    +0.000 A 
ATOM     21  C   UNL     1      -1.603  11.947  20.196  0.00  0.00    +0.000 A 
ENDBRANCH  15  16
ENDBRANCH  14  15
ENDBRANCH  13  14
ENDBRANCH  11  13
ENDBRANCH  10  11
ENDBRANCH   8  10
ENDBRANCH   2   8
BRANCH   1  22
ATOM     22  O   UNL     1       4.481   3.434  18.485  0.00  0.00    +0.000 OA
BRANCH  22  24
ATOM     23  C   UNL     1       2.723   2.263  19.485  0.00  0.00    +0.000 C 
ATOM     24  C   UNL     1       4.191   2.554  19.476  0.00  0.00    +0.000 C 
ATOM     25  O   UNL     1       4.983   2.173  20.325  0.00  0.00    +0.000 OA
ENDBRANCH  22  24
ENDBRANCH   1  22
BRANCH   6  26
ATOM     26  C   UNL     1       7.525   6.795  17.711  0.00  0.00    +0.000 C 
BRANCH  26  27
ATOM     27  C   UNL     1       8.235   7.859  18.540  0.00  0.00    +0.000 C 
BRANCH  27  28
ATOM     28  C   UNL     1       8.188   9.226  17.849  0.00  0.00    +0.000 C 
BRANCH  28  29
ATOM     29  C   UNL     1       9.091  10.221  18.524  0.00  0.00    +0.000 A 
ATOM     30  C   UNL     1       9.873  11.093  17.757  0.00  0.00    +0.000 A 
ATOM     31  C   UNL     1      10.723  12.010  18.380  0.00  0.00    +0.000 A 
ATOM     32  C   UNL     1      10.801  12.055  19.774  0.00  0.00    +0.000 A 
ATOM     33  C   UNL     1      10.027  11.181  20.540  0.00  0.00    +0.000 A 
ATOM     34  C   UNL     1       9.179  10.266  19.921  0.00  0.00    +0.000 A 
ENDBRANCH  28  29
ENDBRANCH  27  28
ENDBRANCH  26  27
ENDBRANCH   6  26
TORSDOF 13
ENDMDL
MODEL 8
REMARK VINA RESULT:      -7.3      3.403      4.938
REMARK  Name = 
REMARK  15 active torsions:
REMARK  status: ('A' for Active; 'I' for Inactive)
REMARK    1  A    between atoms: C_1  and  C_2
REMARK    2  A    between atoms: C_2  and  O_4
REMARK    3  A    between atoms: O_4  and  C_5
REMARK    4  A    between atoms: C_6  and  C_7
REMARK    5  A    between atoms: C_7  and  C_8
REMARK    6  A    between atoms: C_7  and  O_9
REMARK    7  A    between atoms: O_9  and  C_10
REMARK    8  A    between atoms: C_10  and  C_12
REMARK    9  A    between atoms: C_12  and  C_13
REMARK   10  A    between atoms: C_13  and  C_14
REMARK   11  A    between atoms: C_14  and  C_15
REMARK   12  A    between atoms: C_24  and  C_26
REMARK   13  A    between atoms: C_26  and  C_27
REMARK   14  A    between atoms: C_27  and  C_28
REMARK   15  A    between atoms: C_28  and  C_29
REMARK                            x       y       z     vdW  Elec       q    Type
REMARK                         _______ _______ _______ _____ _____    ______ ____
ROOT
ATOM      1  C   UNL     1       2.817   5.053  18.683  0.00  0.00    +0.000 C 
ATOM      2  C   UNL     1       2.431   6.400  17.985  0.00  0.00    +0.000 C 
ATOM      3  C   UNL     1       3.929   6.565  17.761  0.00  0.00    +0.000 C 
ATOM      4  O   UNL     1       4.637   7.429  17.295  0.00  0.00    +0.000 OA
ATOM      5  N   UNL     1       4.189   5.336  18.279  0.00  0.00    +0.000 N 
ATOM      6  C   UNL     1       5.358   4.716  18.651  0.00  0.00    +0.000 C 
ATOM      7  O   UNL     1       5.388   3.794  19.464  0.00  0.00    +0.000 OA
ENDROOT
BRANCH   2   8
ATOM      8  C   UNL     1       1.808   7.526  18.789  0.00  0.00    +0.000 C 
ATOM      9  C   UNL     1       2.102   7.377  20.283  0.00  0.00    +0.000 C 
BRANCH   8  10
ATOM     10  O   UNL     1       2.222   8.823  18.300  0.00  0.00    +0.000 OA
BRANCH  10  11
ATOM     11  C   UNL     1       1.402   9.895  18.452  0.00  0.00    +0.000 C 
ATOM     12  O   UNL     1       1.725  10.968  18.944  0.00  0.00    +0.000 OA
BRANCH  11  13
ATOM     13  C   UNL     1       0.045   9.623  17.869  0.00  0.00    +0.000 C 
BRANCH  13  14
ATOM     14  C   UNL     1      -1.044  10.243  18.728  0.00  0.00    +0.000 C 
BRANCH  14  15
ATOM     15  C   UNL     1      -1.645  11.475  18.055  0.00  0.00    +0.000 C 
BRANCH  15  16
ATOM     16  C   UNL     1      -1.315  12.708  18.852  0.00  0.00    +0.000 A 
ATOM     17  C   UNL     1      -0.412  13.655  18.350  0.00  0.00    +0.000 A 
ATOM     18  C   UNL     1      -0.046  14.755  19.123  0.00  0.00    +0.000 A 
ATOM     19  C   UNL     1      -0.575  14.918  20.402  0.00  0.00    +0.000 A 
ATOM     20  C   UNL     1      -1.477  13.982  20.908  0.00  0.00    +0.000 A 
ATOM     21  C   UNL     1      -1.845  12.881  20.137  0.00  0.00    +0.000 A 
ENDBRANCH  15  16
ENDBRANCH  14  15
ENDBRANCH  13  14
ENDBRANCH  11  13
ENDBRANCH  10  11
ENDBRANCH   8  10
ENDBRANCH   2   8
BRANCH   1  22
ATOM     22  O   UNL     1       2.231   3.902  18.044  0.00  0.00    +0.000 OA
BRANCH  22  24
ATOM     23  C   UNL     1       1.414   3.713  20.225  0.00  0.00    +0.000 C 
ATOM     24  C   UNL     1       1.302   3.267  18.801  0.00  0.00    +0.000 C 
ATOM     25  O   UNL     1       0.582   2.361  18.408  0.00  0.00    +0.000 OA
ENDBRANCH  22  24
ENDBRANCH   1  22
BRANCH   6  26
ATOM     26  C   UNL     1       6.615   5.296  18.020  0.00  0.00    +0.000 C 
BRANCH  26  27
ATOM     27  C   UNL     1       7.128   4.456  16.855  0.00  0.00    +0.000 C 
BRANCH  27  28
ATOM     28  C   UNL     1       5.993   4.089  15.893  0.00  0.00    +0.000 C 
BRANCH  28  29
ATOM     29  C   UNL     1       6.430   4.186  14.457  0.00  0.00    +0.000 A 
ATOM     30  C   UNL     1       7.441   5.082  14.089  0.00  0.00    +0.000 A 
ATOM     31  C   UNL     1       7.840   5.185  12.755  0.00  0.00    +0.000 A 
ATOM     32  C   UNL     1       7.224   4.398  11.779  0.00  0.00    +0.000 A 
ATOM     33  C   UNL     1       6.210   3.510  12.142  0.00  0.00    +0.000 A 
ATOM     34  C   UNL     1       5.811   3.406  13.473  0.00  0.00    +0.000 A 
ENDBRANCH  28  29
ENDBRANCH  27  28
ENDBRANCH  26  27
ENDBRANCH   6  26
TORSDOF 13
ENDMDL
MODEL 9
REMARK VINA RESULT:      -7.3      2.644      4.490
REMARK  Name = 
REMARK  15 active torsions:
REMARK  status: ('A' for Active; 'I' for Inactive)
REMARK    1  A    between atoms: C_1  and  C_2
REMARK    2  A    between atoms: C_2  and  O_4
REMARK    3  A    between atoms: O_4  and  C_5
REMARK    4  A    between atoms: C_6  and  C_7
REMARK    5  A    between atoms: C_7  and  C_8
REMARK    6  A    between atoms: C_7  and  O_9
REMARK    7  A    between atoms: O_9  and  C_10
REMARK    8  A    between atoms: C_10  and  C_12
REMARK    9  A    between atoms: C_12  and  C_13
REMARK   10  A    between atoms: C_13  and  C_14
REMARK   11  A    between atoms: C_14  and  C_15
REMARK   12  A    between atoms: C_24  and  C_26
REMARK   13  A    between atoms: C_26  and  C_27
REMARK   14  A    between atoms: C_27  and  C_28
REMARK   15  A    between atoms: C_28  and  C_29
REMARK                            x       y       z     vdW  Elec       q    Type
REMARK                         _______ _______ _______ _____ _____    ______ ____
ROOT
ATOM      1  C   UNL     1       4.244   4.550  19.475  0.00  0.00    +0.000 C 
ATOM      2  C   UNL     1       2.989   5.144  18.751  0.00  0.00    +0.000 C 
ATOM      3  C   UNL     1       3.974   6.112  18.109  0.00  0.00    +0.000 C 
ATOM      4  O   UNL     1       3.883   7.064  17.367  0.00  0.00    +0.000 OA
ATOM      5  N   UNL     1       5.035   5.483  18.680  0.00  0.00    +0.000 N 
ATOM      6  C   UNL     1       6.362   5.822  18.792  0.00  0.00    +0.000 C 
ATOM      7  O   UNL     1       7.090   5.364  19.670  0.00  0.00    +0.000 OA
ENDROOT
BRANCH   2   8
ATOM      8  C   UNL     1       1.897   5.829  19.553  0.00  0.00    +0.000 C 
ATOM      9  C   UNL     1       1.323   4.899  20.624  0.00  0.00    +0.000 C 
BRANCH   8  10
ATOM     10  O   UNL     1       2.360   7.071  20.131  0.00  0.00    +0.000 OA
BRANCH  10  11
ATOM     11  C   UNL     1       1.587   8.185  20.044  0.00  0.00    +0.000 C 
ATOM     12  O   UNL     1       1.548   8.945  19.086  0.00  0.00    +0.000 OA
BRANCH  11  13
ATOM     13  C   UNL     1       0.721   8.336  21.262  0.00  0.00    +0.000 C 
BRANCH  13  14
ATOM     14  C   UNL     1       0.913   9.705  21.892  0.00  0.00    +0.000 C 
BRANCH  14  15
ATOM     15  C   UNL     1      -0.369  10.531  21.824  0.00  0.00    +0.000 C 
BRANCH  15  16
ATOM     16  C   UNL     1      -0.306  11.482  20.659  0.00  0.00    +0.000 A 
ATOM     17  C   UNL     1      -1.386  11.590  19.774  0.00  0.00    +0.000 A 
ATOM     18  C   UNL     1      -1.296  12.412  18.651  0.00  0.00    +0.000 A 
ATOM     19  C   UNL     1      -0.126  13.128  18.403  0.00  0.00    +0.000 A 
ATOM     20  C   UNL     1       0.953  13.028  19.280  0.00  0.00    +0.000 A 
ATOM     21  C   UNL     1       0.864  12.208  20.404  0.00  0.00    +0.000 A 
ENDBRANCH  15  16
ENDBRANCH  14  15
ENDBRANCH  13  14
ENDBRANCH  11  13
ENDBRANCH  10  11
ENDBRANCH   8  10
ENDBRANCH   2   8
BRANCH   1  22
ATOM     22  O   UNL     1       4.467   3.162  19.162  0.00  0.00    +0.000 OA
BRANCH  22  24
ATOM     23  C   UNL     1       3.532   2.177  21.064  0.00  0.00    +0.000 C 
ATOM     24  C   UNL     1       3.471   2.339  19.578  0.00  0.00    +0.000 C 
ATOM     25  O   UNL     1       2.732   1.708  18.837  0.00  0.00    +0.000 OA
ENDBRANCH  22  24
ENDBRANCH   1  22
BRANCH   6  26
ATOM     26  C   UNL     1       6.845   6.848  17.777  0.00  0.00    +0.000 C 
BRANCH  26  27
ATOM     27  C   UNL     1       7.446   6.204  16.533  0.00  0.00    +0.000 C 
BRANCH  27  28
ATOM     28  C   UNL     1       6.664   4.953  16.121  0.00  0.00    +0.000 C 
BRANCH  28  29
ATOM     29  C   UNL     1       6.785   4.682  14.647  0.00  0.00    +0.000 A 
ATOM     30  C   UNL     1       7.706   5.400  13.874  0.00  0.00    +0.000 A 
ATOM     31  C   UNL     1       7.812   5.161  12.502  0.00  0.00    +0.000 A 
ATOM     32  C   UNL     1       6.992   4.208  11.894  0.00  0.00    +0.000 A 
ATOM     33  C   UNL     1       6.068   3.496  12.661  0.00  0.00    +0.000 A 
ATOM     34  C   UNL     1       5.961   3.733  14.029  0.00  0.00    +0.000 A 
ENDBRANCH  28  29
ENDBRANCH  27  28
ENDBRANCH  26  27
ENDBRANCH   6  26
TORSDOF 13
ENDMDL
