MODEL 1
REMARK VINA RESULT:      -8.1      0.000      0.000
REMARK  Name = 
REMARK  6 active torsions:
REMARK  status: ('A' for Active; 'I' for Inactive)
REMARK    1  A    between atoms: C_1  and  C_2
REMARK    2  A    between atoms: C_2  and  O_3
REMARK    3  A    between atoms: O_3  and  C_4
REMARK    4  A    between atoms: C_4  and  C_6
REMARK    5  A    between atoms: C_7  and  N_8
REMARK    6  A    between atoms: C_21  and  C_22
REMARK                            x       y       z     vdW  Elec       q    Type
REMARK                         _______ _______ _______ _____ _____    ______ ____
ROOT
ATOM      1  C   UNL     1       6.663   6.242  18.265  0.00  0.00    +0.000 C 
ATOM      2  C   UNL     1       6.846   5.445  19.339  0.00  0.00    +0.000 C 
ATOM      3  O   UNL     1       5.807   4.629  19.807  0.00  0.00    +0.000 OA
ATOM      4  C   UNL     1       4.508   4.874  19.378  0.00  0.00    +0.000 A 
ATOM      5  C   UNL     1       4.243   5.672  18.334  0.00  0.00    +0.000 A 
ATOM      6  C   UNL     1       2.846   6.005  17.965  0.00  0.00    +0.000 A 
ATOM      7  O   UNL     1       2.583   6.801  17.068  0.00  0.00    +0.000 OA
ATOM      8  N   UNL     1       1.862   5.401  18.687  0.00  0.00    +0.000 N 
ATOM      9  C   UNL     1       2.097   4.485  19.718  0.00  0.00    +0.000 A 
ATOM     10  C   UNL     1       1.015   3.873  20.343  0.00  0.00    +0.000 A 
ATOM     11  C   UNL     1       1.243   2.921  21.335  0.00  0.00    +0.000 A 
ATOM     12  C   UNL     1       2.549   2.590  21.696  0.00  0.00    +0.000 A 
ATOM     13  C   UNL     1       3.634   3.222  21.079  0.00  0.00    +0.000 A 
ATOM     14  C   UNL     1       3.421   4.183  20.086  0.00  0.00    +0.000 A 
ATOM     15  C   UNL     1       5.349   6.261  17.510  0.00  0.00    +0.000 C 
ATOM     16  H   UNL     1       0.914   5.634  18.418  0.00  0.00    +0.000 HD
ENDROOT
BRANCH  15  17
ATOM     17  C   UNL     1       5.477   5.502  16.178  0.00  0.00    +0.000 A 
ATOM     18  C   UNL     1       5.829   4.144  16.177  0.00  0.00    +0.000 A 
ATOM     19  C   UNL     1       6.018   3.461  14.973  0.00  0.00    +0.000 A 
ATOM     20  C   UNL     1       5.854   4.127  13.760  0.00  0.00    +0.000 A 
ATOM     21 CL   UNL     1       6.134   3.297  12.280  0.00  0.00    +0.000 Cl
ATOM     22  C   UNL     1       5.474   5.465  13.739  0.00  0.00    +0.000 A 
ATOM     23  C   UNL     1       5.282   6.148  14.942  0.00  0.00    +0.000 A 
ENDBRANCH  15  17
BRANCH   2  24
ATOM     24  N   UNL     1       8.008   5.312  20.061  0.00  0.00    +0.000 N 
ATOM     25  H   UNL     1       7.843   5.239  21.066  0.00  0.00    +0.000 HD
ATOM     26  H   UNL     1       8.685   6.034  19.827  0.00  0.00    +0.000 HD
ENDBRANCH   2  24
BRANCH   1  27
ATOM     27  C   UNL     1       7.674   7.157  17.684  0.00  0.00    +0.000 C 
ATOM     28  O   UNL     1       8.065   7.073  16.528  0.00  0.00    +0.000 OA
BRANCH  27  29
ATOM     29  O   UNL     1       8.220   7.951  18.641  0.00  0.00    +0.000 OA
BRANCH  29  31
ATOM     30  C   UNL     1       9.241   9.984  19.326  0.00  0.00    +0.000 C 
ATOM     31  C   UNL     1       8.421   9.312  18.238  0.00  0.00    +0.000 C 
ENDBRANCH  29  31
ENDBRANCH  27  29
ENDBRANCH   1  27
TORSDOF 5
ENDMDL
MODEL 2
REMARK VINA RESULT:      -7.4      6.933      8.794
REMARK  Name = 
REMARK  6 active torsions:
REMARK  status: ('A' for Active; 'I' for Inactive)
REMARK    1  A    between atoms: C_1  and  C_2
REMARK    2  A    between atoms: C_2  and  O_3
REMARK    3  A    between atoms: O_3  and  C_4
REMARK    4  A    between atoms: C_4  and  C_6
REMARK    5  A    between atoms: C_7  and  N_8
REMARK    6  A    between atoms: C_21  and  C_22
REMARK                            x       y       z     vdW  Elec       q    Type
REMARK                         _______ _______ _______ _____ _____    ______ ____
ROOT
ATOM      1  C   UNL     1       0.958  12.448  19.140  0.00  0.00    +0.000 C 
ATOM      2  C   UNL     1       1.877  12.003  18.257  0.00  0.00    +0.000 C 
ATOM      3  O   UNL     1       2.107  10.629  18.097  0.00  0.00    +0.000 OA
ATOM      4  C   UNL     1       1.632   9.747  19.060  0.00  0.00    +0.000 A 
ATOM      5  C   UNL     1       0.735  10.119  19.985  0.00  0.00    +0.000 A 
ATOM      6  C   UNL     1       0.327   9.192  21.068  0.00  0.00    +0.000 A 
ATOM      7  O   UNL     1      -0.425   9.540  21.973  0.00  0.00    +0.000 OA
ATOM      8  N   UNL     1       0.848   7.934  21.024  0.00  0.00    +0.000 N 
ATOM      9  C   UNL     1       1.708   7.477  20.020  0.00  0.00    +0.000 A 
ATOM     10  C   UNL     1       2.125   6.149  20.035  0.00  0.00    +0.000 A 
ATOM     11  C   UNL     1       2.939   5.673  19.009  0.00  0.00    +0.000 A 
ATOM     12  C   UNL     1       3.332   6.527  17.979  0.00  0.00    +0.000 A 
ATOM     13  C   UNL     1       2.928   7.867  17.978  0.00  0.00    +0.000 A 
ATOM     14  C   UNL     1       2.115   8.360  19.003  0.00  0.00    +0.000 A 
ATOM     15  C   UNL     1       0.121  11.487  19.960  0.00  0.00    +0.000 C 
ATOM     16  H   UNL     1       0.555   7.312  21.767  0.00  0.00    +0.000 HD
ENDROOT
BRANCH  15  17
ATOM     17  C   UNL     1      -1.314  11.412  19.412  0.00  0.00    +0.000 A 
ATOM     18  C   UNL     1      -1.603  10.581  18.318  0.00  0.00    +0.000 A 
ATOM     19  C   UNL     1      -2.885  10.557  17.765  0.00  0.00    +0.000 A 
ATOM     20  C   UNL     1      -3.891  11.359  18.300  0.00  0.00    +0.000 A 
ATOM     21 CL   UNL     1      -5.457  11.363  17.588  0.00  0.00    +0.000 Cl
ATOM     22  C   UNL     1      -3.634  12.166  19.403  0.00  0.00    +0.000 A 
ATOM     23  C   UNL     1      -2.353  12.189  19.959  0.00  0.00    +0.000 A 
ENDBRANCH  15  17
BRANCH   2  24
ATOM     24  N   UNL     1       2.650  12.782  17.429  0.00  0.00    +0.000 N 
ATOM     25  H   UNL     1       2.144  13.104  16.602  0.00  0.00    +0.000 HD
ATOM     26  H   UNL     1       3.531  12.331  17.198  0.00  0.00    +0.000 HD
ENDBRANCH   2  24
BRANCH   1  27
ATOM     27  C   UNL     1       0.634  13.869  19.410  0.00  0.00    +0.000 C 
ATOM     28  O   UNL     1       0.335  14.664  18.531  0.00  0.00    +0.000 OA
BRANCH  27  29
ATOM     29  O   UNL     1       0.894  14.190  20.704  0.00  0.00    +0.000 OA
BRANCH  29  31
ATOM     30  C   UNL     1      -0.544  14.129  22.594  0.00  0.00    +0.000 C 
ATOM     31  C   UNL     1      -0.156  14.918  21.356  0.00  0.00    +0.000 C 
ENDBRANCH  29  31
ENDBRANCH  27  29
ENDBRANCH   1  27
TORSDOF 5
ENDMDL
MODEL 3
REMARK VINA RESULT:      -7.3      6.971      8.803
REMARK  Name = 
REMARK  6 active torsions:
REMARK  status: ('A' for Active; 'I' for Inactive)
REMARK    1  A    between atoms: C_1  and  C_2
REMARK    2  A    between atoms: C_2  and  O_3
REMARK    3  A    between atoms: O_3  and  C_4
REMARK    4  A    between atoms: C_4  and  C_6
REMARK    5  A    between atoms: C_7  and  N_8
REMARK    6  A    between atoms: C_21  and  C_22
REMARK                            x       y       z     vdW  Elec       q    Type
REMARK                         _______ _______ _______ _____ _____    ______ ____
ROOT
ATOM      1  C   UNL     1       0.987  12.404  19.261  0.00  0.00    +0.000 C 
ATOM      2  C   UNL     1       1.915  12.009  18.364  0.00  0.00    +0.000 C 
ATOM      3  O   UNL     1       2.155  10.646  18.139  0.00  0.00    +0.000 OA
ATOM      4  C   UNL     1       1.679   9.715  19.055  0.00  0.00    +0.000 A 
ATOM      5  C   UNL     1       0.774  10.036  19.990  0.00  0.00    +0.000 A 
ATOM      6  C   UNL     1       0.365   9.055  21.024  0.00  0.00    +0.000 A 
ATOM      7  O   UNL     1      -0.396   9.354  21.939  0.00  0.00    +0.000 OA
ATOM      8  N   UNL     1       0.894   7.804  20.923  0.00  0.00    +0.000 N 
ATOM      9  C   UNL     1       1.763   7.402  19.904  0.00  0.00    +0.000 A 
ATOM     10  C   UNL     1       2.189   6.077  19.858  0.00  0.00    +0.000 A 
ATOM     11  C   UNL     1       3.013   5.657  18.816  0.00  0.00    +0.000 A 
ATOM     12  C   UNL     1       3.407   6.562  17.831  0.00  0.00    +0.000 A 
ATOM     13  C   UNL     1       2.995   7.898  17.892  0.00  0.00    +0.000 A 
ATOM     14  C   UNL     1       2.171   8.335  18.935  0.00  0.00    +0.000 A 
ATOM     15  C   UNL     1       0.151  11.400  20.027  0.00  0.00    +0.000 C 
ATOM     16  H   UNL     1       0.600   7.145  21.633  0.00  0.00    +0.000 HD
ENDROOT
BRANCH  15  17
ATOM     17  C   UNL     1      -1.280  11.343  19.465  0.00  0.00    +0.000 A 
ATOM     18  C   UNL     1      -1.578  10.484  18.396  0.00  0.00    +0.000 A 
ATOM     19  C   UNL     1      -2.855  10.474  17.829  0.00  0.00    +0.000 A 
ATOM     20  C   UNL     1      -3.846  11.318  18.327  0.00  0.00    +0.000 A 
ATOM     21 CL   UNL     1      -5.403  11.338  17.598  0.00  0.00    +0.000 Cl
ATOM     22  C   UNL     1      -3.580  12.154  19.407  0.00  0.00    +0.000 A 
ATOM     23  C   UNL     1      -2.305  12.163  19.976  0.00  0.00    +0.000 A 
ENDBRANCH  15  17
BRANCH   2  24
ATOM     24  N   UNL     1       2.689  12.832  17.580  0.00  0.00    +0.000 N 
ATOM     25  H   UNL     1       2.469  12.752  16.586  0.00  0.00    +0.000 HD
ATOM     26  H   UNL     1       3.680  12.716  17.772  0.00  0.00    +0.000 HD
ENDBRANCH   2  24
BRANCH   1  27
ATOM     27  C   UNL     1       0.653  13.809  19.597  0.00  0.00    +0.000 C 
ATOM     28  O   UNL     1       0.487  14.200  20.743  0.00  0.00    +0.000 OA
BRANCH  27  29
ATOM     29  O   UNL     1       0.382  14.526  18.476  0.00  0.00    +0.000 OA
BRANCH  29  31
ATOM     30  C   UNL     1      -0.551  16.709  18.374  0.00  0.00    +0.000 C 
ATOM     31  C   UNL     1       0.730  15.915  18.562  0.00  0.00    +0.000 C 
ENDBRANCH  29  31
ENDBRANCH  27  29
ENDBRANCH   1  27
TORSDOF 5
ENDMDL
MODEL 4
REMARK VINA RESULT:      -7.1      7.578      9.363
REMARK  Name = 
REMARK  6 active torsions:
REMARK  status: ('A' for Active; 'I' for Inactive)
REMARK    1  A    between atoms: C_1  and  C_2
REMARK    2  A    between atoms: C_2  and  O_3
REMARK    3  A    between atoms: O_3  and  C_4
REMARK    4  A    between atoms: C_4  and  C_6
REMARK    5  A    between atoms: C_7  and  N_8
REMARK    6  A    between atoms: C_21  and  C_22
REMARK                            x       y       z     vdW  Elec       q    Type
REMARK                         _______ _______ _______ _____ _____    ______ ____
ROOT
ATOM      1  C   UNL     1       1.215  12.927  19.434  0.00  0.00    +0.000 C 
ATOM      2  C   UNL     1       1.867  12.314  18.423  0.00  0.00    +0.000 C 
ATOM      3  O   UNL     1       1.879  10.916  18.327  0.00  0.00    +0.000 OA
ATOM      4  C   UNL     1       1.502  10.157  19.429  0.00  0.00    +0.000 A 
ATOM      5  C   UNL     1       0.871  10.697  20.481  0.00  0.00    +0.000 A 
ATOM      6  C   UNL     1       0.578   9.892  21.690  0.00  0.00    +0.000 A 
ATOM      7  O   UNL     1       0.079  10.386  22.697  0.00  0.00    +0.000 OA
ATOM      8  N   UNL     1       0.911   8.571  21.641  0.00  0.00    +0.000 N 
ATOM      9  C   UNL     1       1.478   7.949  20.525  0.00  0.00    +0.000 A 
ATOM     10  C   UNL     1       1.714   6.577  20.558  0.00  0.00    +0.000 A 
ATOM     11  C   UNL     1       2.231   5.941  19.431  0.00  0.00    +0.000 A 
ATOM     12  C   UNL     1       2.510   6.680  18.281  0.00  0.00    +0.000 A 
ATOM     13  C   UNL     1       2.292   8.062  18.258  0.00  0.00    +0.000 A 
ATOM     14  C   UNL     1       1.778   8.715  19.383  0.00  0.00    +0.000 A 
ATOM     15  C   UNL     1       0.447  12.137  20.474  0.00  0.00    +0.000 C 
ATOM     16  H   UNL     1       0.698   8.034  22.472  0.00  0.00    +0.000 HD
ENDROOT
BRANCH  15  17
ATOM     17  C   UNL     1      -1.067  12.240  20.226  0.00  0.00    +0.000 A 
ATOM     18  C   UNL     1      -1.895  12.833  21.192  0.00  0.00    +0.000 A 
ATOM     19  C   UNL     1      -3.280  12.869  21.012  0.00  0.00    +0.000 A 
ATOM     20  C   UNL     1      -3.850  12.317  19.867  0.00  0.00    +0.000 A 
ATOM     21 CL   UNL     1      -5.559  12.321  19.670  0.00  0.00    +0.000 Cl
ATOM     22  C   UNL     1      -3.045  11.753  18.883  0.00  0.00    +0.000 A 
ATOM     23  C   UNL     1      -1.660  11.719  19.060  0.00  0.00    +0.000 A 
ENDBRANCH  15  17
BRANCH   2  24
ATOM     24  N   UNL     1       2.547  12.934  17.403  0.00  0.00    +0.000 N 
ATOM     25  H   UNL     1       2.436  12.458  16.506  0.00  0.00    +0.000 HD
ATOM     26  H   UNL     1       3.522  13.097  17.640  0.00  0.00    +0.000 HD
ENDBRANCH   2  24
BRANCH   1  27
ATOM     27  C   UNL     1       1.141  14.391  19.653  0.00  0.00    +0.000 C 
ATOM     28  O   UNL     1       1.482  14.928  20.698  0.00  0.00    +0.000 OA
BRANCH  27  29
ATOM     29  O   UNL     1       0.488  15.004  18.633  0.00  0.00    +0.000 OA
BRANCH  29  31
ATOM     30  C   UNL     1      -0.423  17.134  18.105  0.00  0.00    +0.000 C 
ATOM     31  C   UNL     1      -0.509  15.948  19.049  0.00  0.00    +0.000 C 
ENDBRANCH  29  31
ENDBRANCH  27  29
ENDBRANCH   1  27
TORSDOF 5
ENDMDL
MODEL 5
REMARK VINA RESULT:      -7.1      8.179     10.826
REMARK  Name = 
REMARK  6 active torsions:
REMARK  status: ('A' for Active; 'I' for Inactive)
REMARK    1  A    between atoms: C_1  and  C_2
REMARK    2  A    between atoms: C_2  and  O_3
REMARK    3  A    between atoms: O_3  and  C_4
REMARK    4  A    between atoms: C_4  and  C_6
REMARK    5  A    between atoms: C_7  and  N_8
REMARK    6  A    between atoms: C_21  and  C_22
REMARK                            x       y       z     vdW  Elec       q    Type
REMARK                         _______ _______ _______ _____ _____    ______ ____
ROOT
ATOM      1  C   UNL     1      -0.316  12.366  21.760  0.00  0.00    +0.000 C 
ATOM      2  C   UNL     1      -0.238  13.685  22.038  0.00  0.00    +0.000 C 
ATOM      3  O   UNL     1       0.301  14.580  21.102  0.00  0.00    +0.000 OA
ATOM      4  C   UNL     1       1.041  14.082  20.037  0.00  0.00    +0.000 A 
ATOM      5  C   UNL     1       1.034  12.781  19.712  0.00  0.00    +0.000 A 
ATOM      6  C   UNL     1       1.916  12.257  18.643  0.00  0.00    +0.000 A 
ATOM      7  O   UNL     1       1.989  11.059  18.388  0.00  0.00    +0.000 OA
ATOM      8  N   UNL     1       2.666  13.172  17.966  0.00  0.00    +0.000 N 
ATOM      9  C   UNL     1       2.626  14.548  18.208  0.00  0.00    +0.000 A 
ATOM     10  C   UNL     1       3.383  15.401  17.407  0.00  0.00    +0.000 A 
ATOM     11  C   UNL     1       3.309  16.778  17.608  0.00  0.00    +0.000 A 
ATOM     12  C   UNL     1       2.482  17.292  18.607  0.00  0.00    +0.000 A 
ATOM     13  C   UNL     1       1.739  16.432  19.423  0.00  0.00    +0.000 A 
ATOM     14  C   UNL     1       1.807  15.047  19.236  0.00  0.00    +0.000 A 
ATOM     15  C   UNL     1       0.139  11.811  20.426  0.00  0.00    +0.000 C 
ATOM     16  H   UNL     1       3.258  12.799  17.235  0.00  0.00    +0.000 HD
ENDROOT
BRANCH  15  17
ATOM     17  C   UNL     1      -1.070  11.461  19.543  0.00  0.00    +0.000 A 
ATOM     18  C   UNL     1      -1.043  10.308  18.744  0.00  0.00    +0.000 A 
ATOM     19  C   UNL     1      -2.104  10.016  17.883  0.00  0.00    +0.000 A 
ATOM     20  C   UNL     1      -3.203  10.870  17.815  0.00  0.00    +0.000 A 
ATOM     21 CL   UNL     1      -4.486  10.534  16.720  0.00  0.00    +0.000 Cl
ATOM     22  C   UNL     1      -3.264  12.002  18.621  0.00  0.00    +0.000 A 
ATOM     23  C   UNL     1      -2.205  12.294  19.484  0.00  0.00    +0.000 A 
ENDBRANCH  15  17
BRANCH   2  24
ATOM     24  N   UNL     1      -0.667  14.299  23.190  0.00  0.00    +0.000 N 
ATOM     25  H   UNL     1      -1.684  14.289  23.288  0.00  0.00    +0.000 HD
ATOM     26  H   UNL     1      -0.273  15.230  23.294  0.00  0.00    +0.000 HD
ENDBRANCH   2  24
BRANCH   1  27
ATOM     27  C   UNL     1      -0.849  11.322  22.667  0.00  0.00    +0.000 C 
ATOM     28  O   UNL     1      -1.947  11.396  23.198  0.00  0.00    +0.000 OA
BRANCH  27  29
ATOM     29  O   UNL     1       0.104  10.398  22.959  0.00  0.00    +0.000 OA
BRANCH  29  31
ATOM     30  C   UNL     1       0.955   8.557  21.723  0.00  0.00    +0.000 C 
ATOM     31  C   UNL     1      -0.218   9.064  22.543  0.00  0.00    +0.000 C 
ENDBRANCH  29  31
ENDBRANCH  27  29
ENDBRANCH   1  27
TORSDOF 5
ENDMDL
MODEL 6
REMARK VINA RESULT:      -7.0      7.189      9.011
REMARK  Name = 
REMARK  6 active torsions:
REMARK  status: ('A' for Active; 'I' for Inactive)
REMARK    1  A    between atoms: C_1  and  C_2
REMARK    2  A    between atoms: C_2  and  O_3
REMARK    3  A    between atoms: O_3  and  C_4
REMARK    4  A    between atoms: C_4  and  C_6
REMARK    5  A    between atoms: C_7  and  N_8
REMARK    6  A    between atoms: C_21  and  C_22
REMARK                            x       y       z     vdW  Elec       q    Type
REMARK                         _______ _______ _______ _____ _____    ______ ____
ROOT
ATOM      1  C   UNL     1       0.866  12.620  19.156  0.00  0.00    +0.000 C 
ATOM      2  C   UNL     1       1.780  12.117  18.299  0.00  0.00    +0.000 C 
ATOM      3  O   UNL     1       1.969  10.733  18.189  0.00  0.00    +0.000 OA
ATOM      4  C   UNL     1       1.458   9.899  19.177  0.00  0.00    +0.000 A 
ATOM      5  C   UNL     1       0.564  10.330  20.079  0.00  0.00    +0.000 A 
ATOM      6  C   UNL     1       0.118   9.455  21.188  0.00  0.00    +0.000 A 
ATOM      7  O   UNL     1      -0.633   9.857  22.073  0.00  0.00    +0.000 OA
ATOM      8  N   UNL     1       0.600   8.180  21.194  0.00  0.00    +0.000 N 
ATOM      9  C   UNL     1       1.455   7.663  20.216  0.00  0.00    +0.000 A 
ATOM     10  C   UNL     1       1.831   6.324  20.280  0.00  0.00    +0.000 A 
ATOM     11  C   UNL     1       2.640   5.789  19.281  0.00  0.00    +0.000 A 
ATOM     12  C   UNL     1       3.069   6.594  18.226  0.00  0.00    +0.000 A 
ATOM     13  C   UNL     1       2.706   7.944  18.174  0.00  0.00    +0.000 A 
ATOM     14  C   UNL     1       1.899   8.497  19.173  0.00  0.00    +0.000 A 
ATOM     15  C   UNL     1      -0.007  11.715  20.000  0.00  0.00    +0.000 C 
ATOM     16  H   UNL     1       0.281   7.594  21.954  0.00  0.00    +0.000 HD
ENDROOT
BRANCH  15  17
ATOM     17  C   UNL     1      -1.439  11.664  19.439  0.00  0.00    +0.000 A 
ATOM     18  C   UNL     1      -2.472  12.353  20.093  0.00  0.00    +0.000 A 
ATOM     19  C   UNL     1      -3.789  12.257  19.635  0.00  0.00    +0.000 A 
ATOM     20  C   UNL     1      -4.085  11.475  18.520  0.00  0.00    +0.000 A 
ATOM     21 CL   UNL     1      -5.713  11.321  17.988  0.00  0.00    +0.000 Cl
ATOM     22  C   UNL     1      -3.071  10.810  17.839  0.00  0.00    +0.000 A 
ATOM     23  C   UNL     1      -1.754  10.908  18.293  0.00  0.00    +0.000 A 
ENDBRANCH  15  17
BRANCH   2  24
ATOM     24  N   UNL     1       2.584  12.843  17.453  0.00  0.00    +0.000 N 
ATOM     25  H   UNL     1       2.218  12.888  16.500  0.00  0.00    +0.000 HD
ATOM     26  H   UNL     1       3.551  12.530  17.486  0.00  0.00    +0.000 HD
ENDBRANCH   2  24
BRANCH   1  27
ATOM     27  C   UNL     1       0.584  14.059  19.373  0.00  0.00    +0.000 C 
ATOM     28  O   UNL     1       0.328  14.834  18.463  0.00  0.00    +0.000 OA
BRANCH  27  29
ATOM     29  O   UNL     1       0.828  14.414  20.661  0.00  0.00    +0.000 OA
BRANCH  29  31
ATOM     30  C   UNL     1      -1.041  15.361  21.782  0.00  0.00    +0.000 C 
ATOM     31  C   UNL     1       0.252  15.669  21.049  0.00  0.00    +0.000 C 
ENDBRANCH  29  31
ENDBRANCH  27  29
ENDBRANCH   1  27
TORSDOF 5
ENDMDL
MODEL 7
REMARK VINA RESULT:      -6.8      7.340      9.074
REMARK  Name = 
REMARK  6 active torsions:
REMARK  status: ('A' for Active; 'I' for Inactive)
REMARK    1  A    between atoms: C_1  and  C_2
REMARK    2  A    between atoms: C_2  and  O_3
REMARK    3  A    between atoms: O_3  and  C_4
REMARK    4  A    between atoms: C_4  and  C_6
REMARK    5  A    between atoms: C_7  and  N_8
REMARK    6  A    between atoms: C_21  and  C_22
REMARK                            x       y       z     vdW  Elec       q    Type
REMARK                         _______ _______ _______ _____ _____    ______ ____
ROOT
ATOM      1  C   UNL     1       1.412  12.694  19.514  0.00  0.00    +0.000 C 
ATOM      2  C   UNL     1       1.976  12.102  18.439  0.00  0.00    +0.000 C 
ATOM      3  O   UNL     1       1.951  10.708  18.299  0.00  0.00    +0.000 OA
ATOM      4  C   UNL     1       1.640   9.921  19.402  0.00  0.00    +0.000 A 
ATOM      5  C   UNL     1       1.099  10.439  20.514  0.00  0.00    +0.000 A 
ATOM      6  C   UNL     1       0.878   9.600  21.716  0.00  0.00    +0.000 A 
ATOM      7  O   UNL     1       0.465  10.071  22.771  0.00  0.00    +0.000 OA
ATOM      8  N   UNL     1       1.179   8.276  21.602  0.00  0.00    +0.000 N 
ATOM      9  C   UNL     1       1.651   7.680  20.428  0.00  0.00    +0.000 A 
ATOM     10  C   UNL     1       1.859   6.303  20.401  0.00  0.00    +0.000 A 
ATOM     11  C   UNL     1       2.279   5.695  19.220  0.00  0.00    +0.000 A 
ATOM     12  C   UNL     1       2.489   6.465  18.076  0.00  0.00    +0.000 A 
ATOM     13  C   UNL     1       2.299   7.851  18.112  0.00  0.00    +0.000 A 
ATOM     14  C   UNL     1       1.882   8.476  19.292  0.00  0.00    +0.000 A 
ATOM     15  C   UNL     1       0.706  11.885  20.582  0.00  0.00    +0.000 C 
ATOM     16  H   UNL     1       1.017   7.716  22.429  0.00  0.00    +0.000 HD
ENDROOT
BRANCH  15  17
ATOM     17  C   UNL     1      -0.820  12.024  20.451  0.00  0.00    +0.000 A 
ATOM     18  C   UNL     1      -1.452  11.688  19.243  0.00  0.00    +0.000 A 
ATOM     19  C   UNL     1      -2.827  11.878  19.086  0.00  0.00    +0.000 A 
ATOM     20  C   UNL     1      -3.584  12.401  20.133  0.00  0.00    +0.000 A 
ATOM     21 CL   UNL     1      -5.268  12.677  19.922  0.00  0.00    +0.000 Cl
ATOM     22  C   UNL     1      -2.982  12.710  21.349  0.00  0.00    +0.000 A 
ATOM     23  C   UNL     1      -1.608  12.519  21.508  0.00  0.00    +0.000 A 
ENDBRANCH  15  17
BRANCH   2  24
ATOM     24  N   UNL     1       2.592  12.743  17.391  0.00  0.00    +0.000 N 
ATOM     25  H   UNL     1       2.654  13.753  17.526  0.00  0.00    +0.000 HD
ATOM     26  H   UNL     1       2.178  12.492  16.497  0.00  0.00    +0.000 HD
ENDBRANCH   2  24
BRANCH   1  27
ATOM     27  C   UNL     1       1.385  14.152  19.783  0.00  0.00    +0.000 C 
ATOM     28  O   UNL     1       1.134  14.985  18.924  0.00  0.00    +0.000 OA
BRANCH  27  29
ATOM     29  O   UNL     1       1.846  14.425  21.031  0.00  0.00    +0.000 OA
BRANCH  29  31
ATOM     30  C   UNL     1       1.932  16.443  22.281  0.00  0.00    +0.000 C 
ATOM     31  C   UNL     1       1.026  15.332  21.781  0.00  0.00    +0.000 C 
ENDBRANCH  29  31
ENDBRANCH  27  29
ENDBRANCH   1  27
TORSDOF 5
ENDMDL
MODEL 8
REMARK VINA RESULT:      -6.8      9.762     11.380
REMARK  Name = 
REMARK  6 active torsions:
REMARK  status: ('A' for Active; 'I' for Inactive)
REMARK    1  A    between atoms: C_1  and  C_2
REMARK    2  A    between atoms: C_2  and  O_3
REMARK    3  A    between atoms: O_3  and  C_4
REMARK    4  A    between atoms: C_4  and  C_6
REMARK    5  A    between atoms: C_7  and  N_8
REMARK    6  A    between atoms: C_21  and  C_22
REMARK                            x       y       z     vdW  Elec       q    Type
REMARK                         _______ _______ _______ _____ _____    ______ ____
ROOT
ATOM      1  C   UNL     1      -1.079  13.999  22.036  0.00  0.00    +0.000 C 
ATOM      2  C   UNL     1      -1.716  14.291  23.190  0.00  0.00    +0.000 C 
ATOM      3  O   UNL     1      -2.994  13.777  23.450  0.00  0.00    +0.000 OA
ATOM      4  C   UNL     1      -3.733  13.240  22.403  0.00  0.00    +0.000 A 
ATOM      5  C   UNL     1      -3.178  12.944  21.218  0.00  0.00    +0.000 A 
ATOM      6  C   UNL     1      -4.008  12.476  20.083  0.00  0.00    +0.000 A 
ATOM      7  O   UNL     1      -3.535  12.282  18.967  0.00  0.00    +0.000 OA
ATOM      8  N   UNL     1      -5.335  12.292  20.330  0.00  0.00    +0.000 N 
ATOM      9  C   UNL     1      -5.933  12.494  21.578  0.00  0.00    +0.000 A 
ATOM     10  C   UNL     1      -7.287  12.207  21.738  0.00  0.00    +0.000 A 
ATOM     11  C   UNL     1      -7.878  12.356  22.991  0.00  0.00    +0.000 A 
ATOM     12  C   UNL     1      -7.114  12.792  24.073  0.00  0.00    +0.000 A 
ATOM     13  C   UNL     1      -5.759  13.099  23.906  0.00  0.00    +0.000 A 
ATOM     14  C   UNL     1      -5.153  12.959  22.653  0.00  0.00    +0.000 A 
ATOM     15  C   UNL     1      -1.700  13.084  21.001  0.00  0.00    +0.000 C 
ATOM     16  H   UNL     1      -5.887  11.967  19.547  0.00  0.00    +0.000 HD
ENDROOT
BRANCH  15  17
ATOM     17  C   UNL     1      -1.030  11.700  21.027  0.00  0.00    +0.000 A 
ATOM     18  C   UNL     1      -0.875  11.019  22.244  0.00  0.00    +0.000 A 
ATOM     19  C   UNL     1      -0.204   9.795  22.292  0.00  0.00    +0.000 A 
ATOM     20  C   UNL     1       0.314   9.237  21.126  0.00  0.00    +0.000 A 
ATOM     21 CL   UNL     1       1.180   7.753  21.194  0.00  0.00    +0.000 Cl
ATOM     22  C   UNL     1       0.144   9.880  19.903  0.00  0.00    +0.000 A 
ATOM     23  C   UNL     1      -0.529  11.103  19.854  0.00  0.00    +0.000 A 
ENDBRANCH  15  17
BRANCH   2  24
ATOM     24  N   UNL     1      -1.223  15.064  24.214  0.00  0.00    +0.000 N 
ATOM     25  H   UNL     1      -0.723  15.890  23.881  0.00  0.00    +0.000 HD
ATOM     26  H   UNL     1      -0.678  14.516  24.874  0.00  0.00    +0.000 HD
ENDBRANCH   2  24
BRANCH   1  27
ATOM     27  C   UNL     1       0.262  14.490  21.639  0.00  0.00    +0.000 C 
ATOM     28  O   UNL     1       1.252  14.377  22.348  0.00  0.00    +0.000 OA
BRANCH  27  29
ATOM     29  O   UNL     1       0.194  15.224  20.499  0.00  0.00    +0.000 OA
BRANCH  29  31
ATOM     30  C   UNL     1       1.312  14.076  18.744  0.00  0.00    +0.000 C 
ATOM     31  C   UNL     1       1.402  15.232  19.726  0.00  0.00    +0.000 C 
ENDBRANCH  29  31
ENDBRANCH  27  29
ENDBRANCH   1  27
TORSDOF 5
ENDMDL
MODEL 9
REMARK VINA RESULT:      -6.8      9.243     11.332
REMARK  Name = 
REMARK  6 active torsions:
REMARK  status: ('A' for Active; 'I' for Inactive)
REMARK    1  A    between atoms: C_1  and  C_2
REMARK    2  A    between atoms: C_2  and  O_3
REMARK    3  A    between atoms: O_3  and  C_4
REMARK    4  A    between atoms: C_4  and  C_6
REMARK    5  A    between atoms: C_7  and  N_8
REMARK    6  A    between atoms: C_21  and  C_22
REMARK                            x       y       z     vdW  Elec       q    Type
REMARK                         _______ _______ _______ _____ _____    ______ ____
ROOT
ATOM      1  C   UNL     1      -0.201  14.125  21.780  0.00  0.00    +0.000 C 
ATOM      2  C   UNL     1       0.456  14.172  20.601  0.00  0.00    +0.000 C 
ATOM      3  O   UNL     1       0.693  12.999  19.870  0.00  0.00    +0.000 OA
ATOM      4  C   UNL     1       0.543  11.768  20.497  0.00  0.00    +0.000 A 
ATOM      5  C   UNL     1      -0.078  11.643  21.679  0.00  0.00    +0.000 A 
ATOM      6  C   UNL     1      -0.128  10.337  22.379  0.00  0.00    +0.000 A 
ATOM      7  O   UNL     1      -0.615  10.219  23.500  0.00  0.00    +0.000 OA
ATOM      8  N   UNL     1       0.415   9.272  21.727  0.00  0.00    +0.000 N 
ATOM      9  C   UNL     1       0.982   9.343  20.450  0.00  0.00    +0.000 A 
ATOM     10  C   UNL     1       1.445   8.176  19.846  0.00  0.00    +0.000 A 
ATOM     11  C   UNL     1       1.963   8.231  18.554  0.00  0.00    +0.000 A 
ATOM     12  C   UNL     1       2.016   9.448  17.876  0.00  0.00    +0.000 A 
ATOM     13  C   UNL     1       1.569  10.622  18.493  0.00  0.00    +0.000 A 
ATOM     14  C   UNL     1       1.051  10.584  19.792  0.00  0.00    +0.000 A 
ATOM     15  C   UNL     1      -0.735  12.821  22.336  0.00  0.00    +0.000 C 
ATOM     16  H   UNL     1       0.367   8.387  22.215  0.00  0.00    +0.000 HD
ENDROOT
BRANCH  15  17
ATOM     17  C   UNL     1      -2.261  12.739  22.162  0.00  0.00    +0.000 A 
ATOM     18  C   UNL     1      -2.819  12.733  20.874  0.00  0.00    +0.000 A 
ATOM     19  C   UNL     1      -4.206  12.731  20.702  0.00  0.00    +0.000 A 
ATOM     20  C   UNL     1      -5.046  12.733  21.813  0.00  0.00    +0.000 A 
ATOM     21 CL   UNL     1      -6.752  12.779  21.600  0.00  0.00    +0.000 Cl
ATOM     22  C   UNL     1      -4.513  12.708  23.098  0.00  0.00    +0.000 A 
ATOM     23  C   UNL     1      -3.127  12.706  23.271  0.00  0.00    +0.000 A 
ENDBRANCH  15  17
BRANCH   2  24
ATOM     24  N   UNL     1       0.934  15.303  19.983  0.00  0.00    +0.000 N 
ATOM     25  H   UNL     1       0.190  15.948  19.709  0.00  0.00    +0.000 HD
ATOM     26  H   UNL     1       1.560  15.079  19.214  0.00  0.00    +0.000 HD
ENDBRANCH   2  24
BRANCH   1  27
ATOM     27  C   UNL     1      -0.500  15.288  22.650  0.00  0.00    +0.000 C 
ATOM     28  O   UNL     1      -0.288  15.292  23.854  0.00  0.00    +0.000 OA
BRANCH  27  29
ATOM     29  O   UNL     1      -1.190  16.239  21.971  0.00  0.00    +0.000 OA
BRANCH  29  31
ATOM     30  C   UNL     1      -3.564  16.249  22.084  0.00  0.00    +0.000 C 
ATOM     31  C   UNL     1      -2.290  16.805  22.697  0.00  0.00    +0.000 C 
ENDBRANCH  29  31
ENDBRANCH  27  29
ENDBRANCH   1  27
TORSDOF 5
ENDMDL
