MODEL 1
REMARK VINA RESULT:      -7.7      0.000      0.000
REMARK  Name = 
REMARK  9 active torsions:
REMARK  status: ('A' for Active; 'I' for Inactive)
REMARK    1  A    between atoms: C_1  and  C_2
REMARK    2  A    between atoms: C_2  and  C_4
REMARK    3  A    between atoms: C_8  and  N_9
REMARK    4  A    between atoms: C_10  and  C_12
REMARK    5  A    between atoms: C_12  and  S_13
REMARK    6  A    between atoms: S_13  and  C_14
REMARK    7  A    between atoms: N_19  and  C_20
REMARK    8  A    between atoms: N_23  and  C_24
REMARK    9  A    between atoms: N_26  and  C_27
REMARK                            x       y       z     vdW  Elec       q    Type
REMARK                         _______ _______ _______ _____ _____    ______ ____
ROOT
ATOM      1  S   UNL     1       3.342   2.024  20.755  0.00  0.00    +0.000 S 
ENDROOT
BRANCH   1   2
ATOM      2  C   UNL     1       4.208   3.164  19.778  0.00  0.00    +0.000 A 
ATOM      3  N   UNL     1       5.103   4.019  20.207  0.00  0.00    +0.000 NA
ATOM      4  C   UNL     1       5.582   4.626  19.067  0.00  0.00    +0.000 A 
ATOM      5  C   UNL     1       6.646   5.605  18.996  0.00  0.00    +0.000 A 
ATOM      6  O   UNL     1       7.250   5.967  20.003  0.00  0.00    +0.000 OA
ATOM      7  N   UNL     1       6.931   6.068  17.715  0.00  0.00    +0.000 N 
ATOM      8  C   UNL     1       7.980   7.055  17.547  0.00  0.00    +0.000 C 
ATOM      9  C   UNL     1       6.287   5.669  16.560  0.00  0.00    +0.000 A 
ATOM     10  O   UNL     1       6.549   6.089  15.440  0.00  0.00    +0.000 OA
ATOM     11  N   UNL     1       5.237   4.679  16.686  0.00  0.00    +0.000 N 
ATOM     12  C   UNL     1       4.543   4.278  15.454  0.00  0.00    +0.000 C 
ATOM     13  C   UNL     1       4.929   4.175  17.945  0.00  0.00    +0.000 A 
ATOM     14  N   UNL     1       4.047   3.223  18.406  0.00  0.00    +0.000 N 
ATOM     15  C   UNL     1       3.134   2.383  17.670  0.00  0.00    +0.000 C 
ENDBRANCH   1   2
BRANCH   1  16
ATOM     16  C   UNL     1       2.179   3.069  21.669  0.00  0.00    +0.000 C 
BRANCH  16  18
ATOM     17  N   UNL     1       2.368   5.364  20.901  0.00  0.00    +0.000 N 
ATOM     18  C   UNL     1       1.653   4.180  20.780  0.00  0.00    +0.000 C 
ATOM     19  O   UNL     1       0.709   3.985  20.019  0.00  0.00    +0.000 OA
ATOM     20  H   UNL     1       3.261   5.304  21.392  0.00  0.00    +0.000 HD
BRANCH  17  25
ATOM     21  C   UNL     1       1.170   8.829  20.356  0.00  0.00    +0.000 A 
ATOM     22  C   UNL     1       1.548   9.056  19.029  0.00  0.00    +0.000 A 
ATOM     23  C   UNL     1       2.180   8.048  18.305  0.00  0.00    +0.000 A 
ATOM     24  C   UNL     1       2.450   6.817  18.906  0.00  0.00    +0.000 A 
ATOM     25  C   UNL     1       2.094   6.578  20.235  0.00  0.00    +0.000 A 
ATOM     26  C   UNL     1       1.432   7.582  20.950  0.00  0.00    +0.000 A 
BRANCH  21  28
ATOM     27  C   UNL     1      -0.318   9.487  22.361  0.00  0.00    +0.000 C 
ATOM     28  C   UNL     1       0.523   9.894  21.177  0.00  0.00    +0.000 C 
ATOM     29  O   UNL     1       0.659  11.075  20.864  0.00  0.00    +0.000 OA
ENDBRANCH  21  28
ENDBRANCH  17  25
ENDBRANCH  16  18
ENDBRANCH   1  16
TORSDOF 5
ENDMDL
MODEL 2
REMARK VINA RESULT:      -7.5      1.089      1.100
REMARK  Name = 
REMARK  9 active torsions:
REMARK  status: ('A' for Active; 'I' for Inactive)
REMARK    1  A    between atoms: C_1  and  C_2
REMARK    2  A    between atoms: C_2  and  C_4
REMARK    3  A    between atoms: C_8  and  N_9
REMARK    4  A    between atoms: C_10  and  C_12
REMARK    5  A    between atoms: C_12  and  S_13
REMARK    6  A    between atoms: S_13  and  C_14
REMARK    7  A    between atoms: N_19  and  C_20
REMARK    8  A    between atoms: N_23  and  C_24
REMARK    9  A    between atoms: N_26  and  C_27
REMARK                            x       y       z     vdW  Elec       q    Type
REMARK                         _______ _______ _______ _____ _____    ______ ____
ROOT
ATOM      1  S   UNL     1       3.497   1.973  19.553  0.00  0.00    +0.000 S 
ENDROOT
BRANCH   1   2
ATOM      2  C   UNL     1       4.487   3.335  19.143  0.00  0.00    +0.000 A 
ATOM      3  N   UNL     1       5.425   3.856  19.893  0.00  0.00    +0.000 NA
ATOM      4  C   UNL     1       5.996   4.836  19.111  0.00  0.00    +0.000 A 
ATOM      5  C   UNL     1       7.133   5.661  19.460  0.00  0.00    +0.000 A 
ATOM      6  O   UNL     1       7.720   5.522  20.530  0.00  0.00    +0.000 OA
ATOM      7  N   UNL     1       7.506   6.585  18.488  0.00  0.00    +0.000 N 
ATOM      8  C   UNL     1       8.632   7.459  18.752  0.00  0.00    +0.000 C 
ATOM      9  C   UNL     1       6.882   6.756  17.268  0.00  0.00    +0.000 A 
ATOM     10  O   UNL     1       7.222   7.576  16.425  0.00  0.00    +0.000 OA
ATOM     11  N   UNL     1       5.756   5.897  16.965  0.00  0.00    +0.000 N 
ATOM     12  C   UNL     1       5.086   6.102  15.672  0.00  0.00    +0.000 C 
ATOM     13  C   UNL     1       5.359   4.946  17.899  0.00  0.00    +0.000 A 
ATOM     14  N   UNL     1       4.388   3.969  17.917  0.00  0.00    +0.000 N 
ATOM     15  C   UNL     1       3.447   3.589  16.894  0.00  0.00    +0.000 C 
ENDBRANCH   1   2
BRANCH   1  16
ATOM     16  C   UNL     1       2.304   2.671  20.723  0.00  0.00    +0.000 C 
BRANCH  16  18
ATOM     17  N   UNL     1       2.471   5.070  20.387  0.00  0.00    +0.000 N 
ATOM     18  C   UNL     1       1.694   3.941  20.162  0.00  0.00    +0.000 C 
ATOM     19  O   UNL     1       0.632   3.912  19.545  0.00  0.00    +0.000 OA
ATOM     20  H   UNL     1       3.428   4.903  20.702  0.00  0.00    +0.000 HD
BRANCH  17  25
ATOM     21  C   UNL     1       1.275   8.564  20.700  0.00  0.00    +0.000 A 
ATOM     22  C   UNL     1       1.521   9.065  19.419  0.00  0.00    +0.000 A 
ATOM     23  C   UNL     1       2.063   8.235  18.441  0.00  0.00    +0.000 A 
ATOM     24  C   UNL     1       2.375   6.908  18.741  0.00  0.00    +0.000 A 
ATOM     25  C   UNL     1       2.150   6.394  20.020  0.00  0.00    +0.000 A 
ATOM     26  C   UNL     1       1.577   7.222  20.992  0.00  0.00    +0.000 A 
BRANCH  21  28
ATOM     27  C   UNL     1      -0.460  10.308  21.487  0.00  0.00    +0.000 C 
ATOM     28  C   UNL     1       0.729   9.429  21.787  0.00  0.00    +0.000 C 
ATOM     29  O   UNL     1       1.268   9.436  22.892  0.00  0.00    +0.000 OA
ENDBRANCH  21  28
ENDBRANCH  17  25
ENDBRANCH  16  18
ENDBRANCH   1  16
TORSDOF 5
ENDMDL
MODEL 3
REMARK VINA RESULT:      -7.3      3.068      8.085
REMARK  Name = 
REMARK  9 active torsions:
REMARK  status: ('A' for Active; 'I' for Inactive)
REMARK    1  A    between atoms: C_1  and  C_2
REMARK    2  A    between atoms: C_2  and  C_4
REMARK    3  A    between atoms: C_8  and  N_9
REMARK    4  A    between atoms: C_10  and  C_12
REMARK    5  A    between atoms: C_12  and  S_13
REMARK    6  A    between atoms: S_13  and  C_14
REMARK    7  A    between atoms: N_19  and  C_20
REMARK    8  A    between atoms: N_23  and  C_24
REMARK    9  A    between atoms: N_26  and  C_27
REMARK                            x       y       z     vdW  Elec       q    Type
REMARK                         _______ _______ _______ _____ _____    ______ ____
ROOT
ATOM      1  S   UNL     1       3.740   4.916  17.876  0.00  0.00    +0.000 S 
ENDROOT
BRANCH   1   2
ATOM      2  C   UNL     1       3.044   6.412  18.405  0.00  0.00    +0.000 A 
ATOM      3  N   UNL     1       3.074   7.548  17.752  0.00  0.00    +0.000 NA
ATOM      4  C   UNL     1       2.310   8.408  18.508  0.00  0.00    +0.000 A 
ATOM      5  C   UNL     1       1.973   9.777  18.177  0.00  0.00    +0.000 A 
ATOM      6  O   UNL     1       2.345  10.290  17.125  0.00  0.00    +0.000 OA
ATOM      7  N   UNL     1       1.189  10.432  19.122  0.00  0.00    +0.000 N 
ATOM      8  C   UNL     1       0.806  11.809  18.878  0.00  0.00    +0.000 C 
ATOM      9  C   UNL     1       0.738   9.880  20.306  0.00  0.00    +0.000 A 
ATOM     10  O   UNL     1       0.051  10.473  21.128  0.00  0.00    +0.000 OA
ATOM     11  N   UNL     1       1.095   8.505  20.583  0.00  0.00    +0.000 N 
ATOM     12  C   UNL     1       0.627   7.935  21.855  0.00  0.00    +0.000 C 
ATOM     13  C   UNL     1       1.862   7.804  19.658  0.00  0.00    +0.000 A 
ATOM     14  N   UNL     1       2.330   6.511  19.586  0.00  0.00    +0.000 N 
ATOM     15  C   UNL     1       2.128   5.408  20.493  0.00  0.00    +0.000 C 
ENDBRANCH   1   2
BRANCH   1  16
ATOM     16  C   UNL     1       5.489   5.104  18.305  0.00  0.00    +0.000 C 
BRANCH  16  18
ATOM     17  N   UNL     1       5.743   4.988  15.894  0.00  0.00    +0.000 N 
ATOM     18  C   UNL     1       6.365   4.766  17.115  0.00  0.00    +0.000 C 
ATOM     19  O   UNL     1       7.519   4.372  17.272  0.00  0.00    +0.000 OA
ATOM     20  H   UNL     1       4.879   5.533  15.920  0.00  0.00    +0.000 HD
BRANCH  17  25
ATOM     21  C   UNL     1       6.100   3.538  12.502  0.00  0.00    +0.000 A 
ATOM     22  C   UNL     1       7.249   4.184  12.036  0.00  0.00    +0.000 A 
ATOM     23  C   UNL     1       7.921   5.084  12.858  0.00  0.00    +0.000 A 
ATOM     24  C   UNL     1       7.443   5.356  14.140  0.00  0.00    +0.000 A 
ATOM     25  C   UNL     1       6.288   4.732  14.618  0.00  0.00    +0.000 A 
ATOM     26  C   UNL     1       5.632   3.804  13.800  0.00  0.00    +0.000 A 
BRANCH  21  28
ATOM     27  C   UNL     1       6.006   1.333  11.161  0.00  0.00    +0.000 C 
ATOM     28  C   UNL     1       5.330   2.593  11.640  0.00  0.00    +0.000 C 
ATOM     29  O   UNL     1       4.177   2.866  11.312  0.00  0.00    +0.000 OA
ENDBRANCH  21  28
ENDBRANCH  17  25
ENDBRANCH  16  18
ENDBRANCH   1  16
TORSDOF 5
ENDMDL
MODEL 4
REMARK VINA RESULT:      -7.2      3.263      8.456
REMARK  Name = 
REMARK  9 active torsions:
REMARK  status: ('A' for Active; 'I' for Inactive)
REMARK    1  A    between atoms: C_1  and  C_2
REMARK    2  A    between atoms: C_2  and  C_4
REMARK    3  A    between atoms: C_8  and  N_9
REMARK    4  A    between atoms: C_10  and  C_12
REMARK    5  A    between atoms: C_12  and  S_13
REMARK    6  A    between atoms: S_13  and  C_14
REMARK    7  A    between atoms: N_19  and  C_20
REMARK    8  A    between atoms: N_23  and  C_24
REMARK    9  A    between atoms: N_26  and  C_27
REMARK                            x       y       z     vdW  Elec       q    Type
REMARK                         _______ _______ _______ _____ _____    ______ ____
ROOT
ATOM      1  S   UNL     1       3.346   5.688  18.020  0.00  0.00    +0.000 S 
ENDROOT
BRANCH   1   2
ATOM      2  C   UNL     1       2.677   7.191  18.563  0.00  0.00    +0.000 A 
ATOM      3  N   UNL     1       2.773   8.343  17.945  0.00  0.00    +0.000 NA
ATOM      4  C   UNL     1       2.004   9.207  18.694  0.00  0.00    +0.000 A 
ATOM      5  C   UNL     1       1.727  10.595  18.388  0.00  0.00    +0.000 A 
ATOM      6  O   UNL     1       2.161  11.124  17.369  0.00  0.00    +0.000 OA
ATOM      7  N   UNL     1       0.924  11.249  19.318  0.00  0.00    +0.000 N 
ATOM      8  C   UNL     1       0.597  12.645  19.098  0.00  0.00    +0.000 C 
ATOM      9  C   UNL     1       0.403  10.680  20.464  0.00  0.00    +0.000 A 
ATOM     10  O   UNL     1      -0.299  11.272  21.274  0.00  0.00    +0.000 OA
ATOM     11  N   UNL     1       0.704   9.286  20.716  0.00  0.00    +0.000 N 
ATOM     12  C   UNL     1       0.162   8.696  21.949  0.00  0.00    +0.000 C 
ATOM     13  C   UNL     1       1.487   8.586  19.804  0.00  0.00    +0.000 A 
ATOM     14  N   UNL     1       1.916   7.280  19.714  0.00  0.00    +0.000 N 
ATOM     15  C   UNL     1       1.639   6.160  20.579  0.00  0.00    +0.000 C 
ENDBRANCH   1   2
BRANCH   1  16
ATOM     16  C   UNL     1       5.079   6.105  17.696  0.00  0.00    +0.000 C 
BRANCH  16  18
ATOM     17  N   UNL     1       6.080   5.004  15.779  0.00  0.00    +0.000 N 
ATOM     18  C   UNL     1       5.353   6.107  16.204  0.00  0.00    +0.000 C 
ATOM     19  O   UNL     1       4.919   7.003  15.484  0.00  0.00    +0.000 OA
ATOM     20  H   UNL     1       6.166   4.235  16.445  0.00  0.00    +0.000 HD
BRANCH  17  25
ATOM     21  C   UNL     1       6.186   3.519  12.384  0.00  0.00    +0.000 A 
ATOM     22  C   UNL     1       7.266   4.197  11.810  0.00  0.00    +0.000 A 
ATOM     23  C   UNL     1       7.976   5.132  12.559  0.00  0.00    +0.000 A 
ATOM     24  C   UNL     1       7.604   5.405  13.876  0.00  0.00    +0.000 A 
ATOM     25  C   UNL     1       6.519   4.749  14.462  0.00  0.00    +0.000 A 
ATOM     26  C   UNL     1       5.826   3.787  13.717  0.00  0.00    +0.000 A 
BRANCH  21  28
ATOM     27  C   UNL     1       6.039   1.267  11.129  0.00  0.00    +0.000 C 
ATOM     28  C   UNL     1       5.377   2.536  11.606  0.00  0.00    +0.000 C 
ATOM     29  O   UNL     1       4.203   2.784  11.341  0.00  0.00    +0.000 OA
ENDBRANCH  21  28
ENDBRANCH  17  25
ENDBRANCH  16  18
ENDBRANCH   1  16
TORSDOF 5
ENDMDL
MODEL 5
REMARK VINA RESULT:      -7.1      5.164      9.841
REMARK  Name = 
REMARK  9 active torsions:
REMARK  status: ('A' for Active; 'I' for Inactive)
REMARK    1  A    between atoms: C_1  and  C_2
REMARK    2  A    between atoms: C_2  and  C_4
REMARK    3  A    between atoms: C_8  and  N_9
REMARK    4  A    between atoms: C_10  and  C_12
REMARK    5  A    between atoms: C_12  and  S_13
REMARK    6  A    between atoms: S_13  and  C_14
REMARK    7  A    between atoms: N_19  and  C_20
REMARK    8  A    between atoms: N_23  and  C_24
REMARK    9  A    between atoms: N_26  and  C_27
REMARK                            x       y       z     vdW  Elec       q    Type
REMARK                         _______ _______ _______ _____ _____    ______ ____
ROOT
ATOM      1  S   UNL     1       1.167  11.257  18.825  0.00  0.00    +0.000 S 
ENDROOT
BRANCH   1   2
ATOM      2  C   UNL     1      -0.540  11.557  18.847  0.00  0.00    +0.000 A 
ATOM      3  N   UNL     1      -1.390  11.226  17.907  0.00  0.00    +0.000 NA
ATOM      4  C   UNL     1      -2.624  11.570  18.414  0.00  0.00    +0.000 A 
ATOM      5  C   UNL     1      -3.907  11.340  17.784  0.00  0.00    +0.000 A 
ATOM      6  O   UNL     1      -3.994  10.765  16.702  0.00  0.00    +0.000 OA
ATOM      7  N   UNL     1      -5.005  11.794  18.509  0.00  0.00    +0.000 N 
ATOM      8  C   UNL     1      -6.332  11.611  17.953  0.00  0.00    +0.000 C 
ATOM      9  C   UNL     1      -4.945  12.427  19.736  0.00  0.00    +0.000 A 
ATOM     10  O   UNL     1      -5.922  12.823  20.359  0.00  0.00    +0.000 OA
ATOM     11  N   UNL     1      -3.637  12.622  20.326  0.00  0.00    +0.000 N 
ATOM     12  C   UNL     1      -3.584  13.315  21.621  0.00  0.00    +0.000 C 
ATOM     13  C   UNL     1      -2.512  12.168  19.646  0.00  0.00    +0.000 A 
ATOM     14  N   UNL     1      -1.165  12.151  19.929  0.00  0.00    +0.000 N 
ATOM     15  C   UNL     1      -0.467  12.603  21.107  0.00  0.00    +0.000 C 
ENDBRANCH   1   2
BRANCH   1  16
ATOM     16  C   UNL     1       1.293   9.567  19.465  0.00  0.00    +0.000 C 
BRANCH  16  18
ATOM     17  N   UNL     1       2.266   7.408  18.932  0.00  0.00    +0.000 N 
ATOM     18  C   UNL     1       1.916   8.654  18.427  0.00  0.00    +0.000 C 
ATOM     19  O   UNL     1       2.040   9.016  17.260  0.00  0.00    +0.000 OA
ATOM     20  H   UNL     1       1.890   7.172  19.851  0.00  0.00    +0.000 HD
BRANCH  17  25
ATOM     21  C   UNL     1       4.835   5.621  16.945  0.00  0.00    +0.000 A 
ATOM     22  C   UNL     1       4.270   4.348  16.829  0.00  0.00    +0.000 A 
ATOM     23  C   UNL     1       3.022   4.088  17.389  0.00  0.00    +0.000 A 
ATOM     24  C   UNL     1       2.341   5.091  18.081  0.00  0.00    +0.000 A 
ATOM     25  C   UNL     1       2.896   6.365  18.221  0.00  0.00    +0.000 A 
ATOM     26  C   UNL     1       4.137   6.632  17.629  0.00  0.00    +0.000 A 
BRANCH  21  28
ATOM     27  C   UNL     1       6.801   4.974  15.401  0.00  0.00    +0.000 C 
ATOM     28  C   UNL     1       6.185   5.932  16.390  0.00  0.00    +0.000 C 
ATOM     29  O   UNL     1       6.784   6.938  16.765  0.00  0.00    +0.000 OA
ENDBRANCH  21  28
ENDBRANCH  17  25
ENDBRANCH  16  18
ENDBRANCH   1  16
TORSDOF 5
ENDMDL
MODEL 6
REMARK VINA RESULT:      -7.1      4.116      6.937
REMARK  Name = 
REMARK  9 active torsions:
REMARK  status: ('A' for Active; 'I' for Inactive)
REMARK    1  A    between atoms: C_1  and  C_2
REMARK    2  A    between atoms: C_2  and  C_4
REMARK    3  A    between atoms: C_8  and  N_9
REMARK    4  A    between atoms: C_10  and  C_12
REMARK    5  A    between atoms: C_12  and  S_13
REMARK    6  A    between atoms: S_13  and  C_14
REMARK    7  A    between atoms: N_19  and  C_20
REMARK    8  A    between atoms: N_23  and  C_24
REMARK    9  A    between atoms: N_26  and  C_27
REMARK                            x       y       z     vdW  Elec       q    Type
REMARK                         _______ _______ _______ _____ _____    ______ ____
ROOT
ATOM      1  S   UNL     1       7.368   5.779  17.338  0.00  0.00    +0.000 S 
ENDROOT
BRANCH   1   2
ATOM      2  C   UNL     1       5.953   5.102  18.075  0.00  0.00    +0.000 A 
ATOM      3  N   UNL     1       5.913   4.019  18.811  0.00  0.00    +0.000 NA
ATOM      4  C   UNL     1       4.611   3.943  19.253  0.00  0.00    +0.000 A 
ATOM      5  C   UNL     1       4.068   2.957  20.164  0.00  0.00    +0.000 A 
ATOM      6  O   UNL     1       4.777   2.082  20.655  0.00  0.00    +0.000 OA
ATOM      7  N   UNL     1       2.712   3.102  20.443  0.00  0.00    +0.000 N 
ATOM      8  C   UNL     1       2.080   2.156  21.342  0.00  0.00    +0.000 C 
ATOM      9  C   UNL     1       1.891   4.084  19.924  0.00  0.00    +0.000 A 
ATOM     10  O   UNL     1       0.698   4.195  20.179  0.00  0.00    +0.000 OA
ATOM     11  N   UNL     1       2.488   5.051  19.027  0.00  0.00    +0.000 N 
ATOM     12  C   UNL     1       1.599   6.079  18.464  0.00  0.00    +0.000 C 
ATOM     13  C   UNL     1       3.844   4.957  18.733  0.00  0.00    +0.000 A 
ATOM     14  N   UNL     1       4.714   5.710  17.978  0.00  0.00    +0.000 N 
ATOM     15  C   UNL     1       4.476   6.925  17.238  0.00  0.00    +0.000 C 
ENDBRANCH   1   2
BRANCH   1  16
ATOM     16  C   UNL     1       8.110   6.740  18.681  0.00  0.00    +0.000 C 
BRANCH  16  18
ATOM     17  N   UNL     1       9.034   8.938  19.135  0.00  0.00    +0.000 N 
ATOM     18  C   UNL     1       8.210   8.202  18.293  0.00  0.00    +0.000 C 
ATOM     19  O   UNL     1       7.628   8.633  17.301  0.00  0.00    +0.000 OA
ATOM     20  H   UNL     1       9.628   8.400  19.768  0.00  0.00    +0.000 HD
BRANCH  17  25
ATOM     21  C   UNL     1       9.324  12.481  20.183  0.00  0.00    +0.000 A 
ATOM     22  C   UNL     1       9.821  13.082  19.022  0.00  0.00    +0.000 A 
ATOM     23  C   UNL     1      10.037  12.314  17.881  0.00  0.00    +0.000 A 
ATOM     24  C   UNL     1       9.774  10.943  17.898  0.00  0.00    +0.000 A 
ATOM     25  C   UNL     1       9.291  10.323  19.052  0.00  0.00    +0.000 A 
ATOM     26  C   UNL     1       9.045  11.103  20.188  0.00  0.00    +0.000 A 
BRANCH  21  28
ATOM     27  C   UNL     1       8.546  14.656  21.338  0.00  0.00    +0.000 C 
ATOM     28  C   UNL     1       9.111  13.261  21.437  0.00  0.00    +0.000 C 
ATOM     29  O   UNL     1       9.424  12.773  22.521  0.00  0.00    +0.000 OA
ENDBRANCH  21  28
ENDBRANCH  17  25
ENDBRANCH  16  18
ENDBRANCH   1  16
TORSDOF 5
ENDMDL
MODEL 7
REMARK VINA RESULT:      -7.0      5.063      9.755
REMARK  Name = 
REMARK  9 active torsions:
REMARK  status: ('A' for Active; 'I' for Inactive)
REMARK    1  A    between atoms: C_1  and  C_2
REMARK    2  A    between atoms: C_2  and  C_4
REMARK    3  A    between atoms: C_8  and  N_9
REMARK    4  A    between atoms: C_10  and  C_12
REMARK    5  A    between atoms: C_12  and  S_13
REMARK    6  A    between atoms: S_13  and  C_14
REMARK    7  A    between atoms: N_19  and  C_20
REMARK    8  A    between atoms: N_23  and  C_24
REMARK    9  A    between atoms: N_26  and  C_27
REMARK                            x       y       z     vdW  Elec       q    Type
REMARK                         _______ _______ _______ _____ _____    ______ ____
ROOT
ATOM      1  S   UNL     1       1.261  10.836  19.255  0.00  0.00    +0.000 S 
ENDROOT
BRANCH   1   2
ATOM      2  C   UNL     1      -0.406  11.284  19.102  0.00  0.00    +0.000 A 
ATOM      3  N   UNL     1      -1.183  11.020  18.081  0.00  0.00    +0.000 NA
ATOM      4  C   UNL     1      -2.427  11.475  18.459  0.00  0.00    +0.000 A 
ATOM      5  C   UNL     1      -3.654  11.352  17.700  0.00  0.00    +0.000 A 
ATOM      6  O   UNL     1      -3.681  10.777  16.616  0.00  0.00    +0.000 OA
ATOM      7  N   UNL     1      -4.776  11.907  18.309  0.00  0.00    +0.000 N 
ATOM      8  C   UNL     1      -6.050  11.835  17.621  0.00  0.00    +0.000 C 
ATOM      9  C   UNL     1      -4.786  12.543  19.536  0.00  0.00    +0.000 A 
ATOM     10  O   UNL     1      -5.783  13.029  20.056  0.00  0.00    +0.000 OA
ATOM     11  N   UNL     1      -3.533  12.629  20.256  0.00  0.00    +0.000 N 
ATOM     12  C   UNL     1      -3.552  13.327  21.550  0.00  0.00    +0.000 C 
ATOM     13  C   UNL     1      -2.389  12.072  19.695  0.00  0.00    +0.000 A 
ATOM     14  N   UNL     1      -1.084  11.941  20.114  0.00  0.00    +0.000 N 
ATOM     15  C   UNL     1      -0.473  12.340  21.357  0.00  0.00    +0.000 C 
ENDBRANCH   1   2
BRANCH   1  16
ATOM     16  C   UNL     1       1.479   9.617  17.933  0.00  0.00    +0.000 C 
BRANCH  16  18
ATOM     17  N   UNL     1       2.833   7.638  17.556  0.00  0.00    +0.000 N 
ATOM     18  C   UNL     1       2.076   8.338  18.486  0.00  0.00    +0.000 C 
ATOM     19  O   UNL     1       1.906   8.018  19.660  0.00  0.00    +0.000 OA
ATOM     20  H   UNL     1       3.075   8.141  16.701  0.00  0.00    +0.000 HD
BRANCH  17  25
ATOM     21  C   UNL     1       5.579   5.177  17.928  0.00  0.00    +0.000 A 
ATOM     22  C   UNL     1       4.874   4.004  18.214  0.00  0.00    +0.000 A 
ATOM     23  C   UNL     1       3.483   4.025  18.260  0.00  0.00    +0.000 A 
ATOM     24  C   UNL     1       2.790   5.216  18.035  0.00  0.00    +0.000 A 
ATOM     25  C   UNL     1       3.478   6.400  17.763  0.00  0.00    +0.000 A 
ATOM     26  C   UNL     1       4.875   6.370  17.688  0.00  0.00    +0.000 A 
BRANCH  21  28
ATOM     27  C   UNL     1       7.802   5.864  19.048  0.00  0.00    +0.000 C 
ATOM     28  C   UNL     1       7.071   5.207  17.905  0.00  0.00    +0.000 C 
ATOM     29  O   UNL     1       7.677   4.726  16.949  0.00  0.00    +0.000 OA
ENDBRANCH  21  28
ENDBRANCH  17  25
ENDBRANCH  16  18
ENDBRANCH   1  16
TORSDOF 5
ENDMDL
MODEL 8
REMARK VINA RESULT:      -7.0      4.734      9.347
REMARK  Name = 
REMARK  9 active torsions:
REMARK  status: ('A' for Active; 'I' for Inactive)
REMARK    1  A    between atoms: C_1  and  C_2
REMARK    2  A    between atoms: C_2  and  C_4
REMARK    3  A    between atoms: C_8  and  N_9
REMARK    4  A    between atoms: C_10  and  C_12
REMARK    5  A    between atoms: C_12  and  S_13
REMARK    6  A    between atoms: S_13  and  C_14
REMARK    7  A    between atoms: N_19  and  C_20
REMARK    8  A    between atoms: N_23  and  C_24
REMARK    9  A    between atoms: N_26  and  C_27
REMARK                            x       y       z     vdW  Elec       q    Type
REMARK                         _______ _______ _______ _____ _____    ______ ____
ROOT
ATOM      1  S   UNL     1       1.323   9.737  18.742  0.00  0.00    +0.000 S 
ENDROOT
BRANCH   1   2
ATOM      2  C   UNL     1      -0.253  10.458  18.715  0.00  0.00    +0.000 A 
ATOM      3  N   UNL     1      -1.188  10.228  17.827  0.00  0.00    +0.000 NA
ATOM      4  C   UNL     1      -2.281  10.936  18.276  0.00  0.00    +0.000 A 
ATOM      5  C   UNL     1      -3.599  10.953  17.678  0.00  0.00    +0.000 A 
ATOM      6  O   UNL     1      -3.860  10.279  16.685  0.00  0.00    +0.000 OA
ATOM      7  N   UNL     1      -4.526  11.763  18.328  0.00  0.00    +0.000 N 
ATOM      8  C   UNL     1      -5.873  11.846  17.798  0.00  0.00    +0.000 C 
ATOM      9  C   UNL     1      -4.273  12.519  19.456  0.00  0.00    +0.000 A 
ATOM     10  O   UNL     1      -5.101  13.228  20.015  0.00  0.00    +0.000 OA
ATOM     11  N   UNL     1      -2.940  12.457  20.019  0.00  0.00    +0.000 N 
ATOM     12  C   UNL     1      -2.676  13.282  21.207  0.00  0.00    +0.000 C 
ATOM     13  C   UNL     1      -1.986  11.647  19.414  0.00  0.00    +0.000 A 
ATOM     14  N   UNL     1      -0.677  11.330  19.702  0.00  0.00    +0.000 N 
ATOM     15  C   UNL     1       0.147  11.745  20.809  0.00  0.00    +0.000 C 
ENDBRANCH   1   2
BRANCH   1  16
ATOM     16  C   UNL     1       1.194   8.522  20.079  0.00  0.00    +0.000 C 
BRANCH  16  18
ATOM     17  N   UNL     1       2.576   7.314  18.490  0.00  0.00    +0.000 N 
ATOM     18  C   UNL     1       2.056   7.311  19.778  0.00  0.00    +0.000 C 
ATOM     19  O   UNL     1       2.271   6.460  20.637  0.00  0.00    +0.000 OA
ATOM     20  H   UNL     1       2.504   8.194  17.976  0.00  0.00    +0.000 HD
BRANCH  17  25
ATOM     21  C   UNL     1       5.546   5.680  16.993  0.00  0.00    +0.000 A 
ATOM     22  C   UNL     1       5.085   4.375  16.796  0.00  0.00    +0.000 A 
ATOM     23  C   UNL     1       3.777   4.042  17.138  0.00  0.00    +0.000 A 
ATOM     24  C   UNL     1       2.930   5.004  17.691  0.00  0.00    +0.000 A 
ATOM     25  C   UNL     1       3.378   6.308  17.909  0.00  0.00    +0.000 A 
ATOM     26  C   UNL     1       4.683   6.648  17.535  0.00  0.00    +0.000 A 
BRANCH  21  28
ATOM     27  C   UNL     1       7.659   7.045  17.579  0.00  0.00    +0.000 C 
ATOM     28  C   UNL     1       6.951   6.069  16.672  0.00  0.00    +0.000 C 
ATOM     29  O   UNL     1       7.497   5.616  15.668  0.00  0.00    +0.000 OA
ENDBRANCH  21  28
ENDBRANCH  17  25
ENDBRANCH  16  18
ENDBRANCH   1  16
TORSDOF 5
ENDMDL
MODEL 9
REMARK VINA RESULT:      -6.9      4.320      7.540
REMARK  Name = 
REMARK  9 active torsions:
REMARK  status: ('A' for Active; 'I' for Inactive)
REMARK    1  A    between atoms: C_1  and  C_2
REMARK    2  A    between atoms: C_2  and  C_4
REMARK    3  A    between atoms: C_8  and  N_9
REMARK    4  A    between atoms: C_10  and  C_12
REMARK    5  A    between atoms: C_12  and  S_13
REMARK    6  A    between atoms: S_13  and  C_14
REMARK    7  A    between atoms: N_19  and  C_20
REMARK    8  A    between atoms: N_23  and  C_24
REMARK    9  A    between atoms: N_26  and  C_27
REMARK                            x       y       z     vdW  Elec       q    Type
REMARK                         _______ _______ _______ _____ _____    ______ ____
ROOT
ATOM      1  S   UNL     1       6.719   6.982  16.749  0.00  0.00    +0.000 S 
ENDROOT
BRANCH   1   2
ATOM      2  C   UNL     1       5.499   6.048  17.551  0.00  0.00    +0.000 A 
ATOM      3  N   UNL     1       4.631   6.503  18.420  0.00  0.00    +0.000 NA
ATOM      4  C   UNL     1       3.813   5.429  18.694  0.00  0.00    +0.000 A 
ATOM      5  C   UNL     1       2.645   5.434  19.549  0.00  0.00    +0.000 A 
ATOM      6  O   UNL     1       2.262   6.461  20.102  0.00  0.00    +0.000 OA
ATOM      7  N   UNL     1       1.997   4.207  19.662  0.00  0.00    +0.000 N 
ATOM      8  C   UNL     1       0.819   4.115  20.502  0.00  0.00    +0.000 C 
ATOM      9  C   UNL     1       2.388   3.038  19.039  0.00  0.00    +0.000 A 
ATOM     10  O   UNL     1       1.807   1.966  19.152  0.00  0.00    +0.000 OA
ATOM     11  N   UNL     1       3.558   3.091  18.187  0.00  0.00    +0.000 N 
ATOM     12  C   UNL     1       3.977   1.836  17.546  0.00  0.00    +0.000 C 
ATOM     13  C   UNL     1       4.226   4.301  18.029  0.00  0.00    +0.000 A 
ATOM     14  N   UNL     1       5.312   4.704  17.283  0.00  0.00    +0.000 N 
ATOM     15  C   UNL     1       6.120   3.953  16.355  0.00  0.00    +0.000 C 
ENDBRANCH   1   2
BRANCH   1  16
ATOM     16  C   UNL     1       7.905   7.329  18.074  0.00  0.00    +0.000 C 
BRANCH  16  18
ATOM     17  N   UNL     1       9.114   9.150  19.129  0.00  0.00    +0.000 N 
ATOM     18  C   UNL     1       8.135   8.823  18.199  0.00  0.00    +0.000 C 
ATOM     19  O   UNL     1       7.516   9.618  17.498  0.00  0.00    +0.000 OA
ATOM     20  H   UNL     1       9.699   8.381  19.458  0.00  0.00    +0.000 HD
BRANCH  17  25
ATOM     21  C   UNL     1      10.527  12.561  18.801  0.00  0.00    +0.000 A 
ATOM     22  C   UNL     1      10.320  13.080  20.083  0.00  0.00    +0.000 A 
ATOM     23  C   UNL     1       9.732  12.288  21.065  0.00  0.00    +0.000 A 
ATOM     24  C   UNL     1       9.335  10.983  20.770  0.00  0.00    +0.000 A 
ATOM     25  C   UNL     1       9.520  10.452  19.492  0.00  0.00    +0.000 A 
ATOM     26  C   UNL     1      10.140  11.240  18.515  0.00  0.00    +0.000 A 
BRANCH  21  28
ATOM     27  C   UNL     1      10.636  14.803  17.524  0.00  0.00    +0.000 C 
ATOM     28  C   UNL     1      11.122  13.387  17.710  0.00  0.00    +0.000 C 
ATOM     29  O   UNL     1      11.969  12.898  16.965  0.00  0.00    +0.000 OA
ENDBRANCH  21  28
ENDBRANCH  17  25
ENDBRANCH  16  18
ENDBRANCH   1  16
TORSDOF 5
ENDMDL
