MODEL 1
REMARK VINA RESULT:      -8.4      0.000      0.000
REMARK  Name = 
REMARK  12 active torsions:
REMARK  status: ('A' for Active; 'I' for Inactive)
REMARK    1  A    between atoms: C_1  and  C_2
REMARK    2  A    between atoms: C_2  and  N_3
REMARK    3  A    between atoms: N_3  and  C_4
REMARK    4  A    between atoms: N_3  and  C_6
REMARK    5  A    between atoms: C_4  and  C_5
REMARK    6  A    between atoms: C_6  and  C_7
REMARK    7  A    between atoms: C_7  and  C_8
REMARK    8  A    between atoms: C_8  and  N_9
REMARK    9  A    between atoms: N_9  and  C_10
REMARK   10  A    between atoms: C_12  and  C_13
REMARK   11  A    between atoms: C_17  and  C_18
REMARK   12  A    between atoms: C_23  and  C_24
REMARK                            x       y       z     vdW  Elec       q    Type
REMARK                         _______ _______ _______ _____ _____    ______ ____
ROOT
ATOM      1  C   UNL     1       1.705   9.300  18.521  0.00  0.00    +0.000 A 
ATOM      2  C   UNL     1       2.349   8.266  17.944  0.00  0.00    +0.000 A 
ATOM      3  C   UNL     1       2.550   7.006  18.636  0.00  0.00    +0.000 A 
ATOM      4  C   UNL     1       2.077   6.855  19.900  0.00  0.00    +0.000 A 
ATOM      5  C   UNL     1       1.388   7.918  20.548  0.00  0.00    +0.000 A 
ATOM      6  N   UNL     1       0.855   7.956  21.748  0.00  0.00    +0.000 NA
ATOM      7  C   UNL     1       0.289   9.192  21.853  0.00  0.00    +0.000 A 
ATOM      8  C   UNL     1      -0.427   9.720  22.940  0.00  0.00    +0.000 A 
ATOM      9  C   UNL     1      -0.941  11.014  22.849  0.00  0.00    +0.000 A 
ATOM     10  C   UNL     1      -0.750  11.764  21.689  0.00  0.00    +0.000 A 
ATOM     11  C   UNL     1      -0.044  11.250  20.593  0.00  0.00    +0.000 A 
ATOM     12  C   UNL     1       0.483   9.952  20.696  0.00  0.00    +0.000 A 
ATOM     13  N   UNL     1       1.215   9.121  19.846  0.00  0.00    +0.000 N 
ENDROOT
BRANCH   3  14
ATOM     14  C   UNL     1       3.284   5.922  17.944  0.00  0.00    +0.000 A 
ATOM     15  C   UNL     1       2.638   4.722  17.622  0.00  0.00    +0.000 A 
ATOM     16  C   UNL     1       3.352   3.670  17.046  0.00  0.00    +0.000 A 
ATOM     17  C   UNL     1       4.720   3.795  16.806  0.00  0.00    +0.000 A 
ATOM     18  C   UNL     1       5.390   4.990  17.133  0.00  0.00    +0.000 A 
ATOM     19  C   UNL     1       4.664   6.047  17.699  0.00  0.00    +0.000 A 
BRANCH  18  20
ATOM     20  C   UNL     1       6.876   5.115  16.910  0.00  0.00    +0.000 C 
ATOM     21  F   UNL     1       7.342   6.394  16.990  0.00  0.00    +0.000 F 
ATOM     22  F   UNL     1       7.605   4.397  17.812  0.00  0.00    +0.000 F 
ATOM     23  F   UNL     1       7.255   4.660  15.682  0.00  0.00    +0.000 F 
ENDBRANCH  18  20
ENDBRANCH   3  14
BRANCH   1  24
ATOM     24  N   UNL     1       1.572  10.488  17.815  0.00  0.00    +0.000 N 
ATOM     25  H   UNL     1       1.223  10.380  16.869  0.00  0.00    +0.000 HD
BRANCH  24  26
ATOM     26  C   UNL     1       2.537  11.584  17.962  0.00  0.00    +0.000 C 
BRANCH  26  27
ATOM     27  C   UNL     1       1.787  12.886  18.211  0.00  0.00    +0.000 C 
BRANCH  27  28
ATOM     28  C   UNL     1       2.726  14.045  18.586  0.00  0.00    +0.000 C 
BRANCH  28  29
ATOM     29  N   UNL     1       2.059  15.183  19.251  0.00  0.00    +0.000 NA
BRANCH  29  31
ATOM     30  C   UNL     1       3.294  16.334  17.352  0.00  0.00    +0.000 C 
ATOM     31  C   UNL     1       2.383  16.447  18.565  0.00  0.00    +0.000 C 
ENDBRANCH  29  31
BRANCH  29  32
ATOM     32  C   UNL     1       0.609  14.950  19.403  0.00  0.00    +0.000 C 
ATOM     33  C   UNL     1      -0.314  15.974  18.746  0.00  0.00    +0.000 C 
ENDBRANCH  29  32
ENDBRANCH  28  29
ENDBRANCH  27  28
ENDBRANCH  26  27
ENDBRANCH  24  26
ENDBRANCH   1  24
BRANCH   4  34
ATOM     34  C   UNL     1       2.301   5.533  20.616  0.00  0.00    +0.000 C 
ATOM     35  N   UNL     1       2.487   4.437  21.210  0.00  0.00    +0.000 NA
ENDBRANCH   4  34
TORSDOF 10
ENDMDL
MODEL 2
REMARK VINA RESULT:      -8.3      0.864      1.296
REMARK  Name = 
REMARK  12 active torsions:
REMARK  status: ('A' for Active; 'I' for Inactive)
REMARK    1  A    between atoms: C_1  and  C_2
REMARK    2  A    between atoms: C_2  and  N_3
REMARK    3  A    between atoms: N_3  and  C_4
REMARK    4  A    between atoms: N_3  and  C_6
REMARK    5  A    between atoms: C_4  and  C_5
REMARK    6  A    between atoms: C_6  and  C_7
REMARK    7  A    between atoms: C_7  and  C_8
REMARK    8  A    between atoms: C_8  and  N_9
REMARK    9  A    between atoms: N_9  and  C_10
REMARK   10  A    between atoms: C_12  and  C_13
REMARK   11  A    between atoms: C_17  and  C_18
REMARK   12  A    between atoms: C_23  and  C_24
REMARK                            x       y       z     vdW  Elec       q    Type
REMARK                         _______ _______ _______ _____ _____    ______ ____
ROOT
ATOM      1  C   UNL     1       1.696   9.408  18.536  0.00  0.00    +0.000 A 
ATOM      2  C   UNL     1       2.354   8.386  17.952  0.00  0.00    +0.000 A 
ATOM      3  C   UNL     1       2.559   7.119  18.629  0.00  0.00    +0.000 A 
ATOM      4  C   UNL     1       2.074   6.947  19.886  0.00  0.00    +0.000 A 
ATOM      5  C   UNL     1       1.371   7.996  20.541  0.00  0.00    +0.000 A 
ATOM      6  N   UNL     1       0.826   8.014  21.736  0.00  0.00    +0.000 NA
ATOM      7  C   UNL     1       0.249   9.244  21.852  0.00  0.00    +0.000 A 
ATOM      8  C   UNL     1      -0.482   9.751  22.939  0.00  0.00    +0.000 A 
ATOM      9  C   UNL     1      -1.006  11.042  22.860  0.00  0.00    +0.000 A 
ATOM     10  C   UNL     1      -0.809  11.810  21.712  0.00  0.00    +0.000 A 
ATOM     11  C   UNL     1      -0.089  11.315  20.616  0.00  0.00    +0.000 A 
ATOM     12  C   UNL     1       0.448  10.021  20.707  0.00  0.00    +0.000 A 
ATOM     13  N   UNL     1       1.195   9.207  19.854  0.00  0.00    +0.000 N 
ENDROOT
BRANCH   3  14
ATOM     14  C   UNL     1       3.309   6.050  17.930  0.00  0.00    +0.000 A 
ATOM     15  C   UNL     1       2.698   4.820  17.654  0.00  0.00    +0.000 A 
ATOM     16  C   UNL     1       3.430   3.786  17.071  0.00  0.00    +0.000 A 
ATOM     17  C   UNL     1       4.783   3.957  16.779  0.00  0.00    +0.000 A 
ATOM     18  C   UNL     1       5.418   5.183  17.059  0.00  0.00    +0.000 A 
ATOM     19  C   UNL     1       4.673   6.223  17.633  0.00  0.00    +0.000 A 
BRANCH  18  20
ATOM     20  C   UNL     1       6.890   5.360  16.779  0.00  0.00    +0.000 C 
ATOM     21  F   UNL     1       7.425   6.487  17.327  0.00  0.00    +0.000 F 
ATOM     22  F   UNL     1       7.642   4.324  17.251  0.00  0.00    +0.000 F 
ATOM     23  F   UNL     1       7.157   5.433  15.444  0.00  0.00    +0.000 F 
ENDBRANCH  18  20
ENDBRANCH   3  14
BRANCH   1  24
ATOM     24  N   UNL     1       1.561  10.603  17.844  0.00  0.00    +0.000 N 
ATOM     25  H   UNL     1       1.101  10.521  16.945  0.00  0.00    +0.000 HD
BRANCH  24  26
ATOM     26  C   UNL     1       2.605  11.634  17.876  0.00  0.00    +0.000 C 
BRANCH  26  27
ATOM     27  C   UNL     1       1.971  12.986  18.181  0.00  0.00    +0.000 C 
BRANCH  27  28
ATOM     28  C   UNL     1       2.793  13.809  19.187  0.00  0.00    +0.000 C 
BRANCH  28  29
ATOM     29  N   UNL     1       3.971  14.484  18.607  0.00  0.00    +0.000 NA
BRANCH  29  31
ATOM     30  C   UNL     1       2.885  16.684  17.943  0.00  0.00    +0.000 C 
ATOM     31  C   UNL     1       3.566  15.391  17.517  0.00  0.00    +0.000 C 
ENDBRANCH  29  31
BRANCH  29  32
ATOM     32  C   UNL     1       4.788  15.141  19.646  0.00  0.00    +0.000 C 
ATOM     33  C   UNL     1       4.384  14.874  21.095  0.00  0.00    +0.000 C 
ENDBRANCH  29  32
ENDBRANCH  28  29
ENDBRANCH  27  28
ENDBRANCH  26  27
ENDBRANCH  24  26
ENDBRANCH   1  24
BRANCH   4  34
ATOM     34  C   UNL     1       2.303   5.618  20.587  0.00  0.00    +0.000 C 
ATOM     35  N   UNL     1       2.491   4.515  21.168  0.00  0.00    +0.000 NA
ENDBRANCH   4  34
TORSDOF 10
ENDMDL
MODEL 3
REMARK VINA RESULT:      -8.3      0.675      1.296
REMARK  Name = 
REMARK  12 active torsions:
REMARK  status: ('A' for Active; 'I' for Inactive)
REMARK    1  A    between atoms: C_1  and  C_2
REMARK    2  A    between atoms: C_2  and  N_3
REMARK    3  A    between atoms: N_3  and  C_4
REMARK    4  A    between atoms: N_3  and  C_6
REMARK    5  A    between atoms: C_4  and  C_5
REMARK    6  A    between atoms: C_6  and  C_7
REMARK    7  A    between atoms: C_7  and  C_8
REMARK    8  A    between atoms: C_8  and  N_9
REMARK    9  A    between atoms: N_9  and  C_10
REMARK   10  A    between atoms: C_12  and  C_13
REMARK   11  A    between atoms: C_17  and  C_18
REMARK   12  A    between atoms: C_23  and  C_24
REMARK                            x       y       z     vdW  Elec       q    Type
REMARK                         _______ _______ _______ _____ _____    ______ ____
ROOT
ATOM      1  C   UNL     1       1.713   9.435  18.562  0.00  0.00    +0.000 A 
ATOM      2  C   UNL     1       2.366   8.409  17.980  0.00  0.00    +0.000 A 
ATOM      3  C   UNL     1       2.556   7.138  18.654  0.00  0.00    +0.000 A 
ATOM      4  C   UNL     1       2.062   6.967  19.907  0.00  0.00    +0.000 A 
ATOM      5  C   UNL     1       1.363   8.020  20.561  0.00  0.00    +0.000 A 
ATOM      6  N   UNL     1       0.810   8.039  21.753  0.00  0.00    +0.000 NA
ATOM      7  C   UNL     1       0.243   9.273  21.868  0.00  0.00    +0.000 A 
ATOM      8  C   UNL     1      -0.490   9.784  22.952  0.00  0.00    +0.000 A 
ATOM      9  C   UNL     1      -1.002  11.079  22.873  0.00  0.00    +0.000 A 
ATOM     10  C   UNL     1      -0.792  11.848  21.729  0.00  0.00    +0.000 A 
ATOM     11  C   UNL     1      -0.069  11.351  20.636  0.00  0.00    +0.000 A 
ATOM     12  C   UNL     1       0.456  10.052  20.727  0.00  0.00    +0.000 A 
ATOM     13  N   UNL     1       1.202   9.234  19.876  0.00  0.00    +0.000 N 
ENDROOT
BRANCH   3  14
ATOM     14  C   UNL     1       3.301   6.065  17.957  0.00  0.00    +0.000 A 
ATOM     15  C   UNL     1       2.676   4.848  17.656  0.00  0.00    +0.000 A 
ATOM     16  C   UNL     1       3.402   3.808  17.075  0.00  0.00    +0.000 A 
ATOM     17  C   UNL     1       4.763   3.962  16.809  0.00  0.00    +0.000 A 
ATOM     18  C   UNL     1       5.412   5.174  17.113  0.00  0.00    +0.000 A 
ATOM     19  C   UNL     1       4.673   6.219  17.685  0.00  0.00    +0.000 A 
BRANCH  18  20
ATOM     20  C   UNL     1       6.890   5.330  16.861  0.00  0.00    +0.000 C 
ATOM     21  F   UNL     1       7.669   4.496  17.605  0.00  0.00    +0.000 F 
ATOM     22  F   UNL     1       7.229   5.094  15.561  0.00  0.00    +0.000 F 
ATOM     23  F   UNL     1       7.332   6.591  17.135  0.00  0.00    +0.000 F 
ENDBRANCH  18  20
ENDBRANCH   3  14
BRANCH   1  24
ATOM     24  N   UNL     1       1.592  10.633  17.873  0.00  0.00    +0.000 N 
ATOM     25  H   UNL     1       1.249  10.542  16.924  0.00  0.00    +0.000 HD
BRANCH  24  26
ATOM     26  C   UNL     1       2.563  11.721  18.043  0.00  0.00    +0.000 C 
BRANCH  26  27
ATOM     27  C   UNL     1       1.825  13.054  18.087  0.00  0.00    +0.000 C 
BRANCH  27  28
ATOM     28  C   UNL     1       2.548  14.099  18.953  0.00  0.00    +0.000 C 
BRANCH  28  29
ATOM     29  N   UNL     1       1.654  14.916  19.799  0.00  0.00    +0.000 NA
BRANCH  29  31
ATOM     30  C   UNL     1      -0.262  16.132  18.653  0.00  0.00    +0.000 C 
ATOM     31  C   UNL     1       0.269  14.859  19.296  0.00  0.00    +0.000 C 
ENDBRANCH  29  31
BRANCH  29  32
ATOM     32  C   UNL     1       1.778  14.558  21.225  0.00  0.00    +0.000 C 
ATOM     33  C   UNL     1       0.791  15.225  22.180  0.00  0.00    +0.000 C 
ENDBRANCH  29  32
ENDBRANCH  28  29
ENDBRANCH  27  28
ENDBRANCH  26  27
ENDBRANCH  24  26
ENDBRANCH   1  24
BRANCH   4  34
ATOM     34  C   UNL     1       2.275   5.634  20.605  0.00  0.00    +0.000 C 
ATOM     35  N   UNL     1       2.451   4.528  21.184  0.00  0.00    +0.000 NA
ENDBRANCH   4  34
TORSDOF 10
ENDMDL
MODEL 4
REMARK VINA RESULT:      -8.1      0.929      1.566
REMARK  Name = 
REMARK  12 active torsions:
REMARK  status: ('A' for Active; 'I' for Inactive)
REMARK    1  A    between atoms: C_1  and  C_2
REMARK    2  A    between atoms: C_2  and  N_3
REMARK    3  A    between atoms: N_3  and  C_4
REMARK    4  A    between atoms: N_3  and  C_6
REMARK    5  A    between atoms: C_4  and  C_5
REMARK    6  A    between atoms: C_6  and  C_7
REMARK    7  A    between atoms: C_7  and  C_8
REMARK    8  A    between atoms: C_8  and  N_9
REMARK    9  A    between atoms: N_9  and  C_10
REMARK   10  A    between atoms: C_12  and  C_13
REMARK   11  A    between atoms: C_17  and  C_18
REMARK   12  A    between atoms: C_23  and  C_24
REMARK                            x       y       z     vdW  Elec       q    Type
REMARK                         _______ _______ _______ _____ _____    ______ ____
ROOT
ATOM      1  C   UNL     1       1.672   9.401  18.529  0.00  0.00    +0.000 A 
ATOM      2  C   UNL     1       2.344   8.393  17.939  0.00  0.00    +0.000 A 
ATOM      3  C   UNL     1       2.572   7.126  18.611  0.00  0.00    +0.000 A 
ATOM      4  C   UNL     1       2.094   6.942  19.868  0.00  0.00    +0.000 A 
ATOM      5  C   UNL     1       1.375   7.977  20.530  0.00  0.00    +0.000 A 
ATOM      6  N   UNL     1       0.833   7.982  21.726  0.00  0.00    +0.000 NA
ATOM      7  C   UNL     1       0.237   9.201  21.848  0.00  0.00    +0.000 A 
ATOM      8  C   UNL     1      -0.499   9.692  22.939  0.00  0.00    +0.000 A 
ATOM      9  C   UNL     1      -1.044  10.975  22.867  0.00  0.00    +0.000 A 
ATOM     10  C   UNL     1      -0.864  11.750  21.721  0.00  0.00    +0.000 A 
ATOM     11  C   UNL     1      -0.138  11.272  20.621  0.00  0.00    +0.000 A 
ATOM     12  C   UNL     1       0.420   9.986  20.706  0.00  0.00    +0.000 A 
ATOM     13  N   UNL     1       1.178   9.188  19.848  0.00  0.00    +0.000 N 
ENDROOT
BRANCH   3  14
ATOM     14  C   UNL     1       3.337   6.073  17.906  0.00  0.00    +0.000 A 
ATOM     15  C   UNL     1       2.744   4.835  17.624  0.00  0.00    +0.000 A 
ATOM     16  C   UNL     1       3.491   3.815  17.034  0.00  0.00    +0.000 A 
ATOM     17  C   UNL     1       4.841   4.008  16.742  0.00  0.00    +0.000 A 
ATOM     18  C   UNL     1       5.458   5.242  17.028  0.00  0.00    +0.000 A 
ATOM     19  C   UNL     1       4.698   6.267  17.608  0.00  0.00    +0.000 A 
BRANCH  18  20
ATOM     20  C   UNL     1       6.926   5.442  16.748  0.00  0.00    +0.000 C 
ATOM     21  F   UNL     1       7.405   6.654  17.145  0.00  0.00    +0.000 F 
ATOM     22  F   UNL     1       7.710   4.512  17.366  0.00  0.00    +0.000 F 
ATOM     23  F   UNL     1       7.217   5.346  15.419  0.00  0.00    +0.000 F 
ENDBRANCH  18  20
ENDBRANCH   3  14
BRANCH   1  24
ATOM     24  N   UNL     1       1.515  10.597  17.842  0.00  0.00    +0.000 N 
ATOM     25  H   UNL     1       0.978  10.525  16.986  0.00  0.00    +0.000 HD
BRANCH  24  26
ATOM     26  C   UNL     1       2.589  11.595  17.778  0.00  0.00    +0.000 C 
BRANCH  26  27
ATOM     27  C   UNL     1       2.083  12.918  18.341  0.00  0.00    +0.000 C 
BRANCH  27  28
ATOM     28  C   UNL     1       3.204  13.958  18.499  0.00  0.00    +0.000 C 
BRANCH  28  29
ATOM     29  N   UNL     1       3.032  14.874  19.646  0.00  0.00    +0.000 NA
BRANCH  29  31
ATOM     30  C   UNL     1       1.493  14.635  21.654  0.00  0.00    +0.000 C 
ATOM     31  C   UNL     1       1.648  14.817  20.151  0.00  0.00    +0.000 C 
ENDBRANCH  29  31
BRANCH  29  32
ATOM     32  C   UNL     1       4.050  14.636  20.688  0.00  0.00    +0.000 C 
ATOM     33  C   UNL     1       5.426  15.254  20.446  0.00  0.00    +0.000 C 
ENDBRANCH  29  32
ENDBRANCH  28  29
ENDBRANCH  27  28
ENDBRANCH  26  27
ENDBRANCH  24  26
ENDBRANCH   1  24
BRANCH   4  34
ATOM     34  C   UNL     1       2.346   5.614  20.563  0.00  0.00    +0.000 C 
ATOM     35  N   UNL     1       2.555   4.512  21.139  0.00  0.00    +0.000 NA
ENDBRANCH   4  34
TORSDOF 10
ENDMDL
MODEL 5
REMARK VINA RESULT:      -8.1      2.356      3.478
REMARK  Name = 
REMARK  12 active torsions:
REMARK  status: ('A' for Active; 'I' for Inactive)
REMARK    1  A    between atoms: C_1  and  C_2
REMARK    2  A    between atoms: C_2  and  N_3
REMARK    3  A    between atoms: N_3  and  C_4
REMARK    4  A    between atoms: N_3  and  C_6
REMARK    5  A    between atoms: C_4  and  C_5
REMARK    6  A    between atoms: C_6  and  C_7
REMARK    7  A    between atoms: C_7  and  C_8
REMARK    8  A    between atoms: C_8  and  N_9
REMARK    9  A    between atoms: N_9  and  C_10
REMARK   10  A    between atoms: C_12  and  C_13
REMARK   11  A    between atoms: C_17  and  C_18
REMARK   12  A    between atoms: C_23  and  C_24
REMARK                            x       y       z     vdW  Elec       q    Type
REMARK                         _______ _______ _______ _____ _____    ______ ____
ROOT
ATOM      1  C   UNL     1       1.514   9.282  18.734  0.00  0.00    +0.000 A 
ATOM      2  C   UNL     1       2.151   8.263  18.121  0.00  0.00    +0.000 A 
ATOM      3  C   UNL     1       2.389   6.996  18.788  0.00  0.00    +0.000 A 
ATOM      4  C   UNL     1       1.959   6.822  20.064  0.00  0.00    +0.000 A 
ATOM      5  C   UNL     1       1.280   7.867  20.750  0.00  0.00    +0.000 A 
ATOM      6  N   UNL     1       0.787   7.882  21.967  0.00  0.00    +0.000 NA
ATOM      7  C   UNL     1       0.211   9.110  22.108  0.00  0.00    +0.000 A 
ATOM      8  C   UNL     1      -0.475   9.613  23.226  0.00  0.00    +0.000 A 
ATOM      9  C   UNL     1      -1.007  10.902  23.170  0.00  0.00    +0.000 A 
ATOM     10  C   UNL     1      -0.863  11.671  22.016  0.00  0.00    +0.000 A 
ATOM     11  C   UNL     1      -0.188  11.180  20.890  0.00  0.00    +0.000 A 
ATOM     12  C   UNL     1       0.357   9.888  20.957  0.00  0.00    +0.000 A 
ATOM     13  N   UNL     1       1.071   9.078  20.072  0.00  0.00    +0.000 N 
ENDROOT
BRANCH   3  14
ATOM     14  C   UNL     1       3.112   5.931  18.057  0.00  0.00    +0.000 A 
ATOM     15  C   UNL     1       2.457   4.745  17.700  0.00  0.00    +0.000 A 
ATOM     16  C   UNL     1       3.161   3.709  17.085  0.00  0.00    +0.000 A 
ATOM     17  C   UNL     1       4.528   3.834  16.841  0.00  0.00    +0.000 A 
ATOM     18  C   UNL     1       5.208   5.014  17.202  0.00  0.00    +0.000 A 
ATOM     19  C   UNL     1       4.491   6.056  17.807  0.00  0.00    +0.000 A 
BRANCH  18  20
ATOM     20  C   UNL     1       6.693   5.137  16.974  0.00  0.00    +0.000 C 
ATOM     21  F   UNL     1       7.096   4.751  15.731  0.00  0.00    +0.000 F 
ATOM     22  F   UNL     1       7.144   6.415  17.131  0.00  0.00    +0.000 F 
ATOM     23  F   UNL     1       7.416   4.380  17.849  0.00  0.00    +0.000 F 
ENDBRANCH  18  20
ENDBRANCH   3  14
BRANCH   1  24
ATOM     24  N   UNL     1       1.345  10.477  18.049  0.00  0.00    +0.000 N 
ATOM     25  H   UNL     1       2.065  11.169  18.223  0.00  0.00    +0.000 HD
BRANCH  24  26
ATOM     26  C   UNL     1       0.015  11.058  17.830  0.00  0.00    +0.000 C 
BRANCH  26  27
ATOM     27  C   UNL     1      -0.963   9.951  17.454  0.00  0.00    +0.000 C 
BRANCH  27  28
ATOM     28  C   UNL     1      -2.400  10.253  17.912  0.00  0.00    +0.000 C 
BRANCH  28  29
ATOM     29  N   UNL     1      -3.401  10.252  16.826  0.00  0.00    +0.000 NA
BRANCH  29  31
ATOM     30  C   UNL     1      -4.489  11.786  18.536  0.00  0.00    +0.000 C 
ATOM     31  C   UNL     1      -4.583  11.046  17.209  0.00  0.00    +0.000 C 
ENDBRANCH  29  31
BRANCH  29  32
ATOM     32  C   UNL     1      -2.808  10.663  15.539  0.00  0.00    +0.000 C 
ATOM     33  C   UNL     1      -3.470  10.109  14.279  0.00  0.00    +0.000 C 
ENDBRANCH  29  32
ENDBRANCH  28  29
ENDBRANCH  27  28
ENDBRANCH  26  27
ENDBRANCH  24  26
ENDBRANCH   1  24
BRANCH   4  34
ATOM     34  C   UNL     1       2.223   5.493  20.753  0.00  0.00    +0.000 C 
ATOM     35  N   UNL     1       2.441   4.390  21.324  0.00  0.00    +0.000 NA
ENDBRANCH   4  34
TORSDOF 10
ENDMDL
MODEL 6
REMARK VINA RESULT:      -8.1      0.713      1.216
REMARK  Name = 
REMARK  12 active torsions:
REMARK  status: ('A' for Active; 'I' for Inactive)
REMARK    1  A    between atoms: C_1  and  C_2
REMARK    2  A    between atoms: C_2  and  N_3
REMARK    3  A    between atoms: N_3  and  C_4
REMARK    4  A    between atoms: N_3  and  C_6
REMARK    5  A    between atoms: C_4  and  C_5
REMARK    6  A    between atoms: C_6  and  C_7
REMARK    7  A    between atoms: C_7  and  C_8
REMARK    8  A    between atoms: C_8  and  N_9
REMARK    9  A    between atoms: N_9  and  C_10
REMARK   10  A    between atoms: C_12  and  C_13
REMARK   11  A    between atoms: C_17  and  C_18
REMARK   12  A    between atoms: C_23  and  C_24
REMARK                            x       y       z     vdW  Elec       q    Type
REMARK                         _______ _______ _______ _____ _____    ______ ____
ROOT
ATOM      1  C   UNL     1       1.646   9.357  18.609  0.00  0.00    +0.000 A 
ATOM      2  C   UNL     1       2.297   8.325  18.036  0.00  0.00    +0.000 A 
ATOM      3  C   UNL     1       2.493   7.063  18.727  0.00  0.00    +0.000 A 
ATOM      4  C   UNL     1       2.008   6.909  19.985  0.00  0.00    +0.000 A 
ATOM      5  C   UNL     1       1.312   7.969  20.629  0.00  0.00    +0.000 A 
ATOM      6  N   UNL     1       0.767   8.004  21.825  0.00  0.00    +0.000 NA
ATOM      7  C   UNL     1       0.199   9.238  21.927  0.00  0.00    +0.000 A 
ATOM      8  C   UNL     1      -0.528   9.762  23.009  0.00  0.00    +0.000 A 
ATOM      9  C   UNL     1      -1.044  11.055  22.916  0.00  0.00    +0.000 A 
ATOM     10  C   UNL     1      -0.843  11.809  21.760  0.00  0.00    +0.000 A 
ATOM     11  C   UNL     1      -0.126  11.298  20.669  0.00  0.00    +0.000 A 
ATOM     12  C   UNL     1       0.402  10.002  20.774  0.00  0.00    +0.000 A 
ATOM     13  N   UNL     1       1.144   9.174  19.929  0.00  0.00    +0.000 N 
ENDROOT
BRANCH   3  14
ATOM     14  C   UNL     1       3.236   5.982  18.039  0.00  0.00    +0.000 A 
ATOM     15  C   UNL     1       2.583   4.801  17.664  0.00  0.00    +0.000 A 
ATOM     16  C   UNL     1       3.301   3.751  17.092  0.00  0.00    +0.000 A 
ATOM     17  C   UNL     1       4.679   3.857  16.909  0.00  0.00    +0.000 A 
ATOM     18  C   UNL     1       5.356   5.032  17.289  0.00  0.00    +0.000 A 
ATOM     19  C   UNL     1       4.626   6.089  17.851  0.00  0.00    +0.000 A 
BRANCH  18  20
ATOM     20  C   UNL     1       6.852   5.136  17.127  0.00  0.00    +0.000 C 
ATOM     21  F   UNL     1       7.280   6.361  16.713  0.00  0.00    +0.000 F 
ATOM     22  F   UNL     1       7.524   4.879  18.286  0.00  0.00    +0.000 F 
ATOM     23  F   UNL     1       7.337   4.246  16.214  0.00  0.00    +0.000 F 
ENDBRANCH  18  20
ENDBRANCH   3  14
BRANCH   1  24
ATOM     24  N   UNL     1       1.518  10.546  17.905  0.00  0.00    +0.000 N 
ATOM     25  H   UNL     1       1.034  10.461  17.017  0.00  0.00    +0.000 HD
BRANCH  24  26
ATOM     26  C   UNL     1       2.582  11.556  17.898  0.00  0.00    +0.000 C 
BRANCH  26  27
ATOM     27  C   UNL     1       1.977  12.929  18.161  0.00  0.00    +0.000 C 
BRANCH  27  28
ATOM     28  C   UNL     1       2.497  13.563  19.462  0.00  0.00    +0.000 C 
BRANCH  28  29
ATOM     29  N   UNL     1       1.916  14.885  19.773  0.00  0.00    +0.000 NA
BRANCH  29  31
ATOM     30  C   UNL     1       0.873  15.094  22.081  0.00  0.00    +0.000 C 
ATOM     31  C   UNL     1       2.106  15.213  21.198  0.00  0.00    +0.000 C 
ENDBRANCH  29  31
BRANCH  29  32
ATOM     32  C   UNL     1       2.418  15.928  18.857  0.00  0.00    +0.000 C 
ATOM     33  C   UNL     1       1.493  17.120  18.615  0.00  0.00    +0.000 C 
ENDBRANCH  29  32
ENDBRANCH  28  29
ENDBRANCH  27  28
ENDBRANCH  26  27
ENDBRANCH  24  26
ENDBRANCH   1  24
BRANCH   4  34
ATOM     34  C   UNL     1       2.228   5.586  20.700  0.00  0.00    +0.000 C 
ATOM     35  N   UNL     1       2.411   4.488  21.294  0.00  0.00    +0.000 NA
ENDBRANCH   4  34
TORSDOF 10
ENDMDL
MODEL 7
REMARK VINA RESULT:      -8.0      2.412      3.436
REMARK  Name = 
REMARK  12 active torsions:
REMARK  status: ('A' for Active; 'I' for Inactive)
REMARK    1  A    between atoms: C_1  and  C_2
REMARK    2  A    between atoms: C_2  and  N_3
REMARK    3  A    between atoms: N_3  and  C_4
REMARK    4  A    between atoms: N_3  and  C_6
REMARK    5  A    between atoms: C_4  and  C_5
REMARK    6  A    between atoms: C_6  and  C_7
REMARK    7  A    between atoms: C_7  and  C_8
REMARK    8  A    between atoms: C_8  and  N_9
REMARK    9  A    between atoms: N_9  and  C_10
REMARK   10  A    between atoms: C_12  and  C_13
REMARK   11  A    between atoms: C_17  and  C_18
REMARK   12  A    between atoms: C_23  and  C_24
REMARK                            x       y       z     vdW  Elec       q    Type
REMARK                         _______ _______ _______ _____ _____    ______ ____
ROOT
ATOM      1  C   UNL     1       1.547   9.292  18.703  0.00  0.00    +0.000 A 
ATOM      2  C   UNL     1       2.187   8.283  18.077  0.00  0.00    +0.000 A 
ATOM      3  C   UNL     1       2.443   7.013  18.731  0.00  0.00    +0.000 A 
ATOM      4  C   UNL     1       2.027   6.826  20.010  0.00  0.00    +0.000 A 
ATOM      5  C   UNL     1       1.346   7.859  20.710  0.00  0.00    +0.000 A 
ATOM      6  N   UNL     1       0.864   7.861  21.932  0.00  0.00    +0.000 NA
ATOM      7  C   UNL     1       0.279   9.082  22.089  0.00  0.00    +0.000 A 
ATOM      8  C   UNL     1      -0.401   9.571  23.217  0.00  0.00    +0.000 A 
ATOM      9  C   UNL     1      -0.944  10.855  23.177  0.00  0.00    +0.000 A 
ATOM     10  C   UNL     1      -0.818  11.635  22.027  0.00  0.00    +0.000 A 
ATOM     11  C   UNL     1      -0.150  11.159  20.890  0.00  0.00    +0.000 A 
ATOM     12  C   UNL     1       0.407   9.871  20.942  0.00  0.00    +0.000 A 
ATOM     13  N   UNL     1       1.119   9.074  20.044  0.00  0.00    +0.000 N 
ENDROOT
BRANCH   3  14
ATOM     14  C   UNL     1       3.168   5.960  17.984  0.00  0.00    +0.000 A 
ATOM     15  C   UNL     1       2.544   4.741  17.692  0.00  0.00    +0.000 A 
ATOM     16  C   UNL     1       3.255   3.719  17.062  0.00  0.00    +0.000 A 
ATOM     17  C   UNL     1       4.601   3.893  16.739  0.00  0.00    +0.000 A 
ATOM     18  C   UNL     1       5.249   5.107  17.035  0.00  0.00    +0.000 A 
ATOM     19  C   UNL     1       4.525   6.135  17.656  0.00  0.00    +0.000 A 
BRANCH  18  20
ATOM     20  C   UNL     1       6.714   5.284  16.722  0.00  0.00    +0.000 C 
ATOM     21  F   UNL     1       7.535   4.462  17.434  0.00  0.00    +0.000 F 
ATOM     22  F   UNL     1       7.002   5.051  15.409  0.00  0.00    +0.000 F 
ATOM     23  F   UNL     1       7.148   6.552  16.976  0.00  0.00    +0.000 F 
ENDBRANCH  18  20
ENDBRANCH   3  14
BRANCH   1  24
ATOM     24  N   UNL     1       1.361  10.491  18.030  0.00  0.00    +0.000 N 
ATOM     25  H   UNL     1       2.080  11.186  18.197  0.00  0.00    +0.000 HD
BRANCH  24  26
ATOM     26  C   UNL     1       0.024  11.065  17.835  0.00  0.00    +0.000 C 
BRANCH  26  27
ATOM     27  C   UNL     1      -0.975   9.944  17.577  0.00  0.00    +0.000 C 
BRANCH  27  28
ATOM     28  C   UNL     1      -2.430  10.386  17.807  0.00  0.00    +0.000 C 
BRANCH  28  29
ATOM     29  N   UNL     1      -3.119  10.875  16.595  0.00  0.00    +0.000 NA
BRANCH  29  31
ATOM     30  C   UNL     1      -3.091  10.115  14.170  0.00  0.00    +0.000 C 
ATOM     31  C   UNL     1      -3.323   9.775  15.635  0.00  0.00    +0.000 C 
ENDBRANCH  29  31
BRANCH  29  32
ATOM     32  C   UNL     1      -4.359  11.602  16.931  0.00  0.00    +0.000 C 
ATOM     33  C   UNL     1      -5.293  10.922  17.930  0.00  0.00    +0.000 C 
ENDBRANCH  29  32
ENDBRANCH  28  29
ENDBRANCH  27  28
ENDBRANCH  26  27
ENDBRANCH  24  26
ENDBRANCH   1  24
BRANCH   4  34
ATOM     34  C   UNL     1       2.309   5.494  20.686  0.00  0.00    +0.000 C 
ATOM     35  N   UNL     1       2.542   4.389  21.247  0.00  0.00    +0.000 NA
ENDBRANCH   4  34
TORSDOF 10
ENDMDL
MODEL 8
REMARK VINA RESULT:      -7.6      1.845      2.508
REMARK  Name = 
REMARK  12 active torsions:
REMARK  status: ('A' for Active; 'I' for Inactive)
REMARK    1  A    between atoms: C_1  and  C_2
REMARK    2  A    between atoms: C_2  and  N_3
REMARK    3  A    between atoms: N_3  and  C_4
REMARK    4  A    between atoms: N_3  and  C_6
REMARK    5  A    between atoms: C_4  and  C_5
REMARK    6  A    between atoms: C_6  and  C_7
REMARK    7  A    between atoms: C_7  and  C_8
REMARK    8  A    between atoms: C_8  and  N_9
REMARK    9  A    between atoms: N_9  and  C_10
REMARK   10  A    between atoms: C_12  and  C_13
REMARK   11  A    between atoms: C_17  and  C_18
REMARK   12  A    between atoms: C_23  and  C_24
REMARK                            x       y       z     vdW  Elec       q    Type
REMARK                         _______ _______ _______ _____ _____    ______ ____
ROOT
ATOM      1  C   UNL     1       1.642   9.509  18.598  0.00  0.00    +0.000 A 
ATOM      2  C   UNL     1       2.305   8.468  18.054  0.00  0.00    +0.000 A 
ATOM      3  C   UNL     1       2.484   7.216  18.765  0.00  0.00    +0.000 A 
ATOM      4  C   UNL     1       1.970   7.078  20.014  0.00  0.00    +0.000 A 
ATOM      5  C   UNL     1       1.260   8.147  20.628  0.00  0.00    +0.000 A 
ATOM      6  N   UNL     1       0.688   8.198  21.810  0.00  0.00    +0.000 NA
ATOM      7  C   UNL     1       0.119   9.434  21.883  0.00  0.00    +0.000 A 
ATOM      8  C   UNL     1      -0.632   9.973  22.941  0.00  0.00    +0.000 A 
ATOM      9  C   UNL     1      -1.144  11.265  22.819  0.00  0.00    +0.000 A 
ATOM     10  C   UNL     1      -0.915  12.004  21.659  0.00  0.00    +0.000 A 
ATOM     11  C   UNL     1      -0.174  11.478  20.591  0.00  0.00    +0.000 A 
ATOM     12  C   UNL     1       0.350  10.183  20.725  0.00  0.00    +0.000 A 
ATOM     13  N   UNL     1       1.110   9.343  19.909  0.00  0.00    +0.000 N 
ENDROOT
BRANCH   3  14
ATOM     14  C   UNL     1       3.241   6.125  18.108  0.00  0.00    +0.000 A 
ATOM     15  C   UNL     1       4.239   6.420  17.171  0.00  0.00    +0.000 A 
ATOM     16  C   UNL     1       4.893   5.391  16.492  0.00  0.00    +0.000 A 
ATOM     17  C   UNL     1       4.543   4.061  16.723  0.00  0.00    +0.000 A 
ATOM     18  C   UNL     1       3.535   3.745  17.654  0.00  0.00    +0.000 A 
ATOM     19  C   UNL     1       2.891   4.783  18.342  0.00  0.00    +0.000 A 
BRANCH  18  20
ATOM     20  C   UNL     1       3.128   2.310  17.878  0.00  0.00    +0.000 C 
ATOM     21  F   UNL     1       4.104   1.406  17.581  0.00  0.00    +0.000 F 
ATOM     22  F   UNL     1       2.772   2.061  19.171  0.00  0.00    +0.000 F 
ATOM     23  F   UNL     1       2.051   1.953  17.122  0.00  0.00    +0.000 F 
ENDBRANCH  18  20
ENDBRANCH   3  14
BRANCH   1  24
ATOM     24  N   UNL     1       1.532  10.688  17.875  0.00  0.00    +0.000 N 
ATOM     25  H   UNL     1       1.107  10.586  16.961  0.00  0.00    +0.000 HD
BRANCH  24  26
ATOM     26  C   UNL     1       2.573  11.722  17.925  0.00  0.00    +0.000 C 
BRANCH  26  27
ATOM     27  C   UNL     1       1.938  13.062  18.273  0.00  0.00    +0.000 C 
BRANCH  27  28
ATOM     28  C   UNL     1       2.948  14.056  18.869  0.00  0.00    +0.000 C 
BRANCH  28  29
ATOM     29  N   UNL     1       3.538  14.991  17.889  0.00  0.00    +0.000 NA
BRANCH  29  31
ATOM     30  C   UNL     1       2.740  17.178  16.868  0.00  0.00    +0.000 C 
ATOM     31  C   UNL     1       3.044  16.361  18.116  0.00  0.00    +0.000 C 
ENDBRANCH  29  31
BRANCH  29  32
ATOM     32  C   UNL     1       5.011  14.893  17.863  0.00  0.00    +0.000 C 
ATOM     33  C   UNL     1       5.754  15.542  19.029  0.00  0.00    +0.000 C 
ENDBRANCH  29  32
ENDBRANCH  28  29
ENDBRANCH  27  28
ENDBRANCH  26  27
ENDBRANCH  24  26
ENDBRANCH   1  24
BRANCH   4  34
ATOM     34  C   UNL     1       2.171   5.764  20.750  0.00  0.00    +0.000 C 
ATOM     35  N   UNL     1       2.338   4.674  21.361  0.00  0.00    +0.000 NA
ENDBRANCH   4  34
TORSDOF 10
ENDMDL
MODEL 9
REMARK VINA RESULT:      -7.6      2.228      3.150
REMARK  Name = 
REMARK  12 active torsions:
REMARK  status: ('A' for Active; 'I' for Inactive)
REMARK    1  A    between atoms: C_1  and  C_2
REMARK    2  A    between atoms: C_2  and  N_3
REMARK    3  A    between atoms: N_3  and  C_4
REMARK    4  A    between atoms: N_3  and  C_6
REMARK    5  A    between atoms: C_4  and  C_5
REMARK    6  A    between atoms: C_6  and  C_7
REMARK    7  A    between atoms: C_7  and  C_8
REMARK    8  A    between atoms: C_8  and  N_9
REMARK    9  A    between atoms: N_9  and  C_10
REMARK   10  A    between atoms: C_12  and  C_13
REMARK   11  A    between atoms: C_17  and  C_18
REMARK   12  A    between atoms: C_23  and  C_24
REMARK                            x       y       z     vdW  Elec       q    Type
REMARK                         _______ _______ _______ _____ _____    ______ ____
ROOT
ATOM      1  C   UNL     1       1.468   9.322  18.670  0.00  0.00    +0.000 A 
ATOM      2  C   UNL     1       2.113   8.327  18.030  0.00  0.00    +0.000 A 
ATOM      3  C   UNL     1       2.417   7.066  18.681  0.00  0.00    +0.000 A 
ATOM      4  C   UNL     1       2.040   6.873  19.971  0.00  0.00    +0.000 A 
ATOM      5  C   UNL     1       1.353   7.893  20.687  0.00  0.00    +0.000 A 
ATOM      6  N   UNL     1       0.905   7.888  21.921  0.00  0.00    +0.000 NA
ATOM      7  C   UNL     1       0.295   9.096  22.090  0.00  0.00    +0.000 A 
ATOM      8  C   UNL     1      -0.365   9.573  23.234  0.00  0.00    +0.000 A 
ATOM      9  C   UNL     1      -0.939  10.844  23.205  0.00  0.00    +0.000 A 
ATOM     10  C   UNL     1      -0.862  11.622  22.050  0.00  0.00    +0.000 A 
ATOM     11  C   UNL     1      -0.214  11.157  20.897  0.00  0.00    +0.000 A 
ATOM     12  C   UNL     1       0.374   9.883  20.937  0.00  0.00    +0.000 A 
ATOM     13  N   UNL     1       1.080   9.100  20.023  0.00  0.00    +0.000 N 
ENDROOT
BRANCH   3  14
ATOM     14  C   UNL     1       3.146   6.027  17.919  0.00  0.00    +0.000 A 
ATOM     15  C   UNL     1       2.545   4.791  17.651  0.00  0.00    +0.000 A 
ATOM     16  C   UNL     1       3.263   3.783  17.006  0.00  0.00    +0.000 A 
ATOM     17  C   UNL     1       4.594   3.989  16.642  0.00  0.00    +0.000 A 
ATOM     18  C   UNL     1       5.219   5.222  16.911  0.00  0.00    +0.000 A 
ATOM     19  C   UNL     1       4.487   6.234  17.548  0.00  0.00    +0.000 A 
BRANCH  18  20
ATOM     20  C   UNL     1       6.669   5.435  16.553  0.00  0.00    +0.000 C 
ATOM     21  F   UNL     1       7.529   4.616  17.220  0.00  0.00    +0.000 F 
ATOM     22  F   UNL     1       6.917   5.234  15.227  0.00  0.00    +0.000 F 
ATOM     23  F   UNL     1       7.086   6.706  16.819  0.00  0.00    +0.000 F 
ENDBRANCH  18  20
ENDBRANCH   3  14
BRANCH   1  24
ATOM     24  N   UNL     1       1.235  10.514  17.999  0.00  0.00    +0.000 N 
ATOM     25  H   UNL     1       1.960  11.214  18.116  0.00  0.00    +0.000 HD
BRANCH  24  26
ATOM     26  C   UNL     1      -0.113  11.082  17.881  0.00  0.00    +0.000 C 
BRANCH  26  27
ATOM     27  C   UNL     1      -1.084   9.991  17.444  0.00  0.00    +0.000 C 
BRANCH  27  28
ATOM     28  C   UNL     1      -2.456  10.114  18.127  0.00  0.00    +0.000 C 
BRANCH  28  29
ATOM     29  N   UNL     1      -3.088  11.443  17.995  0.00  0.00    +0.000 NA
BRANCH  29  31
ATOM     30  C   UNL     1      -5.385  11.944  17.030  0.00  0.00    +0.000 C 
ATOM     31  C   UNL     1      -3.951  11.490  16.801  0.00  0.00    +0.000 C 
ENDBRANCH  29  31
BRANCH  29  32
ATOM     32  C   UNL     1      -3.779  11.841  19.237  0.00  0.00    +0.000 C 
ATOM     33  C   UNL     1      -3.246  13.089  19.938  0.00  0.00    +0.000 C 
ENDBRANCH  29  32
ENDBRANCH  28  29
ENDBRANCH  27  28
ENDBRANCH  26  27
ENDBRANCH  24  26
ENDBRANCH   1  24
BRANCH   4  34
ATOM     34  C   UNL     1       2.371   5.551  20.644  0.00  0.00    +0.000 C 
ATOM     35  N   UNL     1       2.646   4.454  21.201  0.00  0.00    +0.000 NA
ENDBRANCH   4  34
TORSDOF 10
ENDMDL
