MODEL 1
REMARK VINA RESULT:      -8.2      0.000      0.000
REMARK  Name = 
REMARK  4 active torsions:
REMARK  status: ('A' for Active; 'I' for Inactive)
REMARK    1  A    between atoms: C_1  and  C_2
REMARK    2  A    between atoms: C_2  and  C_3
REMARK    3  A    between atoms: C_16  and  C_17
REMARK    4  A    between atoms: C_22  and  C_23
REMARK                            x       y       z     vdW  Elec       q    Type
REMARK                         _______ _______ _______ _____ _____    ______ ____
ROOT
ATOM      1  C   UNL     1       6.765   8.956  17.480  0.00  0.00    +0.000 C 
ATOM      2  C   UNL     1       7.513   7.620  17.699  0.00  0.00    +0.000 C 
ATOM      3  C   UNL     1       8.754   7.924  18.612  0.00  0.00    +0.000 C 
ATOM      4  C   UNL     1       6.641   6.718  18.588  0.00  0.00    +0.000 C 
ATOM      5  C   UNL     1       7.418   5.420  18.626  0.00  0.00    +0.000 C 
ATOM      6  C   UNL     1       7.013   4.918  17.300  0.00  0.00    +0.000 A 
ATOM      7  C   UNL     1       7.299   5.641  16.144  0.00  0.00    +0.000 A 
ATOM      8  C   UNL     1       6.912   5.034  14.876  0.00  0.00    +0.000 A 
ATOM      9  C   UNL     1       7.514   5.131  13.586  0.00  0.00    +0.000 A 
ATOM     10  C   UNL     1       7.105   4.302  12.501  0.00  0.00    +0.000 A 
ATOM     11  C   UNL     1       6.013   3.439  12.605  0.00  0.00    +0.000 A 
ATOM     12  C   UNL     1       5.321   3.378  13.802  0.00  0.00    +0.000 A 
ATOM     13  C   UNL     1       5.806   4.099  14.906  0.00  0.00    +0.000 A 
ATOM     14  C   UNL     1       5.181   3.796  16.128  0.00  0.00    +0.000 A 
ATOM     15  N   UNL     1       3.955   3.243  16.515  0.00  0.00    +0.000 NA
ATOM     16  C   UNL     1       3.955   3.328  17.838  0.00  0.00    +0.000 A 
ATOM     17  N   UNL     1       5.217   3.554  18.279  0.00  0.00    +0.000 N 
ATOM     18  C   UNL     1       5.917   4.083  17.246  0.00  0.00    +0.000 A 
ATOM     19  O   UNL     1       7.853   6.931  16.365  0.00  0.00    +0.000 OA
ATOM     20  H   UNL     1       5.469   3.639  19.246  0.00  0.00    +0.000 HD
ENDROOT
BRANCH  16  21
ATOM     21  C   UNL     1       2.916   3.190  18.848  0.00  0.00    +0.000 A 
ATOM     22  C   UNL     1       1.698   3.901  18.660  0.00  0.00    +0.000 A 
ATOM     23  C   UNL     1       0.821   4.105  19.720  0.00  0.00    +0.000 A 
ATOM     24  C   UNL     1       1.122   3.571  20.969  0.00  0.00    +0.000 A 
ATOM     25  C   UNL     1       2.274   2.811  21.139  0.00  0.00    +0.000 A 
ATOM     26  C   UNL     1       3.170   2.614  20.084  0.00  0.00    +0.000 A 
BRANCH  26  27
ATOM     27  C   UNL     1       4.395   1.909  20.337  0.00  0.00    +0.000 C 
ATOM     28  N   UNL     1       5.338   1.293  20.581  0.00  0.00    +0.000 NA
ENDBRANCH  26  27
ENDBRANCH  16  21
TORSDOF 2
ENDMDL
MODEL 2
REMARK VINA RESULT:      -8.1      3.996      6.128
REMARK  Name = 
REMARK  4 active torsions:
REMARK  status: ('A' for Active; 'I' for Inactive)
REMARK    1  A    between atoms: C_1  and  C_2
REMARK    2  A    between atoms: C_2  and  C_3
REMARK    3  A    between atoms: C_16  and  C_17
REMARK    4  A    between atoms: C_22  and  C_23
REMARK                            x       y       z     vdW  Elec       q    Type
REMARK                         _______ _______ _______ _____ _____    ______ ____
ROOT
ATOM      1  C   UNL     1       2.564   2.805  21.271  0.00  0.00    +0.000 C 
ATOM      2  C   UNL     1       2.252   2.953  19.764  0.00  0.00    +0.000 C 
ATOM      3  C   UNL     1       1.258   1.800  19.377  0.00  0.00    +0.000 C 
ATOM      4  C   UNL     1       1.407   4.221  19.567  0.00  0.00    +0.000 C 
ATOM      5  C   UNL     1       1.275   4.315  18.062  0.00  0.00    +0.000 C 
ATOM      6  C   UNL     1       2.613   4.871  17.789  0.00  0.00    +0.000 A 
ATOM      7  C   UNL     1       3.764   4.174  18.150  0.00  0.00    +0.000 A 
ATOM      8  C   UNL     1       5.040   4.776  17.783  0.00  0.00    +0.000 A 
ATOM      9  C   UNL     1       6.284   4.166  17.442  0.00  0.00    +0.000 A 
ATOM     10  C   UNL     1       7.372   4.920  16.916  0.00  0.00    +0.000 A 
ATOM     11  C   UNL     1       7.327   6.313  16.824  0.00  0.00    +0.000 A 
ATOM     12  C   UNL     1       6.184   6.972  17.240  0.00  0.00    +0.000 A 
ATOM     13  C   UNL     1       5.067   6.217  17.635  0.00  0.00    +0.000 A 
ATOM     14  C   UNL     1       3.887   6.959  17.815  0.00  0.00    +0.000 A 
ATOM     15  N   UNL     1       3.578   8.300  18.072  0.00  0.00    +0.000 NA
ATOM     16  C   UNL     1       2.262   8.313  18.228  0.00  0.00    +0.000 A 
ATOM     17  N   UNL     1       1.734   7.166  17.735  0.00  0.00    +0.000 N 
ATOM     18  C   UNL     1       2.726   6.243  17.712  0.00  0.00    +0.000 A 
ATOM     19  O   UNL     1       3.538   2.999  18.917  0.00  0.00    +0.000 OA
ATOM     20  H   UNL     1       0.753   6.955  17.727  0.00  0.00    +0.000 HD
ENDROOT
BRANCH  16  21
ATOM     21  C   UNL     1       1.329   9.294  18.764  0.00  0.00    +0.000 A 
ATOM     22  C   UNL     1       1.078  10.468  18.001  0.00  0.00    +0.000 A 
ATOM     23  C   UNL     1       0.497  11.588  18.586  0.00  0.00    +0.000 A 
ATOM     24  C   UNL     1       0.120  11.542  19.924  0.00  0.00    +0.000 A 
ATOM     25  C   UNL     1       0.294  10.371  20.654  0.00  0.00    +0.000 A 
ATOM     26  C   UNL     1       0.893   9.245  20.079  0.00  0.00    +0.000 A 
BRANCH  26  27
ATOM     27  C   UNL     1       1.144   8.097  20.904  0.00  0.00    +0.000 C 
ATOM     28  N   UNL     1       1.354   7.135  21.501  0.00  0.00    +0.000 NA
ENDBRANCH  26  27
ENDBRANCH  16  21
TORSDOF 2
ENDMDL
MODEL 3
REMARK VINA RESULT:      -8.0      1.037      1.722
REMARK  Name = 
REMARK  4 active torsions:
REMARK  status: ('A' for Active; 'I' for Inactive)
REMARK    1  A    between atoms: C_1  and  C_2
REMARK    2  A    between atoms: C_2  and  C_3
REMARK    3  A    between atoms: C_16  and  C_17
REMARK    4  A    between atoms: C_22  and  C_23
REMARK                            x       y       z     vdW  Elec       q    Type
REMARK                         _______ _______ _______ _____ _____    ______ ____
ROOT
ATOM      1  C   UNL     1       6.858   9.027  17.440  0.00  0.00    +0.000 C 
ATOM      2  C   UNL     1       7.586   7.681  17.665  0.00  0.00    +0.000 C 
ATOM      3  C   UNL     1       8.817   7.966  18.599  0.00  0.00    +0.000 C 
ATOM      4  C   UNL     1       6.690   6.787  18.535  0.00  0.00    +0.000 C 
ATOM      5  C   UNL     1       7.450   5.479  18.580  0.00  0.00    +0.000 C 
ATOM      6  C   UNL     1       7.060   4.988  17.245  0.00  0.00    +0.000 A 
ATOM      7  C   UNL     1       7.374   5.712  16.097  0.00  0.00    +0.000 A 
ATOM      8  C   UNL     1       7.000   5.115  14.821  0.00  0.00    +0.000 A 
ATOM      9  C   UNL     1       7.624   5.211  13.540  0.00  0.00    +0.000 A 
ATOM     10  C   UNL     1       7.223   4.392  12.445  0.00  0.00    +0.000 A 
ATOM     11  C   UNL     1       6.118   3.542  12.527  0.00  0.00    +0.000 A 
ATOM     12  C   UNL     1       5.407   3.484  13.713  0.00  0.00    +0.000 A 
ATOM     13  C   UNL     1       5.882   4.195  14.828  0.00  0.00    +0.000 A 
ATOM     14  C   UNL     1       5.234   3.894  16.038  0.00  0.00    +0.000 A 
ATOM     15  N   UNL     1       3.995   3.354  16.403  0.00  0.00    +0.000 NA
ATOM     16  C   UNL     1       3.975   3.434  17.725  0.00  0.00    +0.000 A 
ATOM     17  N   UNL     1       5.232   3.642  18.188  0.00  0.00    +0.000 N 
ATOM     18  C   UNL     1       5.955   4.167  17.169  0.00  0.00    +0.000 A 
ATOM     19  O   UNL     1       7.940   6.994  16.333  0.00  0.00    +0.000 OA
ATOM     20  H   UNL     1       5.469   3.720  19.160  0.00  0.00    +0.000 HD
ENDROOT
BRANCH  16  21
ATOM     21  C   UNL     1       2.917   3.304  18.718  0.00  0.00    +0.000 A 
ATOM     22  C   UNL     1       2.391   2.007  18.973  0.00  0.00    +0.000 A 
ATOM     23  C   UNL     1       1.172   1.848  19.622  0.00  0.00    +0.000 A 
ATOM     24  C   UNL     1       0.479   2.972  20.062  0.00  0.00    +0.000 A 
ATOM     25  C   UNL     1       1.026   4.238  19.882  0.00  0.00    +0.000 A 
ATOM     26  C   UNL     1       2.244   4.409  19.216  0.00  0.00    +0.000 A 
BRANCH  26  27
ATOM     27  C   UNL     1       2.714   5.742  18.964  0.00  0.00    +0.000 C 
ATOM     28  N   UNL     1       3.037   6.818  18.709  0.00  0.00    +0.000 NA
ENDBRANCH  26  27
ENDBRANCH  16  21
TORSDOF 2
ENDMDL
MODEL 4
REMARK VINA RESULT:      -8.0      8.865     11.352
REMARK  Name = 
REMARK  4 active torsions:
REMARK  status: ('A' for Active; 'I' for Inactive)
REMARK    1  A    between atoms: C_1  and  C_2
REMARK    2  A    between atoms: C_2  and  C_3
REMARK    3  A    between atoms: C_16  and  C_17
REMARK    4  A    between atoms: C_22  and  C_23
REMARK                            x       y       z     vdW  Elec       q    Type
REMARK                         _______ _______ _______ _____ _____    ______ ____
ROOT
ATOM      1  C   UNL     1      -3.353  12.220  24.094  0.00  0.00    +0.000 C 
ATOM      2  C   UNL     1      -2.793  13.191  23.029  0.00  0.00    +0.000 C 
ATOM      3  C   UNL     1      -2.312  14.483  23.782  0.00  0.00    +0.000 C 
ATOM      4  C   UNL     1      -1.485  12.603  22.478  0.00  0.00    +0.000 C 
ATOM      5  C   UNL     1      -1.109  13.572  21.378  0.00  0.00    +0.000 C 
ATOM      6  C   UNL     1      -2.048  13.073  20.357  0.00  0.00    +0.000 A 
ATOM      7  C   UNL     1      -3.423  13.080  20.585  0.00  0.00    +0.000 A 
ATOM      8  C   UNL     1      -4.273  12.624  19.493  0.00  0.00    +0.000 A 
ATOM      9  C   UNL     1      -5.594  13.021  19.125  0.00  0.00    +0.000 A 
ATOM     10  C   UNL     1      -6.191  12.603  17.900  0.00  0.00    +0.000 A 
ATOM     11  C   UNL     1      -5.568  11.684  17.053  0.00  0.00    +0.000 A 
ATOM     12  C   UNL     1      -4.328  11.182  17.409  0.00  0.00    +0.000 A 
ATOM     13  C   UNL     1      -3.688  11.693  18.550  0.00  0.00    +0.000 A 
ATOM     14  C   UNL     1      -2.347  11.297  18.700  0.00  0.00    +0.000 A 
ATOM     15  N   UNL     1      -1.559  10.238  18.236  0.00  0.00    +0.000 NA
ATOM     16  C   UNL     1      -0.390  10.406  18.839  0.00  0.00    +0.000 A 
ATOM     17  N   UNL     1      -0.311  11.665  19.335  0.00  0.00    +0.000 N 
ATOM     18  C   UNL     1      -1.579  12.124  19.473  0.00  0.00    +0.000 A 
ATOM     19  O   UNL     1      -3.810  13.450  21.902  0.00  0.00    +0.000 OA
ATOM     20  H   UNL     1       0.488  12.030  19.820  0.00  0.00    +0.000 HD
ENDROOT
BRANCH  16  21
ATOM     21  C   UNL     1       0.774   9.549  19.019  0.00  0.00    +0.000 A 
ATOM     22  C   UNL     1       1.581   9.267  17.882  0.00  0.00    +0.000 A 
ATOM     23  C   UNL     1       2.475   8.202  17.891  0.00  0.00    +0.000 A 
ATOM     24  C   UNL     1       2.609   7.430  19.040  0.00  0.00    +0.000 A 
ATOM     25  C   UNL     1       1.876   7.748  20.178  0.00  0.00    +0.000 A 
ATOM     26  C   UNL     1       0.962   8.807  20.175  0.00  0.00    +0.000 A 
BRANCH  26  27
ATOM     27  C   UNL     1       0.156   9.030  21.342  0.00  0.00    +0.000 C 
ATOM     28  N   UNL     1      -0.552   9.193  22.235  0.00  0.00    +0.000 NA
ENDBRANCH  26  27
ENDBRANCH  16  21
TORSDOF 2
ENDMDL
MODEL 5
REMARK VINA RESULT:      -7.9      7.325      9.446
REMARK  Name = 
REMARK  4 active torsions:
REMARK  status: ('A' for Active; 'I' for Inactive)
REMARK    1  A    between atoms: C_1  and  C_2
REMARK    2  A    between atoms: C_2  and  C_3
REMARK    3  A    between atoms: C_16  and  C_17
REMARK    4  A    between atoms: C_22  and  C_23
REMARK                            x       y       z     vdW  Elec       q    Type
REMARK                         _______ _______ _______ _____ _____    ______ ____
ROOT
ATOM      1  C   UNL     1      -1.913  11.382  23.087  0.00  0.00    +0.000 C 
ATOM      2  C   UNL     1      -1.246  12.252  21.996  0.00  0.00    +0.000 C 
ATOM      3  C   UNL     1      -0.726  13.560  22.694  0.00  0.00    +0.000 C 
ATOM      4  C   UNL     1       0.049  11.558  21.549  0.00  0.00    +0.000 C 
ATOM      5  C   UNL     1       0.535  12.434  20.414  0.00  0.00    +0.000 C 
ATOM      6  C   UNL     1      -0.383  11.925  19.377  0.00  0.00    +0.000 A 
ATOM      7  C   UNL     1      -1.764  12.024  19.534  0.00  0.00    +0.000 A 
ATOM      8  C   UNL     1      -2.586  11.549  18.428  0.00  0.00    +0.000 A 
ATOM      9  C   UNL     1      -3.862  11.995  17.970  0.00  0.00    +0.000 A 
ATOM     10  C   UNL     1      -4.424  11.535  16.744  0.00  0.00    +0.000 A 
ATOM     11  C   UNL     1      -3.817  10.532  15.986  0.00  0.00    +0.000 A 
ATOM     12  C   UNL     1      -2.628   9.984  16.434  0.00  0.00    +0.000 A 
ATOM     13  C   UNL     1      -2.013  10.529  17.574  0.00  0.00    +0.000 A 
ATOM     14  C   UNL     1      -0.707  10.069  17.817  0.00  0.00    +0.000 A 
ATOM     15  N   UNL     1       0.038   8.940  17.458  0.00  0.00    +0.000 NA
ATOM     16  C   UNL     1       1.185   9.079  18.108  0.00  0.00    +0.000 A 
ATOM     17  N   UNL     1       1.314  10.361  18.532  0.00  0.00    +0.000 N 
ATOM     18  C   UNL     1       0.071  10.898  18.577  0.00  0.00    +0.000 A 
ATOM     19  O   UNL     1      -2.191  12.497  20.804  0.00  0.00    +0.000 OA
ATOM     20  H   UNL     1       2.110  10.710  19.034  0.00  0.00    +0.000 HD
ENDROOT
BRANCH  16  21
ATOM     21  C   UNL     1       2.286   8.172  18.398  0.00  0.00    +0.000 A 
ATOM     22  C   UNL     1       3.186   7.851  17.345  0.00  0.00    +0.000 A 
ATOM     23  C   UNL     1       4.027   6.747  17.438  0.00  0.00    +0.000 A 
ATOM     24  C   UNL     1       4.013   5.972  18.593  0.00  0.00    +0.000 A 
ATOM     25  C   UNL     1       3.189   6.326  19.656  0.00  0.00    +0.000 A 
ATOM     26  C   UNL     1       2.328   7.425  19.566  0.00  0.00    +0.000 A 
BRANCH  26  27
ATOM     27  C   UNL     1       1.424   7.687  20.650  0.00  0.00    +0.000 C 
ATOM     28  N   UNL     1       0.731   7.966  21.526  0.00  0.00    +0.000 NA
ENDBRANCH  26  27
ENDBRANCH  16  21
TORSDOF 2
ENDMDL
MODEL 6
REMARK VINA RESULT:      -7.7      3.349      7.298
REMARK  Name = 
REMARK  4 active torsions:
REMARK  status: ('A' for Active; 'I' for Inactive)
REMARK    1  A    between atoms: C_1  and  C_2
REMARK    2  A    between atoms: C_2  and  C_3
REMARK    3  A    between atoms: C_16  and  C_17
REMARK    4  A    between atoms: C_22  and  C_23
REMARK                            x       y       z     vdW  Elec       q    Type
REMARK                         _______ _______ _______ _____ _____    ______ ____
ROOT
ATOM      1  C   UNL     1       0.331   2.495  19.596  0.00  0.00    +0.000 C 
ATOM      2  C   UNL     1       1.469   3.164  20.402  0.00  0.00    +0.000 C 
ATOM      3  C   UNL     1       1.894   2.159  21.532  0.00  0.00    +0.000 C 
ATOM      4  C   UNL     1       2.718   3.233  19.510  0.00  0.00    +0.000 C 
ATOM      5  C   UNL     1       3.705   4.004  20.360  0.00  0.00    +0.000 C 
ATOM      6  C   UNL     1       3.156   5.350  20.113  0.00  0.00    +0.000 A 
ATOM      7  C   UNL     1       1.843   5.662  20.459  0.00  0.00    +0.000 A 
ATOM      8  C   UNL     1       1.412   7.035  20.232  0.00  0.00    +0.000 A 
ATOM      9  C   UNL     1       0.468   7.835  20.944  0.00  0.00    +0.000 A 
ATOM     10  C   UNL     1       0.323   9.230  20.692  0.00  0.00    +0.000 A 
ATOM     11  C   UNL     1       1.003   9.865  19.650  0.00  0.00    +0.000 A 
ATOM     12  C   UNL     1       1.854   9.117  18.855  0.00  0.00    +0.000 A 
ATOM     13  C   UNL     1       2.092   7.773  19.188  0.00  0.00    +0.000 A 
ATOM     14  C   UNL     1       3.138   7.165  18.472  0.00  0.00    +0.000 A 
ATOM     15  N   UNL     1       3.784   7.399  17.253  0.00  0.00    +0.000 NA
ATOM     16  C   UNL     1       4.627   6.384  17.124  0.00  0.00    +0.000 A 
ATOM     17  N   UNL     1       4.787   5.771  18.322  0.00  0.00    +0.000 N 
ATOM     18  C   UNL     1       3.707   6.080  19.081  0.00  0.00    +0.000 A 
ATOM     19  O   UNL     1       1.064   4.561  20.909  0.00  0.00    +0.000 OA
ATOM     20  H   UNL     1       5.392   4.985  18.477  0.00  0.00    +0.000 HD
ENDROOT
BRANCH  16  21
ATOM     21  C   UNL     1       5.400   5.863  16.005  0.00  0.00    +0.000 A 
ATOM     22  C   UNL     1       4.791   4.892  15.163  0.00  0.00    +0.000 A 
ATOM     23  C   UNL     1       5.559   4.102  14.315  0.00  0.00    +0.000 A 
ATOM     24  C   UNL     1       6.936   4.294  14.262  0.00  0.00    +0.000 A 
ATOM     25  C   UNL     1       7.526   5.293  15.027  0.00  0.00    +0.000 A 
ATOM     26  C   UNL     1       6.764   6.083  15.895  0.00  0.00    +0.000 A 
BRANCH  26  27
ATOM     27  C   UNL     1       7.436   7.030  16.739  0.00  0.00    +0.000 C 
ATOM     28  N   UNL     1       7.934   7.846  17.382  0.00  0.00    +0.000 NA
ENDBRANCH  26  27
ENDBRANCH  16  21
TORSDOF 2
ENDMDL
MODEL 7
REMARK VINA RESULT:      -7.5      0.814      1.845
REMARK  Name = 
REMARK  4 active torsions:
REMARK  status: ('A' for Active; 'I' for Inactive)
REMARK    1  A    between atoms: C_1  and  C_2
REMARK    2  A    between atoms: C_2  and  C_3
REMARK    3  A    between atoms: C_16  and  C_17
REMARK    4  A    between atoms: C_22  and  C_23
REMARK                            x       y       z     vdW  Elec       q    Type
REMARK                         _______ _______ _______ _____ _____    ______ ____
ROOT
ATOM      1  C   UNL     1       6.830   9.135  17.492  0.00  0.00    +0.000 C 
ATOM      2  C   UNL     1       7.619   7.826  17.730  0.00  0.00    +0.000 C 
ATOM      3  C   UNL     1       8.912   8.200  18.540  0.00  0.00    +0.000 C 
ATOM      4  C   UNL     1       6.827   6.958  18.720  0.00  0.00    +0.000 C 
ATOM      5  C   UNL     1       7.632   5.677  18.773  0.00  0.00    +0.000 C 
ATOM      6  C   UNL     1       7.151   5.099  17.505  0.00  0.00    +0.000 A 
ATOM      7  C   UNL     1       7.344   5.765  16.296  0.00  0.00    +0.000 A 
ATOM      8  C   UNL     1       6.888   5.084  15.091  0.00  0.00    +0.000 A 
ATOM      9  C   UNL     1       7.401   5.124  13.759  0.00  0.00    +0.000 A 
ATOM     10  C   UNL     1       6.939   4.232  12.749  0.00  0.00    +0.000 A 
ATOM     11  C   UNL     1       5.874   3.356  12.970  0.00  0.00    +0.000 A 
ATOM     12  C   UNL     1       5.265   3.346  14.213  0.00  0.00    +0.000 A 
ATOM     13  C   UNL     1       5.806   4.134  15.243  0.00  0.00    +0.000 A 
ATOM     14  C   UNL     1       5.270   3.884  16.518  0.00  0.00    +0.000 A 
ATOM     15  N   UNL     1       4.084   3.331  17.014  0.00  0.00    +0.000 NA
ATOM     16  C   UNL     1       4.170   3.486  18.328  0.00  0.00    +0.000 A 
ATOM     17  N   UNL     1       5.453   3.757  18.671  0.00  0.00    +0.000 N 
ATOM     18  C   UNL     1       6.071   4.243  17.568  0.00  0.00    +0.000 A 
ATOM     19  O   UNL     1       7.885   7.074  16.412  0.00  0.00    +0.000 OA
ATOM     20  H   UNL     1       5.766   3.898  19.614  0.00  0.00    +0.000 HD
ENDROOT
BRANCH  16  21
ATOM     21  C   UNL     1       3.202   3.384  19.412  0.00  0.00    +0.000 A 
ATOM     22  C   UNL     1       3.633   2.819  20.644  0.00  0.00    +0.000 A 
ATOM     23  C   UNL     1       2.710   2.368  21.582  0.00  0.00    +0.000 A 
ATOM     24  C   UNL     1       1.350   2.508  21.325  0.00  0.00    +0.000 A 
ATOM     25  C   UNL     1       0.925   3.127  20.155  0.00  0.00    +0.000 A 
ATOM     26  C   UNL     1       1.845   3.571  19.199  0.00  0.00    +0.000 A 
BRANCH  26  27
ATOM     27  C   UNL     1       1.353   4.110  17.962  0.00  0.00    +0.000 C 
ATOM     28  N   UNL     1       0.915   4.480  16.964  0.00  0.00    +0.000 NA
ENDBRANCH  26  27
ENDBRANCH  16  21
TORSDOF 2
ENDMDL
MODEL 8
REMARK VINA RESULT:      -7.4      3.776      6.083
REMARK  Name = 
REMARK  4 active torsions:
REMARK  status: ('A' for Active; 'I' for Inactive)
REMARK    1  A    between atoms: C_1  and  C_2
REMARK    2  A    between atoms: C_2  and  C_3
REMARK    3  A    between atoms: C_16  and  C_17
REMARK    4  A    between atoms: C_22  and  C_23
REMARK                            x       y       z     vdW  Elec       q    Type
REMARK                         _______ _______ _______ _____ _____    ______ ____
ROOT
ATOM      1  C   UNL     1       5.227   4.922  14.324  0.00  0.00    +0.000 C 
ATOM      2  C   UNL     1       5.733   4.991  15.784  0.00  0.00    +0.000 C 
ATOM      3  C   UNL     1       7.297   5.121  15.732  0.00  0.00    +0.000 C 
ATOM      4  C   UNL     1       5.293   6.335  16.385  0.00  0.00    +0.000 C 
ATOM      5  C   UNL     1       5.736   6.229  17.828  0.00  0.00    +0.000 C 
ATOM      6  C   UNL     1       4.630   5.377  18.303  0.00  0.00    +0.000 A 
ATOM      7  C   UNL     1       4.409   4.117  17.750  0.00  0.00    +0.000 A 
ATOM      8  C   UNL     1       3.330   3.326  18.329  0.00  0.00    +0.000 A 
ATOM      9  C   UNL     1       3.197   1.912  18.467  0.00  0.00    +0.000 A 
ATOM     10  C   UNL     1       2.153   1.327  19.242  0.00  0.00    +0.000 A 
ATOM     11  C   UNL     1       1.133   2.098  19.804  0.00  0.00    +0.000 A 
ATOM     12  C   UNL     1       1.151   3.469  19.615  0.00  0.00    +0.000 A 
ATOM     13  C   UNL     1       2.249   4.052  18.961  0.00  0.00    +0.000 A 
ATOM     14  C   UNL     1       2.292   5.456  19.020  0.00  0.00    +0.000 A 
ATOM     15  N   UNL     1       1.360   6.478  19.231  0.00  0.00    +0.000 NA
ATOM     16  C   UNL     1       2.049   7.597  19.060  0.00  0.00    +0.000 A 
ATOM     17  N   UNL     1       3.376   7.327  19.120  0.00  0.00    +0.000 N 
ATOM     18  C   UNL     1       3.532   6.009  18.847  0.00  0.00    +0.000 A 
ATOM     19  O   UNL     1       5.217   3.806  16.623  0.00  0.00    +0.000 OA
ATOM     20  H   UNL     1       4.096   8.020  19.034  0.00  0.00    +0.000 HD
ENDROOT
BRANCH  16  21
ATOM     21  C   UNL     1       1.664   8.989  18.872  0.00  0.00    +0.000 A 
ATOM     22  C   UNL     1       2.276   9.718  17.815  0.00  0.00    +0.000 A 
ATOM     23  C   UNL     1       2.236  11.107  17.791  0.00  0.00    +0.000 A 
ATOM     24  C   UNL     1       1.554  11.789  18.794  0.00  0.00    +0.000 A 
ATOM     25  C   UNL     1       0.890  11.078  19.788  0.00  0.00    +0.000 A 
ATOM     26  C   UNL     1       0.938   9.681  19.829  0.00  0.00    +0.000 A 
BRANCH  26  27
ATOM     27  C   UNL     1       0.323   8.999  20.933  0.00  0.00    +0.000 C 
ATOM     28  N   UNL     1      -0.235   8.486  21.800  0.00  0.00    +0.000 NA
ENDBRANCH  26  27
ENDBRANCH  16  21
TORSDOF 2
ENDMDL
MODEL 9
REMARK VINA RESULT:      -7.3      3.796      5.900
REMARK  Name = 
REMARK  4 active torsions:
REMARK  status: ('A' for Active; 'I' for Inactive)
REMARK    1  A    between atoms: C_1  and  C_2
REMARK    2  A    between atoms: C_2  and  C_3
REMARK    3  A    between atoms: C_16  and  C_17
REMARK    4  A    between atoms: C_22  and  C_23
REMARK                            x       y       z     vdW  Elec       q    Type
REMARK                         _______ _______ _______ _____ _____    ______ ____
ROOT
ATOM      1  C   UNL     1       5.230   6.076  15.170  0.00  0.00    +0.000 C 
ATOM      2  C   UNL     1       5.637   5.650  16.600  0.00  0.00    +0.000 C 
ATOM      3  C   UNL     1       7.203   5.737  16.686  0.00  0.00    +0.000 C 
ATOM      4  C   UNL     1       5.175   6.740  17.579  0.00  0.00    +0.000 C 
ATOM      5  C   UNL     1       5.519   6.155  18.932  0.00  0.00    +0.000 C 
ATOM      6  C   UNL     1       4.373   5.233  19.037  0.00  0.00    +0.000 A 
ATOM      7  C   UNL     1       4.174   4.230  18.091  0.00  0.00    +0.000 A 
ATOM      8  C   UNL     1       3.048   3.331  18.314  0.00  0.00    +0.000 A 
ATOM      9  C   UNL     1       2.888   1.953  17.975  0.00  0.00    +0.000 A 
ATOM     10  C   UNL     1       1.787   1.185  18.454  0.00  0.00    +0.000 A 
ATOM     11  C   UNL     1       0.742   1.765  19.175  0.00  0.00    +0.000 A 
ATOM     12  C   UNL     1       0.789   3.122  19.445  0.00  0.00    +0.000 A 
ATOM     13  C   UNL     1       1.936   3.848  19.083  0.00  0.00    +0.000 A 
ATOM     14  C   UNL     1       1.993   5.154  19.601  0.00  0.00    +0.000 A 
ATOM     15  N   UNL     1       1.062   6.083  20.077  0.00  0.00    +0.000 NA
ATOM     16  C   UNL     1       1.775   7.173  20.322  0.00  0.00    +0.000 A 
ATOM     17  N   UNL     1       3.092   6.853  20.369  0.00  0.00    +0.000 N 
ATOM     18  C   UNL     1       3.249   5.691  19.691  0.00  0.00    +0.000 A 
ATOM     19  O   UNL     1       5.051   4.275  16.974  0.00  0.00    +0.000 OA
ATOM     20  H   UNL     1       3.825   7.512  20.557  0.00  0.00    +0.000 HD
ENDROOT
BRANCH  16  21
ATOM     21  C   UNL     1       1.422   8.563  20.577  0.00  0.00    +0.000 A 
ATOM     22  C   UNL     1       0.909   8.900  21.860  0.00  0.00    +0.000 A 
ATOM     23  C   UNL     1       0.231  10.097  22.064  0.00  0.00    +0.000 A 
ATOM     24  C   UNL     1       0.089  10.991  21.008  0.00  0.00    +0.000 A 
ATOM     25  C   UNL     1       0.653  10.699  19.771  0.00  0.00    +0.000 A 
ATOM     26  C   UNL     1       1.324   9.491  19.552  0.00  0.00    +0.000 A 
BRANCH  26  27
ATOM     27  C   UNL     1       1.798   9.192  18.230  0.00  0.00    +0.000 C 
ATOM     28  N   UNL     1       2.249   8.946  17.199  0.00  0.00    +0.000 NA
ENDBRANCH  26  27
ENDBRANCH  16  21
TORSDOF 2
ENDMDL
