MODEL 1
REMARK VINA RESULT:      -9.2      0.000      0.000
REMARK  Name = 
REMARK  9 active torsions:
REMARK  status: ('A' for Active; 'I' for Inactive)
REMARK    1  A    between atoms: C_1  and  O_2
REMARK    2  A    between atoms: O_2  and  C_3
REMARK    3  A    between atoms: C_6  and  C_7
REMARK    4  A    between atoms: C_8  and  C_9
REMARK    5  A    between atoms: N_11  and  C_12
REMARK    6  A    between atoms: N_21  and  C_22
REMARK    7  A    between atoms: C_26  and  C_27
REMARK    8  A    between atoms: C_31  and  O_32
REMARK    9  A    between atoms: O_32  and  C_33
REMARK                            x       y       z     vdW  Elec       q    Type
REMARK                         _______ _______ _______ _____ _____    ______ ____
ROOT
ATOM      1  C   UNL     1       0.623   9.838  21.023  0.00  0.00    +0.000 A 
ATOM      2  C   UNL     1       0.030   9.233  22.128  0.00  0.00    +0.000 A 
ATOM      3  C   UNL     1      -0.774   9.973  22.991  0.00  0.00    +0.000 A 
ATOM      4  C   UNL     1      -1.004  11.322  22.802  0.00  0.00    +0.000 A 
ATOM      5  N   UNL     1      -1.914  11.925  23.578  0.00  0.00    +0.000 NA
ATOM      6  C   UNL     1      -2.121  13.239  23.404  0.00  0.00    +0.000 A 
ATOM      7  N   UNL     1      -3.421  13.696  23.353  0.00  0.00    +0.000 N 
ATOM      8  C   UNL     1      -3.706  15.132  23.372  0.00  0.00    +0.000 C 
ATOM      9  C   UNL     1      -5.155  15.313  23.885  0.00  0.00    +0.000 C 
ATOM     10  N   UNL     1      -6.153  14.494  23.154  0.00  0.00    +0.000 NA
ATOM     11  C   UNL     1      -7.478  14.614  23.741  0.00  0.00    +0.000 C 
ATOM     12  C   UNL     1      -5.736  13.077  23.018  0.00  0.00    +0.000 C 
ATOM     13  C   UNL     1      -4.316  12.973  22.432  0.00  0.00    +0.000 C 
ATOM     14  C   UNL     1      -1.108  13.989  22.875  0.00  0.00    +0.000 A 
ATOM     15  C   UNL     1      -0.654  13.398  21.703  0.00  0.00    +0.000 A 
ATOM     16  C   UNL     1      -1.032  14.153  20.455  0.00  0.00    +0.000 C 
ATOM     17  C   UNL     1      -0.374  11.999  21.740  0.00  0.00    +0.000 A 
ATOM     18  C   UNL     1       0.411  11.224  20.826  0.00  0.00    +0.000 A 
ENDROOT
BRANCH   1  21
ATOM     19  C   UNL     1       1.332   9.131  18.707  0.00  0.00    +0.000 C 
ATOM     20  O   UNL     1       0.508   9.712  18.034  0.00  0.00    +0.000 OA
ATOM     21  N   UNL     1       1.429   9.118  20.098  0.00  0.00    +0.000 N 
ATOM     22  H   UNL     1       2.158   8.555  20.510  0.00  0.00    +0.000 HD
BRANCH  19  24
ATOM     23  C   UNL     1       2.694   7.067  18.463  0.00  0.00    +0.000 C 
ATOM     24  C   UNL     1       2.419   8.322  18.058  0.00  0.00    +0.000 C 
BRANCH  23  28
ATOM     25  C   UNL     1       5.443   4.501  16.351  0.00  0.00    +0.000 A 
ATOM     26  C   UNL     1       4.213   4.017  16.817  0.00  0.00    +0.000 A 
ATOM     27  C   UNL     1       3.337   4.842  17.530  0.00  0.00    +0.000 A 
ATOM     28  C   UNL     1       3.686   6.166  17.838  0.00  0.00    +0.000 A 
ATOM     29  C   UNL     1       4.948   6.616  17.431  0.00  0.00    +0.000 A 
ATOM     30  C   UNL     1       5.838   5.800  16.704  0.00  0.00    +0.000 A 
BRANCH  25  32
ATOM     31  C   UNL     1       6.218   3.973  14.172  0.00  0.00    +0.000 C 
ATOM     32  O   UNL     1       6.267   3.726  15.579  0.00  0.00    +0.000 OA
ENDBRANCH  25  32
BRANCH  30  33
ATOM     33  O   UNL     1       7.003   6.460  16.410  0.00  0.00    +0.000 OA
ATOM     34  C   UNL     1       7.556   7.356  17.361  0.00  0.00    +0.000 C 
ENDBRANCH  30  33
ENDBRANCH  23  28
ENDBRANCH  19  24
ENDBRANCH   1  21
TORSDOF 5
ENDMDL
MODEL 2
REMARK VINA RESULT:      -8.4      1.014      1.055
REMARK  Name = 
REMARK  9 active torsions:
REMARK  status: ('A' for Active; 'I' for Inactive)
REMARK    1  A    between atoms: C_1  and  O_2
REMARK    2  A    between atoms: O_2  and  C_3
REMARK    3  A    between atoms: C_6  and  C_7
REMARK    4  A    between atoms: C_8  and  C_9
REMARK    5  A    between atoms: N_11  and  C_12
REMARK    6  A    between atoms: N_21  and  C_22
REMARK    7  A    between atoms: C_26  and  C_27
REMARK    8  A    between atoms: C_31  and  O_32
REMARK    9  A    between atoms: O_32  and  C_33
REMARK                            x       y       z     vdW  Elec       q    Type
REMARK                         _______ _______ _______ _____ _____    ______ ____
ROOT
ATOM      1  C   UNL     1       0.719   9.579  21.045  0.00  0.00    +0.000 A 
ATOM      2  C   UNL     1       0.019   8.944  22.067  0.00  0.00    +0.000 A 
ATOM      3  C   UNL     1      -0.829   9.671  22.899  0.00  0.00    +0.000 A 
ATOM      4  C   UNL     1      -1.002  11.034  22.758  0.00  0.00    +0.000 A 
ATOM      5  N   UNL     1      -1.953  11.632  23.486  0.00  0.00    +0.000 NA
ATOM      6  C   UNL     1      -2.105  12.959  23.360  0.00  0.00    +0.000 A 
ATOM      7  N   UNL     1      -3.382  13.462  23.228  0.00  0.00    +0.000 N 
ATOM      8  C   UNL     1      -3.624  14.904  23.294  0.00  0.00    +0.000 C 
ATOM      9  C   UNL     1      -5.104  15.111  23.698  0.00  0.00    +0.000 C 
ATOM     10  N   UNL     1      -6.063  14.361  22.850  0.00  0.00    +0.000 NA
ATOM     11  C   UNL     1      -7.427  14.499  23.335  0.00  0.00    +0.000 C 
ATOM     12  C   UNL     1      -5.680  12.939  22.680  0.00  0.00    +0.000 C 
ATOM     13  C   UNL     1      -4.221  12.813  22.205  0.00  0.00    +0.000 C 
ATOM     14  C   UNL     1      -1.030  13.697  22.951  0.00  0.00    +0.000 A 
ATOM     15  C   UNL     1      -0.500  13.145  21.792  0.00  0.00    +0.000 A 
ATOM     16  C   UNL     1      -0.752  13.969  20.556  0.00  0.00    +0.000 C 
ATOM     17  C   UNL     1      -0.267  11.737  21.783  0.00  0.00    +0.000 A 
ATOM     18  C   UNL     1       0.566  10.978  20.899  0.00  0.00    +0.000 A 
ENDROOT
BRANCH   1  21
ATOM     19  C   UNL     1       1.768   7.496  20.081  0.00  0.00    +0.000 C 
ATOM     20  O   UNL     1       1.286   6.649  20.802  0.00  0.00    +0.000 OA
ATOM     21  N   UNL     1       1.575   8.875  20.153  0.00  0.00    +0.000 N 
ATOM     22  H   UNL     1       2.076   9.452  19.493  0.00  0.00    +0.000 HD
BRANCH  19  24
ATOM     23  C   UNL     1       3.659   6.209  19.110  0.00  0.00    +0.000 C 
ATOM     24  C   UNL     1       2.672   7.111  18.945  0.00  0.00    +0.000 C 
BRANCH  23  28
ATOM     25  C   UNL     1       6.073   4.928  15.773  0.00  0.00    +0.000 A 
ATOM     26  C   UNL     1       4.886   4.261  16.107  0.00  0.00    +0.000 A 
ATOM     27  C   UNL     1       4.122   4.657  17.209  0.00  0.00    +0.000 A 
ATOM     28  C   UNL     1       4.546   5.708  18.038  0.00  0.00    +0.000 A 
ATOM     29  C   UNL     1       5.770   6.318  17.737  0.00  0.00    +0.000 A 
ATOM     30  C   UNL     1       6.546   5.937  16.625  0.00  0.00    +0.000 A 
BRANCH  25  32
ATOM     31  C   UNL     1       6.095   3.788  13.693  0.00  0.00    +0.000 C 
ATOM     32  O   UNL     1       6.780   4.602  14.647  0.00  0.00    +0.000 OA
ENDBRANCH  25  32
BRANCH  30  33
ATOM     33  O   UNL     1       7.693   6.682  16.530  0.00  0.00    +0.000 OA
ATOM     34  C   UNL     1       7.860   7.816  17.367  0.00  0.00    +0.000 C 
ENDBRANCH  30  33
ENDBRANCH  23  28
ENDBRANCH  19  24
ENDBRANCH   1  21
TORSDOF 5
ENDMDL
MODEL 3
REMARK VINA RESULT:      -8.3      0.962      1.118
REMARK  Name = 
REMARK  9 active torsions:
REMARK  status: ('A' for Active; 'I' for Inactive)
REMARK    1  A    between atoms: C_1  and  O_2
REMARK    2  A    between atoms: O_2  and  C_3
REMARK    3  A    between atoms: C_6  and  C_7
REMARK    4  A    between atoms: C_8  and  C_9
REMARK    5  A    between atoms: N_11  and  C_12
REMARK    6  A    between atoms: N_21  and  C_22
REMARK    7  A    between atoms: C_26  and  C_27
REMARK    8  A    between atoms: C_31  and  O_32
REMARK    9  A    between atoms: O_32  and  C_33
REMARK                            x       y       z     vdW  Elec       q    Type
REMARK                         _______ _______ _______ _____ _____    ______ ____
ROOT
ATOM      1  C   UNL     1       0.590   9.760  20.706  0.00  0.00    +0.000 A 
ATOM      2  C   UNL     1       0.016   9.114  21.798  0.00  0.00    +0.000 A 
ATOM      3  C   UNL     1      -0.734   9.830  22.728  0.00  0.00    +0.000 A 
ATOM      4  C   UNL     1      -0.927  11.193  22.619  0.00  0.00    +0.000 A 
ATOM      5  N   UNL     1      -1.790  11.780  23.458  0.00  0.00    +0.000 NA
ATOM      6  C   UNL     1      -1.961  13.108  23.361  0.00  0.00    +0.000 A 
ATOM      7  N   UNL     1      -3.247  13.606  23.382  0.00  0.00    +0.000 N 
ATOM      8  C   UNL     1      -3.485  15.046  23.487  0.00  0.00    +0.000 C 
ATOM      9  C   UNL     1      -4.909  15.242  24.061  0.00  0.00    +0.000 C 
ATOM     10  N   UNL     1      -5.957  14.493  23.324  0.00  0.00    +0.000 NA
ATOM     11  C   UNL     1      -7.256  14.621  23.964  0.00  0.00    +0.000 C 
ATOM     12  C   UNL     1      -5.590  13.075  23.099  0.00  0.00    +0.000 C 
ATOM     13  C   UNL     1      -4.196  12.960  22.457  0.00  0.00    +0.000 C 
ATOM     14  C   UNL     1      -0.943  13.855  22.836  0.00  0.00    +0.000 A 
ATOM     15  C   UNL     1      -0.549  13.314  21.620  0.00  0.00    +0.000 A 
ATOM     16  C   UNL     1      -0.946  14.147  20.428  0.00  0.00    +0.000 C 
ATOM     17  C   UNL     1      -0.312  11.908  21.572  0.00  0.00    +0.000 A 
ATOM     18  C   UNL     1       0.415  11.160  20.591  0.00  0.00    +0.000 A 
ENDROOT
BRANCH   1  21
ATOM     19  C   UNL     1       1.123   9.071  18.338  0.00  0.00    +0.000 C 
ATOM     20  O   UNL     1       0.222   9.617  17.738  0.00  0.00    +0.000 OA
ATOM     21  N   UNL     1       1.340   9.068  19.715  0.00  0.00    +0.000 N 
ATOM     22  H   UNL     1       2.123   8.534  20.064  0.00  0.00    +0.000 HD
BRANCH  19  24
ATOM     23  C   UNL     1       3.139   7.620  18.256  0.00  0.00    +0.000 C 
ATOM     24  C   UNL     1       2.180   8.301  17.599  0.00  0.00    +0.000 C 
BRANCH  23  28
ATOM     25  C   UNL     1       6.336   5.414  16.380  0.00  0.00    +0.000 A 
ATOM     26  C   UNL     1       5.365   6.075  15.615  0.00  0.00    +0.000 A 
ATOM     27  C   UNL     1       4.311   6.763  16.225  0.00  0.00    +0.000 A 
ATOM     28  C   UNL     1       4.171   6.772  17.622  0.00  0.00    +0.000 A 
ATOM     29  C   UNL     1       5.105   6.047  18.372  0.00  0.00    +0.000 A 
ATOM     30  C   UNL     1       6.177   5.357  17.773  0.00  0.00    +0.000 A 
BRANCH  25  32
ATOM     31  C   UNL     1       7.354   4.663  14.373  0.00  0.00    +0.000 C 
ATOM     32  O   UNL     1       7.417   4.813  15.793  0.00  0.00    +0.000 OA
ENDBRANCH  25  32
BRANCH  30  33
ATOM     33  O   UNL     1       6.962   4.733  18.708  0.00  0.00    +0.000 OA
ATOM     34  C   UNL     1       7.917   5.489  19.435  0.00  0.00    +0.000 C 
ENDBRANCH  30  33
ENDBRANCH  23  28
ENDBRANCH  19  24
ENDBRANCH   1  21
TORSDOF 5
ENDMDL
MODEL 4
REMARK VINA RESULT:      -8.2      1.207      1.890
REMARK  Name = 
REMARK  9 active torsions:
REMARK  status: ('A' for Active; 'I' for Inactive)
REMARK    1  A    between atoms: C_1  and  O_2
REMARK    2  A    between atoms: O_2  and  C_3
REMARK    3  A    between atoms: C_6  and  C_7
REMARK    4  A    between atoms: C_8  and  C_9
REMARK    5  A    between atoms: N_11  and  C_12
REMARK    6  A    between atoms: N_21  and  C_22
REMARK    7  A    between atoms: C_26  and  C_27
REMARK    8  A    between atoms: C_31  and  O_32
REMARK    9  A    between atoms: O_32  and  C_33
REMARK                            x       y       z     vdW  Elec       q    Type
REMARK                         _______ _______ _______ _____ _____    ______ ____
ROOT
ATOM      1  C   UNL     1       0.412  10.404  21.114  0.00  0.00    +0.000 A 
ATOM      2  C   UNL     1      -0.352   9.839  22.132  0.00  0.00    +0.000 A 
ATOM      3  C   UNL     1      -1.097  10.647  22.987  0.00  0.00    +0.000 A 
ATOM      4  C   UNL     1      -1.101  12.024  22.875  0.00  0.00    +0.000 A 
ATOM      5  N   UNL     1      -1.966  12.719  23.626  0.00  0.00    +0.000 NA
ATOM      6  C   UNL     1      -1.954  14.057  23.528  0.00  0.00    +0.000 A 
ATOM      7  N   UNL     1      -3.160  14.716  23.420  0.00  0.00    +0.000 N 
ATOM      8  C   UNL     1      -3.222  16.175  23.517  0.00  0.00    +0.000 C 
ATOM      9  C   UNL     1      -4.661  16.554  23.942  0.00  0.00    +0.000 C 
ATOM     10  N   UNL     1      -5.713  15.945  23.090  0.00  0.00    +0.000 NA
ATOM     11  C   UNL     1      -7.046  16.240  23.593  0.00  0.00    +0.000 C 
ATOM     12  C   UNL     1      -5.510  14.491  22.888  0.00  0.00    +0.000 C 
ATOM     13  C   UNL     1      -4.082  14.196  22.394  0.00  0.00    +0.000 C 
ATOM     14  C   UNL     1      -0.799  14.666  23.121  0.00  0.00    +0.000 A 
ATOM     15  C   UNL     1      -0.352  14.077  21.946  0.00  0.00    +0.000 A 
ATOM     16  C   UNL     1      -0.512  14.952  20.729  0.00  0.00    +0.000 C 
ATOM     17  C   UNL     1      -0.294  12.652  21.906  0.00  0.00    +0.000 A 
ATOM     18  C   UNL     1       0.431  11.815  20.998  0.00  0.00    +0.000 A 
ENDROOT
BRANCH   1  21
ATOM     19  C   UNL     1       0.998   9.540  18.817  0.00  0.00    +0.000 C 
ATOM     20  O   UNL     1       0.142  10.080  18.150  0.00  0.00    +0.000 OA
ATOM     21  N   UNL     1       1.166   9.619  20.199  0.00  0.00    +0.000 N 
ATOM     22  H   UNL     1       1.914   9.080  20.610  0.00  0.00    +0.000 HD
BRANCH  19  24
ATOM     23  C   UNL     1       2.257   7.413  18.566  0.00  0.00    +0.000 C 
ATOM     24  C   UNL     1       2.048   8.683  18.169  0.00  0.00    +0.000 C 
BRANCH  23  28
ATOM     25  C   UNL     1       5.260   4.774  16.944  0.00  0.00    +0.000 A 
ATOM     26  C   UNL     1       5.107   6.081  16.463  0.00  0.00    +0.000 A 
ATOM     27  C   UNL     1       4.112   6.924  16.967  0.00  0.00    +0.000 A 
ATOM     28  C   UNL     1       3.208   6.469  17.940  0.00  0.00    +0.000 A 
ATOM     29  C   UNL     1       3.324   5.138  18.360  0.00  0.00    +0.000 A 
ATOM     30  C   UNL     1       4.327   4.279  17.868  0.00  0.00    +0.000 A 
BRANCH  25  32
ATOM     31  C   UNL     1       7.269   4.602  15.695  0.00  0.00    +0.000 C 
ATOM     32  O   UNL     1       6.285   3.972  16.518  0.00  0.00    +0.000 OA
ENDBRANCH  25  32
BRANCH  30  33
ATOM     33  O   UNL     1       4.245   3.032  18.433  0.00  0.00    +0.000 OA
ATOM     34  C   UNL     1       3.329   2.086  17.906  0.00  0.00    +0.000 C 
ENDBRANCH  30  33
ENDBRANCH  23  28
ENDBRANCH  19  24
ENDBRANCH   1  21
TORSDOF 5
ENDMDL
MODEL 5
REMARK VINA RESULT:      -7.8      1.289      2.016
REMARK  Name = 
REMARK  9 active torsions:
REMARK  status: ('A' for Active; 'I' for Inactive)
REMARK    1  A    between atoms: C_1  and  O_2
REMARK    2  A    between atoms: O_2  and  C_3
REMARK    3  A    between atoms: C_6  and  C_7
REMARK    4  A    between atoms: C_8  and  C_9
REMARK    5  A    between atoms: N_11  and  C_12
REMARK    6  A    between atoms: N_21  and  C_22
REMARK    7  A    between atoms: C_26  and  C_27
REMARK    8  A    between atoms: C_31  and  O_32
REMARK    9  A    between atoms: O_32  and  C_33
REMARK                            x       y       z     vdW  Elec       q    Type
REMARK                         _______ _______ _______ _____ _____    ______ ____
ROOT
ATOM      1  C   UNL     1       0.285  10.186  21.139  0.00  0.00    +0.000 A 
ATOM      2  C   UNL     1      -0.280   9.697  22.314  0.00  0.00    +0.000 A 
ATOM      3  C   UNL     1      -1.035  10.531  23.135  0.00  0.00    +0.000 A 
ATOM      4  C   UNL     1      -1.241  11.863  22.834  0.00  0.00    +0.000 A 
ATOM      5  N   UNL     1      -2.109  12.555  23.584  0.00  0.00    +0.000 NA
ATOM      6  C   UNL     1      -2.293  13.854  23.300  0.00  0.00    +0.000 A 
ATOM      7  N   UNL     1      -3.584  14.337  23.254  0.00  0.00    +0.000 N 
ATOM      8  C   UNL     1      -3.836  15.775  23.154  0.00  0.00    +0.000 C 
ATOM      9  C   UNL     1      -5.261  16.037  23.700  0.00  0.00    +0.000 C 
ATOM     10  N   UNL     1      -6.303  15.181  23.080  0.00  0.00    +0.000 NA
ATOM     11  C   UNL     1      -7.602  15.387  23.701  0.00  0.00    +0.000 C 
ATOM     12  C   UNL     1      -5.923  13.749  23.059  0.00  0.00    +0.000 C 
ATOM     13  C   UNL     1      -4.529  13.557  22.434  0.00  0.00    +0.000 C 
ATOM     14  C   UNL     1      -1.284  14.528  22.670  0.00  0.00    +0.000 A 
ATOM     15  C   UNL     1      -0.888  13.823  21.541  0.00  0.00    +0.000 A 
ATOM     16  C   UNL     1      -1.296  14.474  20.245  0.00  0.00    +0.000 C 
ATOM     17  C   UNL     1      -0.637  12.427  21.693  0.00  0.00    +0.000 A 
ATOM     18  C   UNL     1       0.096  11.554  20.826  0.00  0.00    +0.000 A 
ENDROOT
BRANCH   1  21
ATOM     19  C   UNL     1       1.532   8.087  20.504  0.00  0.00    +0.000 C 
ATOM     20  O   UNL     1       1.458   7.461  21.540  0.00  0.00    +0.000 OA
ATOM     21  N   UNL     1       1.039   9.367  20.255  0.00  0.00    +0.000 N 
ATOM     22  H   UNL     1       1.212   9.764  19.343  0.00  0.00    +0.000 HD
BRANCH  19  24
ATOM     23  C   UNL     1       3.012   6.425  19.399  0.00  0.00    +0.000 C 
ATOM     24  C   UNL     1       2.196   7.492  19.295  0.00  0.00    +0.000 C 
BRANCH  23  28
ATOM     25  C   UNL     1       5.140   4.370  16.259  0.00  0.00    +0.000 A 
ATOM     26  C   UNL     1       5.162   5.768  16.355  0.00  0.00    +0.000 A 
ATOM     27  C   UNL     1       4.446   6.435  17.354  0.00  0.00    +0.000 A 
ATOM     28  C   UNL     1       3.646   5.722  18.262  0.00  0.00    +0.000 A 
ATOM     29  C   UNL     1       3.573   4.332  18.111  0.00  0.00    +0.000 A 
ATOM     30  C   UNL     1       4.297   3.646  17.115  0.00  0.00    +0.000 A 
BRANCH  25  32
ATOM     31  C   UNL     1       6.635   4.529  14.424  0.00  0.00    +0.000 C 
ATOM     32  O   UNL     1       5.907   3.706  15.339  0.00  0.00    +0.000 OA
ENDBRANCH  25  32
BRANCH  30  33
ATOM     33  O   UNL     1       4.074   2.294  17.170  0.00  0.00    +0.000 OA
ATOM     34  C   UNL     1       3.323   1.754  18.246  0.00  0.00    +0.000 C 
ENDBRANCH  30  33
ENDBRANCH  23  28
ENDBRANCH  19  24
ENDBRANCH   1  21
TORSDOF 5
ENDMDL
MODEL 6
REMARK VINA RESULT:      -7.7      2.072      3.224
REMARK  Name = 
REMARK  9 active torsions:
REMARK  status: ('A' for Active; 'I' for Inactive)
REMARK    1  A    between atoms: C_1  and  O_2
REMARK    2  A    between atoms: O_2  and  C_3
REMARK    3  A    between atoms: C_6  and  C_7
REMARK    4  A    between atoms: C_8  and  C_9
REMARK    5  A    between atoms: N_11  and  C_12
REMARK    6  A    between atoms: N_21  and  C_22
REMARK    7  A    between atoms: C_26  and  C_27
REMARK    8  A    between atoms: C_31  and  O_32
REMARK    9  A    between atoms: O_32  and  C_33
REMARK                            x       y       z     vdW  Elec       q    Type
REMARK                         _______ _______ _______ _____ _____    ______ ____
ROOT
ATOM      1  C   UNL     1      -0.357  11.307  18.941  0.00  0.00    +0.000 A 
ATOM      2  C   UNL     1      -0.041  12.395  19.751  0.00  0.00    +0.000 A 
ATOM      3  C   UNL     1      -1.045  13.232  20.231  0.00  0.00    +0.000 A 
ATOM      4  C   UNL     1      -2.376  13.034  19.919  0.00  0.00    +0.000 A 
ATOM      5  N   UNL     1      -3.293  13.781  20.548  0.00  0.00    +0.000 NA
ATOM      6  C   UNL     1      -4.583  13.598  20.228  0.00  0.00    +0.000 A 
ATOM      7  N   UNL     1      -5.504  13.508  21.251  0.00  0.00    +0.000 N 
ATOM      8  C   UNL     1      -6.939  13.516  20.962  0.00  0.00    +0.000 C 
ATOM      9  C   UNL     1      -7.670  13.985  22.243  0.00  0.00    +0.000 C 
ATOM     10  N   UNL     1      -7.288  13.226  23.459  0.00  0.00    +0.000 NA
ATOM     11  C   UNL     1      -7.916  13.773  24.651  0.00  0.00    +0.000 C 
ATOM     12  C   UNL     1      -5.818  13.106  23.616  0.00  0.00    +0.000 C 
ATOM     13  C   UNL     1      -5.169  12.562  22.331  0.00  0.00    +0.000 C 
ATOM     14  C   UNL     1      -4.879  13.098  18.991  0.00  0.00    +0.000 A 
ATOM     15  C   UNL     1      -4.143  11.942  18.769  0.00  0.00    +0.000 A 
ATOM     16  C   UNL     1      -4.969  10.681  18.794  0.00  0.00    +0.000 C 
ATOM     17  C   UNL     1      -2.745  11.989  19.049  0.00  0.00    +0.000 A 
ATOM     18  C   UNL     1      -1.715  11.101  18.599  0.00  0.00    +0.000 A 
ENDROOT
BRANCH   1  21
ATOM     19  C   UNL     1       1.222   9.349  19.138  0.00  0.00    +0.000 C 
ATOM     20  O   UNL     1       1.048   9.037  20.296  0.00  0.00    +0.000 OA
ATOM     21  N   UNL     1       0.629  10.408  18.451  0.00  0.00    +0.000 N 
ATOM     22  H   UNL     1       0.906  10.555  17.491  0.00  0.00    +0.000 HD
BRANCH  19  24
ATOM     23  C   UNL     1       2.516   7.301  18.586  0.00  0.00    +0.000 C 
ATOM     24  C   UNL     1       2.149   8.556  18.261  0.00  0.00    +0.000 C 
BRANCH  23  28
ATOM     25  C   UNL     1       5.196   4.732  16.388  0.00  0.00    +0.000 A 
ATOM     26  C   UNL     1       5.280   6.127  16.283  0.00  0.00    +0.000 A 
ATOM     27  C   UNL     1       4.389   6.958  16.970  0.00  0.00    +0.000 A 
ATOM     28  C   UNL     1       3.356   6.415  17.751  0.00  0.00    +0.000 A 
ATOM     29  C   UNL     1       3.237   5.021  17.790  0.00  0.00    +0.000 A 
ATOM     30  C   UNL     1       4.132   4.171  17.110  0.00  0.00    +0.000 A 
BRANCH  25  32
ATOM     31  C   UNL     1       5.993   3.772  14.371  0.00  0.00    +0.000 C 
ATOM     32  O   UNL     1       6.116   3.915  15.787  0.00  0.00    +0.000 OA
ENDBRANCH  25  32
BRANCH  30  33
ATOM     33  O   UNL     1       3.821   2.849  17.305  0.00  0.00    +0.000 OA
ATOM     34  C   UNL     1       2.590   2.506  17.922  0.00  0.00    +0.000 C 
ENDBRANCH  30  33
ENDBRANCH  23  28
ENDBRANCH  19  24
ENDBRANCH   1  21
TORSDOF 5
ENDMDL
MODEL 7
REMARK VINA RESULT:      -7.7      2.408      3.906
REMARK  Name = 
REMARK  9 active torsions:
REMARK  status: ('A' for Active; 'I' for Inactive)
REMARK    1  A    between atoms: C_1  and  O_2
REMARK    2  A    between atoms: O_2  and  C_3
REMARK    3  A    between atoms: C_6  and  C_7
REMARK    4  A    between atoms: C_8  and  C_9
REMARK    5  A    between atoms: N_11  and  C_12
REMARK    6  A    between atoms: N_21  and  C_22
REMARK    7  A    between atoms: C_26  and  C_27
REMARK    8  A    between atoms: C_31  and  O_32
REMARK    9  A    between atoms: O_32  and  C_33
REMARK                            x       y       z     vdW  Elec       q    Type
REMARK                         _______ _______ _______ _____ _____    ______ ____
ROOT
ATOM      1  C   UNL     1      -0.225  11.534  19.078  0.00  0.00    +0.000 A 
ATOM      2  C   UNL     1      -0.106  12.823  18.567  0.00  0.00    +0.000 A 
ATOM      3  C   UNL     1      -0.714  13.898  19.211  0.00  0.00    +0.000 A 
ATOM      4  C   UNL     1      -1.462  13.734  20.360  0.00  0.00    +0.000 A 
ATOM      5  N   UNL     1      -1.877  14.830  21.009  0.00  0.00    +0.000 NA
ATOM      6  C   UNL     1      -2.619  14.667  22.115  0.00  0.00    +0.000 A 
ATOM      7  N   UNL     1      -2.311  15.420  23.227  0.00  0.00    +0.000 N 
ATOM      8  C   UNL     1      -3.206  15.437  24.386  0.00  0.00    +0.000 C 
ATOM      9  C   UNL     1      -2.931  16.743  25.168  0.00  0.00    +0.000 C 
ATOM     10  N   UNL     1      -1.498  16.956  25.490  0.00  0.00    +0.000 NA
ATOM     11  C   UNL     1      -1.277  18.245  26.127  0.00  0.00    +0.000 C 
ATOM     12  C   UNL     1      -0.617  16.764  24.313  0.00  0.00    +0.000 C 
ATOM     13  C   UNL     1      -0.893  15.413  23.631  0.00  0.00    +0.000 C 
ATOM     14  C   UNL     1      -3.342  13.514  22.244  0.00  0.00    +0.000 A 
ATOM     15  C   UNL     1      -2.513  12.420  22.036  0.00  0.00    +0.000 A 
ATOM     16  C   UNL     1      -2.210  11.639  23.289  0.00  0.00    +0.000 C 
ATOM     17  C   UNL     1      -1.672  12.443  20.884  0.00  0.00    +0.000 A 
ATOM     18  C   UNL     1      -1.004  11.348  20.246  0.00  0.00    +0.000 A 
ENDROOT
BRANCH   1  21
ATOM     19  C   UNL     1       1.723  10.311  18.042  0.00  0.00    +0.000 C 
ATOM     20  O   UNL     1       2.566  11.183  18.053  0.00  0.00    +0.000 OA
ATOM     21  N   UNL     1       0.401  10.410  18.472  0.00  0.00    +0.000 N 
ATOM     22  H   UNL     1      -0.187   9.596  18.366  0.00  0.00    +0.000 HD
BRANCH  19  24
ATOM     23  C   UNL     1       2.509   7.977  18.375  0.00  0.00    +0.000 C 
ATOM     24  C   UNL     1       2.053   8.933  17.542  0.00  0.00    +0.000 C 
BRANCH  23  28
ATOM     25  C   UNL     1       3.443   3.845  17.564  0.00  0.00    +0.000 A 
ATOM     26  C   UNL     1       4.385   4.858  17.342  0.00  0.00    +0.000 A 
ATOM     27  C   UNL     1       4.070   6.201  17.574  0.00  0.00    +0.000 A 
ATOM     28  C   UNL     1       2.784   6.575  17.995  0.00  0.00    +0.000 A 
ATOM     29  C   UNL     1       1.829   5.561  18.143  0.00  0.00    +0.000 A 
ATOM     30  C   UNL     1       2.134   4.204  17.921  0.00  0.00    +0.000 A 
BRANCH  25  32
ATOM     31  C   UNL     1       3.962   1.793  18.636  0.00  0.00    +0.000 C 
ATOM     32  O   UNL     1       3.771   2.523  17.422  0.00  0.00    +0.000 OA
ENDBRANCH  25  32
BRANCH  30  33
ATOM     33  O   UNL     1       1.045   3.399  18.138  0.00  0.00    +0.000 OA
ATOM     34  C   UNL     1       0.684   3.057  19.467  0.00  0.00    +0.000 C 
ENDBRANCH  30  33
ENDBRANCH  23  28
ENDBRANCH  19  24
ENDBRANCH   1  21
TORSDOF 5
ENDMDL
MODEL 8
REMARK VINA RESULT:      -7.7      1.529      1.689
REMARK  Name = 
REMARK  9 active torsions:
REMARK  status: ('A' for Active; 'I' for Inactive)
REMARK    1  A    between atoms: C_1  and  O_2
REMARK    2  A    between atoms: O_2  and  C_3
REMARK    3  A    between atoms: C_6  and  C_7
REMARK    4  A    between atoms: C_8  and  C_9
REMARK    5  A    between atoms: N_11  and  C_12
REMARK    6  A    between atoms: N_21  and  C_22
REMARK    7  A    between atoms: C_26  and  C_27
REMARK    8  A    between atoms: C_31  and  O_32
REMARK    9  A    between atoms: O_32  and  C_33
REMARK                            x       y       z     vdW  Elec       q    Type
REMARK                         _______ _______ _______ _____ _____    ______ ____
ROOT
ATOM      1  C   UNL     1       0.967   9.316  21.537  0.00  0.00    +0.000 A 
ATOM      2  C   UNL     1       0.201   8.953  22.643  0.00  0.00    +0.000 A 
ATOM      3  C   UNL     1      -0.692   9.858  23.211  0.00  0.00    +0.000 A 
ATOM      4  C   UNL     1      -0.846  11.140  22.721  0.00  0.00    +0.000 A 
ATOM      5  N   UNL     1      -1.837  11.893  23.216  0.00  0.00    +0.000 NA
ATOM      6  C   UNL     1      -1.972  13.145  22.750  0.00  0.00    +0.000 A 
ATOM      7  N   UNL     1      -3.235  13.587  22.418  0.00  0.00    +0.000 N 
ATOM      8  C   UNL     1      -3.471  14.997  22.104  0.00  0.00    +0.000 C 
ATOM      9  C   UNL     1      -4.971  15.285  22.352  0.00  0.00    +0.000 C 
ATOM     10  N   UNL     1      -5.882  14.337  21.663  0.00  0.00    +0.000 NA
ATOM     11  C   UNL     1      -7.272  14.580  22.014  0.00  0.00    +0.000 C 
ATOM     12  C   UNL     1      -5.498  12.922  21.881  0.00  0.00    +0.000 C 
ATOM     13  C   UNL     1      -4.014  12.693  21.542  0.00  0.00    +0.000 C 
ATOM     14  C   UNL     1      -0.869  13.766  22.235  0.00  0.00    +0.000 A 
ATOM     15  C   UNL     1      -0.273  12.944  21.287  0.00  0.00    +0.000 A 
ATOM     16  C   UNL     1      -0.444  13.428  19.870  0.00  0.00    +0.000 C 
ATOM     17  C   UNL     1      -0.049  11.582  21.647  0.00  0.00    +0.000 A 
ATOM     18  C   UNL     1       0.832  10.632  21.035  0.00  0.00    +0.000 A 
ENDROOT
BRANCH   1  21
ATOM     19  C   UNL     1       1.668   7.064  20.641  0.00  0.00    +0.000 C 
ATOM     20  O   UNL     1       0.709   6.391  20.952  0.00  0.00    +0.000 OA
ATOM     21  N   UNL     1       1.870   8.418  20.905  0.00  0.00    +0.000 N 
ATOM     22  H   UNL     1       2.743   8.827  20.605  0.00  0.00    +0.000 HD
BRANCH  19  24
ATOM     23  C   UNL     1       3.017   6.776  18.574  0.00  0.00    +0.000 C 
ATOM     24  C   UNL     1       2.807   6.464  19.868  0.00  0.00    +0.000 C 
BRANCH  23  28
ATOM     25  C   UNL     1       6.454   5.693  16.203  0.00  0.00    +0.000 A 
ATOM     26  C   UNL     1       5.312   6.250  15.612  0.00  0.00    +0.000 A 
ATOM     27  C   UNL     1       4.186   6.571  16.377  0.00  0.00    +0.000 A 
ATOM     28  C   UNL     1       4.153   6.301  17.755  0.00  0.00    +0.000 A 
ATOM     29  C   UNL     1       5.270   5.676  18.321  0.00  0.00    +0.000 A 
ATOM     30  C   UNL     1       6.415   5.355  17.564  0.00  0.00    +0.000 A 
BRANCH  25  32
ATOM     31  C   UNL     1       7.395   4.868  14.188  0.00  0.00    +0.000 C 
ATOM     32  O   UNL     1       7.590   5.456  15.476  0.00  0.00    +0.000 OA
ENDBRANCH  25  32
BRANCH  30  33
ATOM     33  O   UNL     1       7.380   4.761  18.336  0.00  0.00    +0.000 OA
ATOM     34  C   UNL     1       7.869   5.436  19.484  0.00  0.00    +0.000 C 
ENDBRANCH  30  33
ENDBRANCH  23  28
ENDBRANCH  19  24
ENDBRANCH   1  21
TORSDOF 5
ENDMDL
MODEL 9
REMARK VINA RESULT:      -7.5      2.143      3.434
REMARK  Name = 
REMARK  9 active torsions:
REMARK  status: ('A' for Active; 'I' for Inactive)
REMARK    1  A    between atoms: C_1  and  O_2
REMARK    2  A    between atoms: O_2  and  C_3
REMARK    3  A    between atoms: C_6  and  C_7
REMARK    4  A    between atoms: C_8  and  C_9
REMARK    5  A    between atoms: N_11  and  C_12
REMARK    6  A    between atoms: N_21  and  C_22
REMARK    7  A    between atoms: C_26  and  C_27
REMARK    8  A    between atoms: C_31  and  O_32
REMARK    9  A    between atoms: O_32  and  C_33
REMARK                            x       y       z     vdW  Elec       q    Type
REMARK                         _______ _______ _______ _____ _____    ______ ____
ROOT
ATOM      1  C   UNL     1      -0.316  11.446  19.208  0.00  0.00    +0.000 A 
ATOM      2  C   UNL     1      -0.080  12.698  18.645  0.00  0.00    +0.000 A 
ATOM      3  C   UNL     1      -0.654  13.840  19.199  0.00  0.00    +0.000 A 
ATOM      4  C   UNL     1      -1.480  13.782  20.305  0.00  0.00    +0.000 A 
ATOM      5  N   UNL     1      -1.859  14.934  20.874  0.00  0.00    +0.000 NA
ATOM      6  C   UNL     1      -2.677  14.873  21.936  0.00  0.00    +0.000 A 
ATOM      7  N   UNL     1      -2.388  15.661  23.030  0.00  0.00    +0.000 N 
ATOM      8  C   UNL     1      -3.348  15.793  24.127  0.00  0.00    +0.000 C 
ATOM      9  C   UNL     1      -3.035  17.117  24.864  0.00  0.00    +0.000 C 
ATOM     10  N   UNL     1      -1.613  17.255  25.266  0.00  0.00    +0.000 NA
ATOM     11  C   UNL     1      -1.347  18.557  25.855  0.00  0.00    +0.000 C 
ATOM     12  C   UNL     1      -0.677  16.949  24.158  0.00  0.00    +0.000 C 
ATOM     13  C   UNL     1      -1.000  15.584  23.523  0.00  0.00    +0.000 C 
ATOM     14  C   UNL     1      -3.481  13.776  22.073  0.00  0.00    +0.000 A 
ATOM     15  C   UNL     1      -2.715  12.623  21.969  0.00  0.00    +0.000 A 
ATOM     16  C   UNL     1      -2.541  11.889  23.274  0.00  0.00    +0.000 C 
ATOM     17  C   UNL     1      -1.806  12.535  20.873  0.00  0.00    +0.000 A 
ATOM     18  C   UNL     1      -1.174  11.369  20.331  0.00  0.00    +0.000 A 
ENDROOT
BRANCH   1  21
ATOM     19  C   UNL     1       1.546  10.109  18.153  0.00  0.00    +0.000 C 
ATOM     20  O   UNL     1       2.368  10.980  17.966  0.00  0.00    +0.000 OA
ATOM     21  N   UNL     1       0.270  10.256  18.695  0.00  0.00    +0.000 N 
ATOM     22  H   UNL     1      -0.310   9.432  18.756  0.00  0.00    +0.000 HD
BRANCH  19  24
ATOM     23  C   UNL     1       2.726   7.956  18.536  0.00  0.00    +0.000 C 
ATOM     24  C   UNL     1       1.852   8.680  17.809  0.00  0.00    +0.000 C 
BRANCH  23  28
ATOM     25  C   UNL     1       3.391   3.780  17.686  0.00  0.00    +0.000 A 
ATOM     26  C   UNL     1       2.396   4.187  18.585  0.00  0.00    +0.000 A 
ATOM     27  C   UNL     1       2.203   5.540  18.884  0.00  0.00    +0.000 A 
ATOM     28  C   UNL     1       3.033   6.525  18.325  0.00  0.00    +0.000 A 
ATOM     29  C   UNL     1       4.070   6.100  17.487  0.00  0.00    +0.000 A 
ATOM     30  C   UNL     1       4.271   4.742  17.169  0.00  0.00    +0.000 A 
BRANCH  25  32
ATOM     31  C   UNL     1       3.451   1.514  18.385  0.00  0.00    +0.000 C 
ATOM     32  O   UNL     1       3.529   2.467  17.323  0.00  0.00    +0.000 OA
ENDBRANCH  25  32
BRANCH  30  33
ATOM     33  O   UNL     1       5.339   4.573  16.325  0.00  0.00    +0.000 OA
ATOM     34  C   UNL     1       5.537   5.489  15.259  0.00  0.00    +0.000 C 
ENDBRANCH  30  33
ENDBRANCH  23  28
ENDBRANCH  19  24
ENDBRANCH   1  21
TORSDOF 5
ENDMDL
