MODEL 1
REMARK VINA RESULT:      -7.6      0.000      0.000
REMARK  Name = 
REMARK  9 active torsions:
REMARK  status: ('A' for Active; 'I' for Inactive)
REMARK    1  A    between atoms: C_1  and  C_2
REMARK    2  A    between atoms: C_2  and  O_3
REMARK    3  A    between atoms: C_2  and  C_11
REMARK    4  A    between atoms: O_3  and  C_4
REMARK    5  A    between atoms: N_13  and  C_14
REMARK    6  A    between atoms: C_14  and  C_15
REMARK    7  A    between atoms: C_15  and  C_16
REMARK    8  A    between atoms: C_16  and  C_17
REMARK    9  A    between atoms: C_17  and  C_18
REMARK                            x       y       z     vdW  Elec       q    Type
REMARK                         _______ _______ _______ _____ _____    ______ ____
ROOT
ATOM      1  C   UNL     1       5.519   6.101  16.193  0.00  0.00    +0.000 C 
ATOM      2  O   UNL     1       5.388   6.753  15.158  0.00  0.00    +0.000 OA
ATOM      3  N   UNL     1       6.046   6.651  17.342  0.00  0.00    +0.000 N 
ATOM      4  H   UNL     1       6.124   6.055  18.160  0.00  0.00    +0.000 HD
ENDROOT
BRANCH   1   6
ATOM      5  C   UNL     1       6.005   3.756  15.527  0.00  0.00    +0.000 C 
ATOM      6  C   UNL     1       5.035   4.636  16.318  0.00  0.00    +0.000 C 
BRANCH   6   7
ATOM      7  O   UNL     1       4.981   4.246  17.697  0.00  0.00    +0.000 OA
BRANCH   7   8
ATOM      8  C   UNL     1       3.824   3.700  18.182  0.00  0.00    +0.000 A 
ATOM      9  C   UNL     1       2.885   2.977  17.441  0.00  0.00    +0.000 A 
ATOM     10  C   UNL     1       1.765   2.415  18.065  0.00  0.00    +0.000 A 
ATOM     11  C   UNL     1       1.563   2.589  19.432  0.00  0.00    +0.000 A 
ATOM     12  C   UNL     1       2.490   3.317  20.168  0.00  0.00    +0.000 A 
ATOM     13 CL   UNL     1       2.240   3.550  21.858  0.00  0.00    +0.000 Cl
ATOM     14  C   UNL     1       3.621   3.861  19.555  0.00  0.00    +0.000 A 
ENDBRANCH   7   8
ENDBRANCH   6   7
ENDBRANCH   1   6
BRANCH   3  15
ATOM     15  C   UNL     1       6.520   8.019  17.391  0.00  0.00    +0.000 C 
BRANCH  15  16
ATOM     16  C   UNL     1       7.964   8.125  17.887  0.00  0.00    +0.000 C 
BRANCH  16  17
ATOM     17  C   UNL     1       8.406   9.582  17.993  0.00  0.00    +0.000 C 
BRANCH  17  18
ATOM     18  C   UNL     1       9.136   9.880  19.306  0.00  0.00    +0.000 C 
BRANCH  18  19
ATOM     19  C   UNL     1      10.100  11.021  19.091  0.00  0.00    +0.000 A 
ATOM     20  C   UNL     1      10.583  11.755  20.181  0.00  0.00    +0.000 A 
ATOM     21  C   UNL     1      11.380  12.882  19.975  0.00  0.00    +0.000 A 
ATOM     22  C   UNL     1      11.699  13.284  18.679  0.00  0.00    +0.000 A 
ATOM     23  C   UNL     1      11.233  12.553  17.588  0.00  0.00    +0.000 A 
ATOM     24  C   UNL     1      10.437  11.425  17.792  0.00  0.00    +0.000 A 
ENDBRANCH  18  19
ENDBRANCH  17  18
ENDBRANCH  16  17
ENDBRANCH  15  16
ENDBRANCH   3  15
TORSDOF 8
ENDMDL
MODEL 2
REMARK VINA RESULT:      -7.5      1.018      1.038
REMARK  Name = 
REMARK  9 active torsions:
REMARK  status: ('A' for Active; 'I' for Inactive)
REMARK    1  A    between atoms: C_1  and  C_2
REMARK    2  A    between atoms: C_2  and  O_3
REMARK    3  A    between atoms: C_2  and  C_11
REMARK    4  A    between atoms: O_3  and  C_4
REMARK    5  A    between atoms: N_13  and  C_14
REMARK    6  A    between atoms: C_14  and  C_15
REMARK    7  A    between atoms: C_15  and  C_16
REMARK    8  A    between atoms: C_16  and  C_17
REMARK    9  A    between atoms: C_17  and  C_18
REMARK                            x       y       z     vdW  Elec       q    Type
REMARK                         _______ _______ _______ _____ _____    ______ ____
ROOT
ATOM      1  C   UNL     1       6.613   5.696  16.719  0.00  0.00    +0.000 C 
ATOM      2  O   UNL     1       7.500   5.783  15.872  0.00  0.00    +0.000 OA
ATOM      3  N   UNL     1       6.690   6.354  17.928  0.00  0.00    +0.000 N 
ATOM      4  H   UNL     1       5.920   6.239  18.580  0.00  0.00    +0.000 HD
ENDROOT
BRANCH   1   6
ATOM      5  C   UNL     1       5.418   4.233  15.104  0.00  0.00    +0.000 C 
ATOM      6  C   UNL     1       5.304   4.908  16.472  0.00  0.00    +0.000 C 
BRANCH   6   7
ATOM      7  O   UNL     1       5.099   3.945  17.515  0.00  0.00    +0.000 OA
BRANCH   7   8
ATOM      8  C   UNL     1       3.832   3.753  17.994  0.00  0.00    +0.000 A 
ATOM      9  C   UNL     1       2.961   2.726  17.622  0.00  0.00    +0.000 A 
ATOM     10  C   UNL     1       1.706   2.599  18.229  0.00  0.00    +0.000 A 
ATOM     11  C   UNL     1       1.302   3.513  19.198  0.00  0.00    +0.000 A 
ATOM     12  C   UNL     1       2.162   4.543  19.562  0.00  0.00    +0.000 A 
ATOM     13 CL   UNL     1       1.663   5.688  20.751  0.00  0.00    +0.000 Cl
ATOM     14  C   UNL     1       3.424   4.660  18.976  0.00  0.00    +0.000 A 
ENDBRANCH   7   8
ENDBRANCH   6   7
ENDBRANCH   1   6
BRANCH   3  15
ATOM     15  C   UNL     1       7.841   7.153  18.296  0.00  0.00    +0.000 C 
BRANCH  15  16
ATOM     16  C   UNL     1       8.060   8.339  17.354  0.00  0.00    +0.000 C 
BRANCH  16  17
ATOM     17  C   UNL     1       8.126   9.654  18.127  0.00  0.00    +0.000 C 
BRANCH  17  18
ATOM     18  C   UNL     1       9.232   9.657  19.186  0.00  0.00    +0.000 C 
BRANCH  18  19
ATOM     19  C   UNL     1       9.980  10.967  19.119  0.00  0.00    +0.000 A 
ATOM     20  C   UNL     1      10.311  11.654  20.293  0.00  0.00    +0.000 A 
ATOM     21  C   UNL     1      10.897  12.919  20.228  0.00  0.00    +0.000 A 
ATOM     22  C   UNL     1      11.154  13.507  18.991  0.00  0.00    +0.000 A 
ATOM     23  C   UNL     1      10.839  12.826  17.817  0.00  0.00    +0.000 A 
ATOM     24  C   UNL     1      10.254  11.561  17.879  0.00  0.00    +0.000 A 
ENDBRANCH  18  19
ENDBRANCH  17  18
ENDBRANCH  16  17
ENDBRANCH  15  16
ENDBRANCH   3  15
TORSDOF 8
ENDMDL
MODEL 3
REMARK VINA RESULT:      -7.4      1.193      1.573
REMARK  Name = 
REMARK  9 active torsions:
REMARK  status: ('A' for Active; 'I' for Inactive)
REMARK    1  A    between atoms: C_1  and  C_2
REMARK    2  A    between atoms: C_2  and  O_3
REMARK    3  A    between atoms: C_2  and  C_11
REMARK    4  A    between atoms: O_3  and  C_4
REMARK    5  A    between atoms: N_13  and  C_14
REMARK    6  A    between atoms: C_14  and  C_15
REMARK    7  A    between atoms: C_15  and  C_16
REMARK    8  A    between atoms: C_16  and  C_17
REMARK    9  A    between atoms: C_17  and  C_18
REMARK                            x       y       z     vdW  Elec       q    Type
REMARK                         _______ _______ _______ _____ _____    ______ ____
ROOT
ATOM      1  C   UNL     1       6.762   5.154  16.730  0.00  0.00    +0.000 C 
ATOM      2  O   UNL     1       7.847   4.691  16.380  0.00  0.00    +0.000 OA
ATOM      3  N   UNL     1       6.642   6.433  17.231  0.00  0.00    +0.000 N 
ATOM      4  H   UNL     1       5.716   6.751  17.499  0.00  0.00    +0.000 HD
ENDROOT
BRANCH   1   6
ATOM      5  C   UNL     1       5.578   3.464  15.346  0.00  0.00    +0.000 C 
ATOM      6  C   UNL     1       5.435   4.375  16.566  0.00  0.00    +0.000 C 
BRANCH   6   7
ATOM      7  O   UNL     1       5.153   3.620  17.752  0.00  0.00    +0.000 OA
BRANCH   7   8
ATOM      8  C   UNL     1       3.853   3.499  18.162  0.00  0.00    +0.000 A 
ATOM      9  C   UNL     1       2.960   2.497  17.772  0.00  0.00    +0.000 A 
ATOM     10  C   UNL     1       1.668   2.446  18.308  0.00  0.00    +0.000 A 
ATOM     11  C   UNL     1       1.250   3.409  19.223  0.00  0.00    +0.000 A 
ATOM     12  C   UNL     1       2.133   4.413  19.603  0.00  0.00    +0.000 A 
ATOM     13 CL   UNL     1       1.619   5.618  20.724  0.00  0.00    +0.000 Cl
ATOM     14  C   UNL     1       3.431   4.455  19.089  0.00  0.00    +0.000 A 
ENDBRANCH   7   8
ENDBRANCH   6   7
ENDBRANCH   1   6
BRANCH   3  15
ATOM     15  C   UNL     1       7.790   7.295  17.420  0.00  0.00    +0.000 C 
BRANCH  15  16
ATOM     16  C   UNL     1       7.397   8.723  17.807  0.00  0.00    +0.000 C 
BRANCH  16  17
ATOM     17  C   UNL     1       8.586   9.487  18.383  0.00  0.00    +0.000 C 
BRANCH  17  18
ATOM     18  C   UNL     1       8.705  10.904  17.815  0.00  0.00    +0.000 C 
BRANCH  18  19
ATOM     19  C   UNL     1       9.927  11.571  18.398  0.00  0.00    +0.000 A 
ATOM     20  C   UNL     1      10.849  12.213  17.562  0.00  0.00    +0.000 A 
ATOM     21  C   UNL     1      12.036  12.728  18.086  0.00  0.00    +0.000 A 
ATOM     22  C   UNL     1      12.311  12.604  19.446  0.00  0.00    +0.000 A 
ATOM     23  C   UNL     1      11.393  11.978  20.288  0.00  0.00    +0.000 A 
ATOM     24  C   UNL     1      10.206  11.463  19.767  0.00  0.00    +0.000 A 
ENDBRANCH  18  19
ENDBRANCH  17  18
ENDBRANCH  16  17
ENDBRANCH  15  16
ENDBRANCH   3  15
TORSDOF 8
ENDMDL
MODEL 4
REMARK VINA RESULT:      -7.4      4.757      8.003
REMARK  Name = 
REMARK  9 active torsions:
REMARK  status: ('A' for Active; 'I' for Inactive)
REMARK    1  A    between atoms: C_1  and  C_2
REMARK    2  A    between atoms: C_2  and  O_3
REMARK    3  A    between atoms: C_2  and  C_11
REMARK    4  A    between atoms: O_3  and  C_4
REMARK    5  A    between atoms: N_13  and  C_14
REMARK    6  A    between atoms: C_14  and  C_15
REMARK    7  A    between atoms: C_15  and  C_16
REMARK    8  A    between atoms: C_16  and  C_17
REMARK    9  A    between atoms: C_17  and  C_18
REMARK                            x       y       z     vdW  Elec       q    Type
REMARK                         _______ _______ _______ _____ _____    ______ ____
ROOT
ATOM      1  C   UNL     1       5.519   4.694  18.478  0.00  0.00    +0.000 C 
ATOM      2  O   UNL     1       5.286   5.436  19.431  0.00  0.00    +0.000 OA
ATOM      3  N   UNL     1       5.199   3.354  18.499  0.00  0.00    +0.000 N 
ATOM      4  H   UNL     1       5.419   2.801  17.677  0.00  0.00    +0.000 HD
ENDROOT
BRANCH   1   6
ATOM      5  C   UNL     1       7.288   6.140  17.497  0.00  0.00    +0.000 C 
ATOM      6  C   UNL     1       6.120   5.215  17.150  0.00  0.00    +0.000 C 
BRANCH   6   7
ATOM      7  O   UNL     1       6.548   4.116  16.334  0.00  0.00    +0.000 OA
BRANCH   7   8
ATOM      8  C   UNL     1       6.740   4.325  14.995  0.00  0.00    +0.000 A 
ATOM      9  C   UNL     1       7.704   5.160  14.425  0.00  0.00    +0.000 A 
ATOM     10  C   UNL     1       7.841   5.246  13.035  0.00  0.00    +0.000 A 
ATOM     11  C   UNL     1       7.000   4.514  12.201  0.00  0.00    +0.000 A 
ATOM     12  C   UNL     1       6.032   3.691  12.766  0.00  0.00    +0.000 A 
ATOM     13 CL   UNL     1       4.977   2.793  11.742  0.00  0.00    +0.000 Cl
ATOM     14  C   UNL     1       5.906   3.584  14.153  0.00  0.00    +0.000 A 
ENDBRANCH   7   8
ENDBRANCH   6   7
ENDBRANCH   1   6
BRANCH   3  15
ATOM     15  C   UNL     1       4.607   2.724  19.661  0.00  0.00    +0.000 C 
BRANCH  15  16
ATOM     16  C   UNL     1       3.263   2.061  19.352  0.00  0.00    +0.000 C 
BRANCH  16  17
ATOM     17  C   UNL     1       2.182   2.522  20.326  0.00  0.00    +0.000 C 
BRANCH  17  18
ATOM     18  C   UNL     1       1.105   3.372  19.648  0.00  0.00    +0.000 C 
BRANCH  18  19
ATOM     19  C   UNL     1       1.658   4.750  19.378  0.00  0.00    +0.000 A 
ATOM     20  C   UNL     1       1.771   5.685  20.415  0.00  0.00    +0.000 A 
ATOM     21  C   UNL     1       2.171   6.994  20.145  0.00  0.00    +0.000 A 
ATOM     22  C   UNL     1       2.460   7.380  18.837  0.00  0.00    +0.000 A 
ATOM     23  C   UNL     1       2.364   6.454  17.800  0.00  0.00    +0.000 A 
ATOM     24  C   UNL     1       1.964   5.144  18.067  0.00  0.00    +0.000 A 
ENDBRANCH  18  19
ENDBRANCH  17  18
ENDBRANCH  16  17
ENDBRANCH  15  16
ENDBRANCH   3  15
TORSDOF 8
ENDMDL
MODEL 5
REMARK VINA RESULT:      -7.4      4.980      8.269
REMARK  Name = 
REMARK  9 active torsions:
REMARK  status: ('A' for Active; 'I' for Inactive)
REMARK    1  A    between atoms: C_1  and  C_2
REMARK    2  A    between atoms: C_2  and  O_3
REMARK    3  A    between atoms: C_2  and  C_11
REMARK    4  A    between atoms: O_3  and  C_4
REMARK    5  A    between atoms: N_13  and  C_14
REMARK    6  A    between atoms: C_14  and  C_15
REMARK    7  A    between atoms: C_15  and  C_16
REMARK    8  A    between atoms: C_16  and  C_17
REMARK    9  A    between atoms: C_17  and  C_18
REMARK                            x       y       z     vdW  Elec       q    Type
REMARK                         _______ _______ _______ _____ _____    ______ ____
ROOT
ATOM      1  C   UNL     1       5.982   6.479  16.909  0.00  0.00    +0.000 C 
ATOM      2  O   UNL     1       6.278   7.593  16.479  0.00  0.00    +0.000 OA
ATOM      3  N   UNL     1       4.748   6.215  17.463  0.00  0.00    +0.000 N 
ATOM      4  H   UNL     1       4.571   5.272  17.797  0.00  0.00    +0.000 HD
ENDROOT
BRANCH   1   6
ATOM      5  C   UNL     1       7.150   4.710  18.206  0.00  0.00    +0.000 C 
ATOM      6  C   UNL     1       6.936   5.266  16.797  0.00  0.00    +0.000 C 
BRANCH   6   7
ATOM      7  O   UNL     1       6.378   4.274  15.924  0.00  0.00    +0.000 OA
BRANCH   7   8
ATOM      8  C   UNL     1       6.639   4.355  14.583  0.00  0.00    +0.000 A 
ATOM      9  C   UNL     1       7.577   5.197  13.979  0.00  0.00    +0.000 A 
ATOM     10  C   UNL     1       7.796   5.146  12.597  0.00  0.00    +0.000 A 
ATOM     11  C   UNL     1       7.062   4.268  11.804  0.00  0.00    +0.000 A 
ATOM     12  C   UNL     1       6.120   3.438  12.401  0.00  0.00    +0.000 A 
ATOM     13 CL   UNL     1       5.196   2.359  11.424  0.00  0.00    +0.000 Cl
ATOM     14  C   UNL     1       5.914   3.468  13.782  0.00  0.00    +0.000 A 
ENDBRANCH   7   8
ENDBRANCH   6   7
ENDBRANCH   1   6
BRANCH   3  15
ATOM     15  C   UNL     1       3.737   7.241  17.613  0.00  0.00    +0.000 C 
BRANCH  15  16
ATOM     16  C   UNL     1       2.449   6.711  18.248  0.00  0.00    +0.000 C 
BRANCH  16  17
ATOM     17  C   UNL     1       2.598   6.566  19.761  0.00  0.00    +0.000 C 
BRANCH  17  18
ATOM     18  C   UNL     1       1.786   5.395  20.320  0.00  0.00    +0.000 C 
BRANCH  18  19
ATOM     19  C   UNL     1       2.255   4.113  19.676  0.00  0.00    +0.000 A 
ATOM     20  C   UNL     1       3.590   3.706  19.798  0.00  0.00    +0.000 A 
ATOM     21  C   UNL     1       4.052   2.586  19.106  0.00  0.00    +0.000 A 
ATOM     22  C   UNL     1       3.185   1.865  18.287  0.00  0.00    +0.000 A 
ATOM     23  C   UNL     1       1.852   2.254  18.169  0.00  0.00    +0.000 A 
ATOM     24  C   UNL     1       1.388   3.374  18.860  0.00  0.00    +0.000 A 
ENDBRANCH  18  19
ENDBRANCH  17  18
ENDBRANCH  16  17
ENDBRANCH  15  16
ENDBRANCH   3  15
TORSDOF 8
ENDMDL
MODEL 6
REMARK VINA RESULT:      -7.2      1.388      1.563
REMARK  Name = 
REMARK  9 active torsions:
REMARK  status: ('A' for Active; 'I' for Inactive)
REMARK    1  A    between atoms: C_1  and  C_2
REMARK    2  A    between atoms: C_2  and  O_3
REMARK    3  A    between atoms: C_2  and  C_11
REMARK    4  A    between atoms: O_3  and  C_4
REMARK    5  A    between atoms: N_13  and  C_14
REMARK    6  A    between atoms: C_14  and  C_15
REMARK    7  A    between atoms: C_15  and  C_16
REMARK    8  A    between atoms: C_16  and  C_17
REMARK    9  A    between atoms: C_17  and  C_18
REMARK                            x       y       z     vdW  Elec       q    Type
REMARK                         _______ _______ _______ _____ _____    ______ ____
ROOT
ATOM      1  C   UNL     1       5.858   5.439  17.978  0.00  0.00    +0.000 C 
ATOM      2  O   UNL     1       5.663   5.493  19.191  0.00  0.00    +0.000 OA
ATOM      3  N   UNL     1       6.883   6.134  17.372  0.00  0.00    +0.000 N 
ATOM      4  H   UNL     1       6.986   6.043  16.366  0.00  0.00    +0.000 HD
ENDROOT
BRANCH   1   6
ATOM      5  C   UNL     1       5.891   4.190  15.830  0.00  0.00    +0.000 C 
ATOM      6  C   UNL     1       5.023   4.533  17.042  0.00  0.00    +0.000 C 
BRANCH   6   7
ATOM      7  O   UNL     1       4.606   3.350  17.738  0.00  0.00    +0.000 OA
BRANCH   7   8
ATOM      8  C   UNL     1       3.348   3.312  18.277  0.00  0.00    +0.000 A 
ATOM      9  C   UNL     1       2.152   3.512  17.583  0.00  0.00    +0.000 A 
ATOM     10  C   UNL     1       0.920   3.389  18.236  0.00  0.00    +0.000 A 
ATOM     11  C   UNL     1       0.874   3.085  19.594  0.00  0.00    +0.000 A 
ATOM     12  C   UNL     1       2.063   2.896  20.288  0.00  0.00    +0.000 A 
ATOM     13 CL   UNL     1       2.016   2.535  21.973  0.00  0.00    +0.000 Cl
ATOM     14  C   UNL     1       3.295   2.996  19.637  0.00  0.00    +0.000 A 
ENDBRANCH   7   8
ENDBRANCH   6   7
ENDBRANCH   1   6
BRANCH   3  15
ATOM     15  C   UNL     1       7.768   7.004  18.118  0.00  0.00    +0.000 C 
BRANCH  15  16
ATOM     16  C   UNL     1       8.168   8.254  17.330  0.00  0.00    +0.000 C 
BRANCH  16  17
ATOM     17  C   UNL     1       7.980   9.518  18.165  0.00  0.00    +0.000 C 
BRANCH  17  18
ATOM     18  C   UNL     1       9.217   9.858  19.001  0.00  0.00    +0.000 C 
BRANCH  18  19
ATOM     19  C   UNL     1       9.805  11.159  18.512  0.00  0.00    +0.000 A 
ATOM     20  C   UNL     1       8.977  12.153  17.976  0.00  0.00    +0.000 A 
ATOM     21  C   UNL     1       9.530  13.305  17.416  0.00  0.00    +0.000 A 
ATOM     22  C   UNL     1      10.913  13.473  17.388  0.00  0.00    +0.000 A 
ATOM     23  C   UNL     1      11.745  12.495  17.931  0.00  0.00    +0.000 A 
ATOM     24  C   UNL     1      11.194  11.342  18.491  0.00  0.00    +0.000 A 
ENDBRANCH  18  19
ENDBRANCH  17  18
ENDBRANCH  16  17
ENDBRANCH  15  16
ENDBRANCH   3  15
TORSDOF 8
ENDMDL
MODEL 7
REMARK VINA RESULT:      -7.2      1.456      1.850
REMARK  Name = 
REMARK  9 active torsions:
REMARK  status: ('A' for Active; 'I' for Inactive)
REMARK    1  A    between atoms: C_1  and  C_2
REMARK    2  A    between atoms: C_2  and  O_3
REMARK    3  A    between atoms: C_2  and  C_11
REMARK    4  A    between atoms: O_3  and  C_4
REMARK    5  A    between atoms: N_13  and  C_14
REMARK    6  A    between atoms: C_14  and  C_15
REMARK    7  A    between atoms: C_15  and  C_16
REMARK    8  A    between atoms: C_16  and  C_17
REMARK    9  A    between atoms: C_17  and  C_18
REMARK                            x       y       z     vdW  Elec       q    Type
REMARK                         _______ _______ _______ _____ _____    ______ ____
ROOT
ATOM      1  C   UNL     1       6.574   5.760  16.403  0.00  0.00    +0.000 C 
ATOM      2  O   UNL     1       7.402   5.488  15.535  0.00  0.00    +0.000 OA
ATOM      3  N   UNL     1       6.663   6.906  17.163  0.00  0.00    +0.000 N 
ATOM      4  H   UNL     1       5.944   7.069  17.861  0.00  0.00    +0.000 HD
ENDROOT
BRANCH   1   6
ATOM      5  C   UNL     1       5.392   3.685  15.715  0.00  0.00    +0.000 C 
ATOM      6  C   UNL     1       5.325   4.884  16.663  0.00  0.00    +0.000 C 
BRANCH   6   7
ATOM      7  O   UNL     1       5.289   4.465  18.034  0.00  0.00    +0.000 OA
BRANCH   7   8
ATOM      8  C   UNL     1       4.102   4.528  18.711  0.00  0.00    +0.000 A 
ATOM      9  C   UNL     1       3.723   5.527  19.612  0.00  0.00    +0.000 A 
ATOM     10  C   UNL     1       2.453   5.514  20.200  0.00  0.00    +0.000 A 
ATOM     11  C   UNL     1       1.557   4.489  19.908  0.00  0.00    +0.000 A 
ATOM     12  C   UNL     1       1.935   3.488  19.020  0.00  0.00    +0.000 A 
ATOM     13 CL   UNL     1       0.837   2.207  18.665  0.00  0.00    +0.000 Cl
ATOM     14  C   UNL     1       3.193   3.509  18.414  0.00  0.00    +0.000 A 
ENDBRANCH   7   8
ENDBRANCH   6   7
ENDBRANCH   1   6
BRANCH   3  15
ATOM     15  C   UNL     1       7.761   7.840  17.019  0.00  0.00    +0.000 C 
BRANCH  15  16
ATOM     16  C   UNL     1       8.253   8.384  18.363  0.00  0.00    +0.000 C 
BRANCH  16  17
ATOM     17  C   UNL     1       8.400   9.903  18.324  0.00  0.00    +0.000 C 
BRANCH  17  18
ATOM     18  C   UNL     1       9.562  10.402  19.186  0.00  0.00    +0.000 C 
BRANCH  18  19
ATOM     19  C   UNL     1      10.115  11.672  18.587  0.00  0.00    +0.000 A 
ATOM     20  C   UNL     1       9.323  12.825  18.514  0.00  0.00    +0.000 A 
ATOM     21  C   UNL     1       9.791  13.962  17.855  0.00  0.00    +0.000 A 
ATOM     22  C   UNL     1      11.053  13.956  17.264  0.00  0.00    +0.000 A 
ATOM     23  C   UNL     1      11.855  12.819  17.342  0.00  0.00    +0.000 A 
ATOM     24  C   UNL     1      11.389  11.680  18.000  0.00  0.00    +0.000 A 
ENDBRANCH  18  19
ENDBRANCH  17  18
ENDBRANCH  16  17
ENDBRANCH  15  16
ENDBRANCH   3  15
TORSDOF 8
ENDMDL
MODEL 8
REMARK VINA RESULT:      -7.2      1.334      1.448
REMARK  Name = 
REMARK  9 active torsions:
REMARK  status: ('A' for Active; 'I' for Inactive)
REMARK    1  A    between atoms: C_1  and  C_2
REMARK    2  A    between atoms: C_2  and  O_3
REMARK    3  A    between atoms: C_2  and  C_11
REMARK    4  A    between atoms: O_3  and  C_4
REMARK    5  A    between atoms: N_13  and  C_14
REMARK    6  A    between atoms: C_14  and  C_15
REMARK    7  A    between atoms: C_15  and  C_16
REMARK    8  A    between atoms: C_16  and  C_17
REMARK    9  A    between atoms: C_17  and  C_18
REMARK                            x       y       z     vdW  Elec       q    Type
REMARK                         _______ _______ _______ _____ _____    ______ ____
ROOT
ATOM      1  C   UNL     1       5.713   6.202  16.571  0.00  0.00    +0.000 C 
ATOM      2  O   UNL     1       5.453   6.883  15.581  0.00  0.00    +0.000 OA
ATOM      3  N   UNL     1       6.740   6.526  17.432  0.00  0.00    +0.000 N 
ATOM      4  H   UNL     1       6.898   5.919  18.230  0.00  0.00    +0.000 HD
ENDROOT
BRANCH   1   6
ATOM      5  C   UNL     1       5.116   3.873  15.943  0.00  0.00    +0.000 C 
ATOM      6  C   UNL     1       4.866   4.972  16.978  0.00  0.00    +0.000 C 
BRANCH   6   7
ATOM      7  O   UNL     1       5.222   4.538  18.297  0.00  0.00    +0.000 OA
BRANCH   7   8
ATOM      8  C   UNL     1       4.224   4.291  19.201  0.00  0.00    +0.000 A 
ATOM      9  C   UNL     1       3.978   3.072  19.838  0.00  0.00    +0.000 A 
ATOM     10  C   UNL     1       2.959   2.959  20.791  0.00  0.00    +0.000 A 
ATOM     11  C   UNL     1       2.162   4.059  21.099  0.00  0.00    +0.000 A 
ATOM     12  C   UNL     1       2.398   5.269  20.458  0.00  0.00    +0.000 A 
ATOM     13 CL   UNL     1       1.407   6.632  20.822  0.00  0.00    +0.000 Cl
ATOM     14  C   UNL     1       3.428   5.394  19.523  0.00  0.00    +0.000 A 
ENDBRANCH   7   8
ENDBRANCH   6   7
ENDBRANCH   1   6
BRANCH   3  15
ATOM     15  C   UNL     1       7.606   7.664  17.200  0.00  0.00    +0.000 C 
BRANCH  15  16
ATOM     16  C   UNL     1       8.234   8.197  18.490  0.00  0.00    +0.000 C 
BRANCH  16  17
ATOM     17  C   UNL     1       8.613   9.670  18.352  0.00  0.00    +0.000 C 
BRANCH  17  18
ATOM     18  C   UNL     1       9.387  10.193  19.565  0.00  0.00    +0.000 C 
BRANCH  18  19
ATOM     19  C   UNL     1      10.195  11.400  19.155  0.00  0.00    +0.000 A 
ATOM     20  C   UNL     1      10.255  12.527  19.984  0.00  0.00    +0.000 A 
ATOM     21  C   UNL     1      10.904  13.685  19.553  0.00  0.00    +0.000 A 
ATOM     22  C   UNL     1      11.498  13.725  18.293  0.00  0.00    +0.000 A 
ATOM     23  C   UNL     1      11.456  12.604  17.467  0.00  0.00    +0.000 A 
ATOM     24  C   UNL     1      10.807  11.445  17.895  0.00  0.00    +0.000 A 
ENDBRANCH  18  19
ENDBRANCH  17  18
ENDBRANCH  16  17
ENDBRANCH  15  16
ENDBRANCH   3  15
TORSDOF 8
ENDMDL
MODEL 9
REMARK VINA RESULT:      -7.2      0.993      1.477
REMARK  Name = 
REMARK  9 active torsions:
REMARK  status: ('A' for Active; 'I' for Inactive)
REMARK    1  A    between atoms: C_1  and  C_2
REMARK    2  A    between atoms: C_2  and  O_3
REMARK    3  A    between atoms: C_2  and  C_11
REMARK    4  A    between atoms: O_3  and  C_4
REMARK    5  A    between atoms: N_13  and  C_14
REMARK    6  A    between atoms: C_14  and  C_15
REMARK    7  A    between atoms: C_15  and  C_16
REMARK    8  A    between atoms: C_16  and  C_17
REMARK    9  A    between atoms: C_17  and  C_18
REMARK                            x       y       z     vdW  Elec       q    Type
REMARK                         _______ _______ _______ _____ _____    ______ ____
ROOT
ATOM      1  C   UNL     1       5.933   6.281  16.771  0.00  0.00    +0.000 C 
ATOM      2  O   UNL     1       5.837   6.618  15.592  0.00  0.00    +0.000 OA
ATOM      3  N   UNL     1       6.730   6.966  17.664  0.00  0.00    +0.000 N 
ATOM      4  H   UNL     1       6.761   6.633  18.622  0.00  0.00    +0.000 HD
ENDROOT
BRANCH   1   6
ATOM      5  C   UNL     1       5.902   4.552  18.557  0.00  0.00    +0.000 C 
ATOM      6  C   UNL     1       5.115   5.111  17.370  0.00  0.00    +0.000 C 
BRANCH   6   7
ATOM      7  O   UNL     1       3.817   5.569  17.772  0.00  0.00    +0.000 OA
BRANCH   7   8
ATOM      8  C   UNL     1       2.926   4.661  18.276  0.00  0.00    +0.000 A 
ATOM      9  C   UNL     1       2.032   3.887  17.531  0.00  0.00    +0.000 A 
ATOM     10  C   UNL     1       1.208   2.946  18.159  0.00  0.00    +0.000 A 
ATOM     11  C   UNL     1       1.254   2.786  19.541  0.00  0.00    +0.000 A 
ATOM     12  C   UNL     1       2.134   3.562  20.286  0.00  0.00    +0.000 A 
ATOM     13 CL   UNL     1       2.187   3.381  22.000  0.00  0.00    +0.000 Cl
ATOM     14  C   UNL     1       2.975   4.486  19.662  0.00  0.00    +0.000 A 
ENDBRANCH   7   8
ENDBRANCH   6   7
ENDBRANCH   1   6
BRANCH   3  15
ATOM     15  C   UNL     1       7.537   8.099  17.260  0.00  0.00    +0.000 C 
BRANCH  15  16
ATOM     16  C   UNL     1       8.504   8.553  18.356  0.00  0.00    +0.000 C 
BRANCH  16  17
ATOM     17  C   UNL     1       8.668  10.071  18.354  0.00  0.00    +0.000 C 
BRANCH  17  18
ATOM     18  C   UNL     1       9.484  10.574  19.548  0.00  0.00    +0.000 C 
BRANCH  18  19
ATOM     19  C   UNL     1      10.417  11.667  19.085  0.00  0.00    +0.000 A 
ATOM     20  C   UNL     1      10.691  11.835  17.722  0.00  0.00    +0.000 A 
ATOM     21  C   UNL     1      11.642  12.766  17.303  0.00  0.00    +0.000 A 
ATOM     22  C   UNL     1      12.327  13.536  18.242  0.00  0.00    +0.000 A 
ATOM     23  C   UNL     1      12.052  13.385  19.600  0.00  0.00    +0.000 A 
ATOM     24  C   UNL     1      11.101  12.455  20.022  0.00  0.00    +0.000 A 
ENDBRANCH  18  19
ENDBRANCH  17  18
ENDBRANCH  16  17
ENDBRANCH  15  16
ENDBRANCH   3  15
TORSDOF 8
ENDMDL
