MODEL 1
REMARK VINA RESULT:      -7.9      0.000      0.000
REMARK  Name = 
REMARK  4 active torsions:
REMARK  status: ('A' for Active; 'I' for Inactive)
REMARK    1  A    between atoms: C_14  and  S_15
REMARK    2  A    between atoms: S_15  and  C_16
REMARK    3  A    between atoms: C_16  and  C_17
REMARK    4  A    between atoms: C_17  and  N_18
REMARK                            x       y       z     vdW  Elec       q    Type
REMARK                         _______ _______ _______ _____ _____    ______ ____
ROOT
ATOM      1  C   UNL     1       1.880   1.960  19.210  0.00  0.00    +0.000 A 
ATOM      2  C   UNL     1       1.047   2.848  18.533  0.00  0.00    +0.000 A 
ATOM      3  C   UNL     1       1.551   4.066  18.072  0.00  0.00    +0.000 A 
ATOM      4  C   UNL     1       2.898   4.405  18.285  0.00  0.00    +0.000 A 
ATOM      5  C   UNL     1       3.735   3.483  18.915  0.00  0.00    +0.000 A 
ATOM      6  C   UNL     1       3.226   2.274  19.392  0.00  0.00    +0.000 A 
ATOM      7  O   UNL     1       5.073   3.699  19.124  0.00  0.00    +0.000 OA
ATOM      8  C   UNL     1       5.667   4.795  18.542  0.00  0.00    +0.000 A 
ATOM      9  N   UNL     1       7.010   4.833  18.701  0.00  0.00    +0.000 NA
ATOM     10  C   UNL     1       7.662   5.911  18.216  0.00  0.00    +0.000 A 
ATOM     11  C   UNL     1       7.036   6.956  17.561  0.00  0.00    +0.000 A 
ATOM     12  C   UNL     1       5.657   6.897  17.401  0.00  0.00    +0.000 A 
ATOM     13  C   UNL     1       4.943   5.805  17.917  0.00  0.00    +0.000 A 
ATOM     14  C   UNL     1       3.440   5.761  17.901  0.00  0.00    +0.000 C 
ENDROOT
BRANCH  14  15
ATOM     15  S   UNL     1       2.723   7.091  18.996  0.00  0.00    +0.000 S 
BRANCH  15  16
ATOM     16  C   UNL     1       1.965   8.150  17.709  0.00  0.00    +0.000 C 
BRANCH  16  17
ATOM     17  C   UNL     1       2.111   9.655  17.974  0.00  0.00    +0.000 C 
BRANCH  17  18
ATOM     18  N   UNL     1       0.912  10.211  18.649  0.00  0.00    +0.000 NA
ATOM     19  C   UNL     1       1.020  11.662  18.881  0.00  0.00    +0.000 C 
ATOM     20  C   UNL     1      -0.195  12.200  19.637  0.00  0.00    +0.000 C 
ATOM     21  C   UNL     1      -1.486  11.880  18.902  0.00  0.00    +0.000 C 
ATOM     22  C   UNL     1      -1.563  10.389  18.601  0.00  0.00    +0.000 C 
ATOM     23  C   UNL     1      -0.304   9.893  17.884  0.00  0.00    +0.000 C 
ENDBRANCH  17  18
ENDBRANCH  16  17
ENDBRANCH  15  16
ENDBRANCH  14  15
TORSDOF 4
ENDMDL
MODEL 2
REMARK VINA RESULT:      -7.9      2.399      4.314
REMARK  Name = 
REMARK  4 active torsions:
REMARK  status: ('A' for Active; 'I' for Inactive)
REMARK    1  A    between atoms: C_14  and  S_15
REMARK    2  A    between atoms: S_15  and  C_16
REMARK    3  A    between atoms: C_16  and  C_17
REMARK    4  A    between atoms: C_17  and  N_18
REMARK                            x       y       z     vdW  Elec       q    Type
REMARK                         _______ _______ _______ _____ _____    ______ ____
ROOT
ATOM      1  C   UNL     1       6.871   5.236  16.128  0.00  0.00    +0.000 A 
ATOM      2  C   UNL     1       6.861   6.365  16.945  0.00  0.00    +0.000 A 
ATOM      3  C   UNL     1       5.811   6.569  17.843  0.00  0.00    +0.000 A 
ATOM      4  C   UNL     1       4.759   5.641  17.930  0.00  0.00    +0.000 A 
ATOM      5  C   UNL     1       4.809   4.487  17.147  0.00  0.00    +0.000 A 
ATOM      6  C   UNL     1       5.850   4.292  16.237  0.00  0.00    +0.000 A 
ATOM      7  O   UNL     1       3.859   3.500  17.197  0.00  0.00    +0.000 OA
ATOM      8  C   UNL     1       2.897   3.554  18.179  0.00  0.00    +0.000 A 
ATOM      9  N   UNL     1       2.099   2.462  18.217  0.00  0.00    +0.000 NA
ATOM     10  C   UNL     1       1.087   2.465  19.111  0.00  0.00    +0.000 A 
ATOM     11  C   UNL     1       0.838   3.507  19.986  0.00  0.00    +0.000 A 
ATOM     12  C   UNL     1       1.672   4.617  19.936  0.00  0.00    +0.000 A 
ATOM     13  C   UNL     1       2.717   4.660  19.001  0.00  0.00    +0.000 A 
ATOM     14  C   UNL     1       3.555   5.894  18.806  0.00  0.00    +0.000 C 
ENDROOT
BRANCH  14  15
ATOM     15  S   UNL     1       2.530   7.296  18.126  0.00  0.00    +0.000 S 
BRANCH  15  16
ATOM     16  C   UNL     1       1.916   8.000  19.701  0.00  0.00    +0.000 C 
BRANCH  16  17
ATOM     17  C   UNL     1       1.142   9.315  19.539  0.00  0.00    +0.000 C 
BRANCH  17  18
ATOM     18  N   UNL     1       0.787   9.906  20.853  0.00  0.00    +0.000 NA
ATOM     19  C   UNL     1      -0.227  10.969  20.734  0.00  0.00    +0.000 C 
ATOM     20  C   UNL     1      -0.527  11.610  22.090  0.00  0.00    +0.000 C 
ATOM     21  C   UNL     1      -0.974  10.569  23.103  0.00  0.00    +0.000 C 
ATOM     22  C   UNL     1       0.041   9.435  23.173  0.00  0.00    +0.000 C 
ATOM     23  C   UNL     1       0.340   8.860  21.785  0.00  0.00    +0.000 C 
ENDBRANCH  17  18
ENDBRANCH  16  17
ENDBRANCH  15  16
ENDBRANCH  14  15
TORSDOF 4
ENDMDL
MODEL 3
REMARK VINA RESULT:      -7.8      0.298      1.059
REMARK  Name = 
REMARK  4 active torsions:
REMARK  status: ('A' for Active; 'I' for Inactive)
REMARK    1  A    between atoms: C_14  and  S_15
REMARK    2  A    between atoms: S_15  and  C_16
REMARK    3  A    between atoms: C_16  and  C_17
REMARK    4  A    between atoms: C_17  and  N_18
REMARK                            x       y       z     vdW  Elec       q    Type
REMARK                         _______ _______ _______ _____ _____    ______ ____
ROOT
ATOM      1  C   UNL     1       1.868   1.915  19.242  0.00  0.00    +0.000 A 
ATOM      2  C   UNL     1       1.017   2.803  18.589  0.00  0.00    +0.000 A 
ATOM      3  C   UNL     1       1.507   4.024  18.120  0.00  0.00    +0.000 A 
ATOM      4  C   UNL     1       2.858   4.364  18.300  0.00  0.00    +0.000 A 
ATOM      5  C   UNL     1       3.712   3.442  18.906  0.00  0.00    +0.000 A 
ATOM      6  C   UNL     1       3.218   2.230  19.391  0.00  0.00    +0.000 A 
ATOM      7  O   UNL     1       5.055   3.660  19.082  0.00  0.00    +0.000 OA
ATOM      8  C   UNL     1       5.632   4.758  18.489  0.00  0.00    +0.000 A 
ATOM      9  N   UNL     1       6.979   4.798  18.615  0.00  0.00    +0.000 NA
ATOM     10  C   UNL     1       7.617   5.878  18.117  0.00  0.00    +0.000 A 
ATOM     11  C   UNL     1       6.973   6.924  17.481  0.00  0.00    +0.000 A 
ATOM     12  C   UNL     1       5.591   6.863  17.355  0.00  0.00    +0.000 A 
ATOM     13  C   UNL     1       4.892   5.768  17.885  0.00  0.00    +0.000 A 
ATOM     14  C   UNL     1       3.389   5.722  17.907  0.00  0.00    +0.000 C 
ENDROOT
BRANCH  14  15
ATOM     15  S   UNL     1       2.697   7.047  19.023  0.00  0.00    +0.000 S 
BRANCH  15  16
ATOM     16  C   UNL     1       2.081   8.210  17.750  0.00  0.00    +0.000 C 
BRANCH  16  17
ATOM     17  C   UNL     1       2.320   9.688  18.085  0.00  0.00    +0.000 C 
BRANCH  17  18
ATOM     18  N   UNL     1       1.049  10.454  18.117  0.00  0.00    +0.000 NA
ATOM     19  C   UNL     1      -0.133   9.586  17.974  0.00  0.00    +0.000 C 
ATOM     20  C   UNL     1      -1.426  10.401  17.940  0.00  0.00    +0.000 C 
ATOM     21  C   UNL     1      -1.560  11.271  19.179  0.00  0.00    +0.000 C 
ATOM     22  C   UNL     1      -0.307  12.117  19.365  0.00  0.00    +0.000 C 
ATOM     23  C   UNL     1       0.961  11.258  19.345  0.00  0.00    +0.000 C 
ENDBRANCH  17  18
ENDBRANCH  16  17
ENDBRANCH  15  16
ENDBRANCH  14  15
TORSDOF 4
ENDMDL
MODEL 4
REMARK VINA RESULT:      -7.7      1.943      2.098
REMARK  Name = 
REMARK  4 active torsions:
REMARK  status: ('A' for Active; 'I' for Inactive)
REMARK    1  A    between atoms: C_14  and  S_15
REMARK    2  A    between atoms: S_15  and  C_16
REMARK    3  A    between atoms: C_16  and  C_17
REMARK    4  A    between atoms: C_17  and  N_18
REMARK                            x       y       z     vdW  Elec       q    Type
REMARK                         _______ _______ _______ _____ _____    ______ ____
ROOT
ATOM      1  C   UNL     1       1.553   2.701  20.507  0.00  0.00    +0.000 A 
ATOM      2  C   UNL     1       0.849   3.154  19.394  0.00  0.00    +0.000 A 
ATOM      3  C   UNL     1       1.439   4.067  18.517  0.00  0.00    +0.000 A 
ATOM      4  C   UNL     1       2.743   4.535  18.749  0.00  0.00    +0.000 A 
ATOM      5  C   UNL     1       3.458   4.031  19.836  0.00  0.00    +0.000 A 
ATOM      6  C   UNL     1       2.861   3.132  20.722  0.00  0.00    +0.000 A 
ATOM      7  O   UNL     1       4.753   4.386  20.118  0.00  0.00    +0.000 OA
ATOM      8  C   UNL     1       5.448   5.141  19.202  0.00  0.00    +0.000 A 
ATOM      9  N   UNL     1       6.751   5.315  19.520  0.00  0.00    +0.000 NA
ATOM     10  C   UNL     1       7.488   6.099  18.705  0.00  0.00    +0.000 A 
ATOM     11  C   UNL     1       6.989   6.713  17.571  0.00  0.00    +0.000 A 
ATOM     12  C   UNL     1       5.649   6.518  17.257  0.00  0.00    +0.000 A 
ATOM     13  C   UNL     1       4.846   5.731  18.096  0.00  0.00    +0.000 A 
ATOM     14  C   UNL     1       3.362   5.607  17.884  0.00  0.00    +0.000 C 
ENDROOT
BRANCH  14  15
ATOM     15  S   UNL     1       2.511   7.245  18.157  0.00  0.00    +0.000 S 
BRANCH  15  16
ATOM     16  C   UNL     1       2.478   7.255  19.988  0.00  0.00    +0.000 C 
BRANCH  16  17
ATOM     17  C   UNL     1       1.071   7.381  20.587  0.00  0.00    +0.000 C 
BRANCH  17  18
ATOM     18  N   UNL     1       0.886   8.681  21.279  0.00  0.00    +0.000 NA
ATOM     19  C   UNL     1       0.805   9.812  20.337  0.00  0.00    +0.000 C 
ATOM     20  C   UNL     1       0.685  11.146  21.073  0.00  0.00    +0.000 C 
ATOM     21  C   UNL     1      -0.516  11.153  22.006  0.00  0.00    +0.000 C 
ATOM     22  C   UNL     1      -0.467   9.945  22.932  0.00  0.00    +0.000 C 
ATOM     23  C   UNL     1      -0.300   8.640  22.148  0.00  0.00    +0.000 C 
ENDBRANCH  17  18
ENDBRANCH  16  17
ENDBRANCH  15  16
ENDBRANCH  14  15
TORSDOF 4
ENDMDL
MODEL 5
REMARK VINA RESULT:      -7.6      1.840      2.099
REMARK  Name = 
REMARK  4 active torsions:
REMARK  status: ('A' for Active; 'I' for Inactive)
REMARK    1  A    between atoms: C_14  and  S_15
REMARK    2  A    between atoms: S_15  and  C_16
REMARK    3  A    between atoms: C_16  and  C_17
REMARK    4  A    between atoms: C_17  and  N_18
REMARK                            x       y       z     vdW  Elec       q    Type
REMARK                         _______ _______ _______ _____ _____    ______ ____
ROOT
ATOM      1  C   UNL     1       2.912   1.814  18.927  0.00  0.00    +0.000 A 
ATOM      2  C   UNL     1       2.263   2.363  17.824  0.00  0.00    +0.000 A 
ATOM      3  C   UNL     1       2.739   3.544  17.250  0.00  0.00    +0.000 A 
ATOM      4  C   UNL     1       3.872   4.186  17.778  0.00  0.00    +0.000 A 
ATOM      5  C   UNL     1       4.545   3.596  18.848  0.00  0.00    +0.000 A 
ATOM      6  C   UNL     1       4.059   2.425  19.433  0.00  0.00    +0.000 A 
ATOM      7  O   UNL     1       5.688   4.116  19.400  0.00  0.00    +0.000 OA
ATOM      8  C   UNL     1       6.304   5.175  18.775  0.00  0.00    +0.000 A 
ATOM      9  N   UNL     1       7.491   5.516  19.328  0.00  0.00    +0.000 NA
ATOM     10  C   UNL     1       8.129   6.588  18.813  0.00  0.00    +0.000 A 
ATOM     11  C   UNL     1       7.646   7.335  17.754  0.00  0.00    +0.000 A 
ATOM     12  C   UNL     1       6.429   6.966  17.195  0.00  0.00    +0.000 A 
ATOM     13  C   UNL     1       5.724   5.873  17.722  0.00  0.00    +0.000 A 
ATOM     14  C   UNL     1       4.339   5.522  17.251  0.00  0.00    +0.000 C 
ENDROOT
BRANCH  14  15
ATOM     15  S   UNL     1       3.123   6.865  17.695  0.00  0.00    +0.000 S 
BRANCH  15  16
ATOM     16  C   UNL     1       3.134   6.678  19.517  0.00  0.00    +0.000 C 
BRANCH  16  17
ATOM     17  C   UNL     1       1.757   6.856  20.172  0.00  0.00    +0.000 C 
BRANCH  17  18
ATOM     18  N   UNL     1       1.542   8.253  20.621  0.00  0.00    +0.000 NA
ATOM     19  C   UNL     1       1.045   9.121  19.539  0.00  0.00    +0.000 C 
ATOM     20  C   UNL     1       0.896  10.569  20.007  0.00  0.00    +0.000 C 
ATOM     21  C   UNL     1      -0.018  10.664  21.218  0.00  0.00    +0.000 C 
ATOM     22  C   UNL     1       0.458   9.714  22.310  0.00  0.00    +0.000 C 
ATOM     23  C   UNL     1       0.634   8.289  21.779  0.00  0.00    +0.000 C 
ENDBRANCH  17  18
ENDBRANCH  16  17
ENDBRANCH  15  16
ENDBRANCH  14  15
TORSDOF 4
ENDMDL
MODEL 6
REMARK VINA RESULT:      -7.5      0.773      1.293
REMARK  Name = 
REMARK  4 active torsions:
REMARK  status: ('A' for Active; 'I' for Inactive)
REMARK    1  A    between atoms: C_14  and  S_15
REMARK    2  A    between atoms: S_15  and  C_16
REMARK    3  A    between atoms: C_16  and  C_17
REMARK    4  A    between atoms: C_17  and  N_18
REMARK                            x       y       z     vdW  Elec       q    Type
REMARK                         _______ _______ _______ _____ _____    ______ ____
ROOT
ATOM      1  C   UNL     1       1.792   2.074  19.047  0.00  0.00    +0.000 A 
ATOM      2  C   UNL     1       0.967   2.990  18.399  0.00  0.00    +0.000 A 
ATOM      3  C   UNL     1       1.484   4.214  17.967  0.00  0.00    +0.000 A 
ATOM      4  C   UNL     1       2.835   4.531  18.181  0.00  0.00    +0.000 A 
ATOM      5  C   UNL     1       3.664   3.582  18.782  0.00  0.00    +0.000 A 
ATOM      6  C   UNL     1       3.143   2.366  19.229  0.00  0.00    +0.000 A 
ATOM      7  O   UNL     1       5.006   3.776  18.989  0.00  0.00    +0.000 OA
ATOM      8  C   UNL     1       5.611   4.879  18.433  0.00  0.00    +0.000 A 
ATOM      9  N   UNL     1       6.955   4.896  18.586  0.00  0.00    +0.000 NA
ATOM     10  C   UNL     1       7.617   5.978  18.125  0.00  0.00    +0.000 A 
ATOM     11  C   UNL     1       7.001   7.048  17.501  0.00  0.00    +0.000 A 
ATOM     12  C   UNL     1       5.621   7.010  17.348  0.00  0.00    +0.000 A 
ATOM     13  C   UNL     1       4.897   5.914  17.839  0.00  0.00    +0.000 A 
ATOM     14  C   UNL     1       3.393   5.889  17.830  0.00  0.00    +0.000 C 
ENDROOT
BRANCH  14  15
ATOM     15  S   UNL     1       2.698   7.198  18.964  0.00  0.00    +0.000 S 
BRANCH  15  16
ATOM     16  C   UNL     1       2.421   8.529  17.737  0.00  0.00    +0.000 C 
BRANCH  16  17
ATOM     17  C   UNL     1       1.140   9.340  17.974  0.00  0.00    +0.000 C 
BRANCH  17  18
ATOM     18  N   UNL     1       1.425  10.622  18.666  0.00  0.00    +0.000 NA
ATOM     19  C   UNL     1       2.236  11.536  17.843  0.00  0.00    +0.000 C 
ATOM     20  C   UNL     1       2.575  12.820  18.601  0.00  0.00    +0.000 C 
ATOM     21  C   UNL     1       1.316  13.524  19.080  0.00  0.00    +0.000 C 
ATOM     22  C   UNL     1       0.444  12.558  19.872  0.00  0.00    +0.000 C 
ATOM     23  C   UNL     1       0.173  11.271  19.087  0.00  0.00    +0.000 C 
ENDBRANCH  17  18
ENDBRANCH  16  17
ENDBRANCH  15  16
ENDBRANCH  14  15
TORSDOF 4
ENDMDL
MODEL 7
REMARK VINA RESULT:      -7.5      1.810      1.883
REMARK  Name = 
REMARK  4 active torsions:
REMARK  status: ('A' for Active; 'I' for Inactive)
REMARK    1  A    between atoms: C_14  and  S_15
REMARK    2  A    between atoms: S_15  and  C_16
REMARK    3  A    between atoms: C_16  and  C_17
REMARK    4  A    between atoms: C_17  and  N_18
REMARK                            x       y       z     vdW  Elec       q    Type
REMARK                         _______ _______ _______ _____ _____    ______ ____
ROOT
ATOM      1  C   UNL     1       1.876   2.331  19.563  0.00  0.00    +0.000 A 
ATOM      2  C   UNL     1       1.233   2.938  18.486  0.00  0.00    +0.000 A 
ATOM      3  C   UNL     1       1.848   3.994  17.810  0.00  0.00    +0.000 A 
ATOM      4  C   UNL     1       3.115   4.452  18.207  0.00  0.00    +0.000 A 
ATOM      5  C   UNL     1       3.773   3.799  19.251  0.00  0.00    +0.000 A 
ATOM      6  C   UNL     1       3.150   2.755  19.938  0.00  0.00    +0.000 A 
ATOM      7  O   UNL     1       5.031   4.137  19.679  0.00  0.00    +0.000 OA
ATOM      8  C   UNL     1       5.759   5.046  18.947  0.00  0.00    +0.000 A 
ATOM      9  N   UNL     1       7.031   5.200  19.382  0.00  0.00    +0.000 NA
ATOM     10  C   UNL     1       7.792   6.123  18.758  0.00  0.00    +0.000 A 
ATOM     11  C   UNL     1       7.349   6.897  17.701  0.00  0.00    +0.000 A 
ATOM     12  C   UNL     1       6.042   6.721  17.263  0.00  0.00    +0.000 A 
ATOM     13  C   UNL     1       5.213   5.790  17.906  0.00  0.00    +0.000 A 
ATOM     14  C   UNL     1       3.752   5.664  17.570  0.00  0.00    +0.000 C 
ENDROOT
BRANCH  14  15
ATOM     15  S   UNL     1       2.825   7.215  18.035  0.00  0.00    +0.000 S 
BRANCH  15  16
ATOM     16  C   UNL     1       2.055   6.638  19.593  0.00  0.00    +0.000 C 
BRANCH  16  17
ATOM     17  C   UNL     1       2.201   7.620  20.763  0.00  0.00    +0.000 C 
BRANCH  17  18
ATOM     18  N   UNL     1       0.967   8.418  20.965  0.00  0.00    +0.000 NA
ATOM     19  C   UNL     1       0.894   9.009  22.313  0.00  0.00    +0.000 C 
ATOM     20  C   UNL     1      -0.417   9.769  22.521  0.00  0.00    +0.000 C 
ATOM     21  C   UNL     1      -0.601  10.846  21.464  0.00  0.00    +0.000 C 
ATOM     22  C   UNL     1      -0.456  10.246  20.072  0.00  0.00    +0.000 C 
ATOM     23  C   UNL     1       0.850   9.459  19.931  0.00  0.00    +0.000 C 
ENDBRANCH  17  18
ENDBRANCH  16  17
ENDBRANCH  15  16
ENDBRANCH  14  15
TORSDOF 4
ENDMDL
MODEL 8
REMARK VINA RESULT:      -7.4      3.304      7.246
REMARK  Name = 
REMARK  4 active torsions:
REMARK  status: ('A' for Active; 'I' for Inactive)
REMARK    1  A    between atoms: C_14  and  S_15
REMARK    2  A    between atoms: S_15  and  C_16
REMARK    3  A    between atoms: C_16  and  C_17
REMARK    4  A    between atoms: C_17  and  N_18
REMARK                            x       y       z     vdW  Elec       q    Type
REMARK                         _______ _______ _______ _____ _____    ______ ____
ROOT
ATOM      1  C   UNL     1       1.419   9.426  19.288  0.00  0.00    +0.000 A 
ATOM      2  C   UNL     1       1.917   9.265  17.997  0.00  0.00    +0.000 A 
ATOM      3  C   UNL     1       2.496   8.052  17.617  0.00  0.00    +0.000 A 
ATOM      4  C   UNL     1       2.581   6.988  18.530  0.00  0.00    +0.000 A 
ATOM      5  C   UNL     1       2.029   7.143  19.802  0.00  0.00    +0.000 A 
ATOM      6  C   UNL     1       1.466   8.361  20.187  0.00  0.00    +0.000 A 
ATOM      7  O   UNL     1       2.016   6.147  20.746  0.00  0.00    +0.000 OA
ATOM      8  C   UNL     1       2.410   4.881  20.380  0.00  0.00    +0.000 A 
ATOM      9  N   UNL     1       2.228   3.955  21.349  0.00  0.00    +0.000 NA
ATOM     10  C   UNL     1       2.650   2.699  21.093  0.00  0.00    +0.000 A 
ATOM     11  C   UNL     1       3.237   2.313  19.901  0.00  0.00    +0.000 A 
ATOM     12  C   UNL     1       3.410   3.277  18.915  0.00  0.00    +0.000 A 
ATOM     13  C   UNL     1       3.008   4.599  19.157  0.00  0.00    +0.000 A 
ATOM     14  C   UNL     1       3.304   5.708  18.184  0.00  0.00    +0.000 C 
ENDROOT
BRANCH  14  15
ATOM     15  S   UNL     1       5.142   6.006  18.052  0.00  0.00    +0.000 S 
BRANCH  15  16
ATOM     16  C   UNL     1       5.341   5.801  16.244  0.00  0.00    +0.000 C 
BRANCH  16  17
ATOM     17  C   UNL     1       5.182   4.354  15.757  0.00  0.00    +0.000 C 
BRANCH  17  18
ATOM     18  N   UNL     1       6.069   4.065  14.603  0.00  0.00    +0.000 NA
ATOM     19  C   UNL     1       5.313   3.690  13.394  0.00  0.00    +0.000 C 
ATOM     20  C   UNL     1       6.247   3.331  12.239  0.00  0.00    +0.000 C 
ATOM     21  C   UNL     1       7.201   4.472  11.928  0.00  0.00    +0.000 C 
ATOM     22  C   UNL     1       7.931   4.906  13.193  0.00  0.00    +0.000 C 
ATOM     23  C   UNL     1       6.952   5.210  14.332  0.00  0.00    +0.000 C 
ENDBRANCH  17  18
ENDBRANCH  16  17
ENDBRANCH  15  16
ENDBRANCH  14  15
TORSDOF 4
ENDMDL
MODEL 9
REMARK VINA RESULT:      -7.4      2.229      4.293
REMARK  Name = 
REMARK  4 active torsions:
REMARK  status: ('A' for Active; 'I' for Inactive)
REMARK    1  A    between atoms: C_14  and  S_15
REMARK    2  A    between atoms: S_15  and  C_16
REMARK    3  A    between atoms: C_16  and  C_17
REMARK    4  A    between atoms: C_17  and  N_18
REMARK                            x       y       z     vdW  Elec       q    Type
REMARK                         _______ _______ _______ _____ _____    ______ ____
ROOT
ATOM      1  C   UNL     1       7.192   5.583  16.421  0.00  0.00    +0.000 A 
ATOM      2  C   UNL     1       6.991   6.684  17.251  0.00  0.00    +0.000 A 
ATOM      3  C   UNL     1       5.842   6.763  18.041  0.00  0.00    +0.000 A 
ATOM      4  C   UNL     1       4.883   5.737  18.006  0.00  0.00    +0.000 A 
ATOM      5  C   UNL     1       5.123   4.615  17.213  0.00  0.00    +0.000 A 
ATOM      6  C   UNL     1       6.263   4.544  16.410  0.00  0.00    +0.000 A 
ATOM      7  O   UNL     1       4.273   3.540  17.150  0.00  0.00    +0.000 OA
ATOM      8  C   UNL     1       3.218   3.476  18.030  0.00  0.00    +0.000 A 
ATOM      9  N   UNL     1       2.530   2.312  17.969  0.00  0.00    +0.000 NA
ATOM     10  C   UNL     1       1.440   2.194  18.755  0.00  0.00    +0.000 A 
ATOM     11  C   UNL     1       1.005   3.184  19.618  0.00  0.00    +0.000 A 
ATOM     12  C   UNL     1       1.727   4.370  19.671  0.00  0.00    +0.000 A 
ATOM     13  C   UNL     1       2.851   4.538  18.848  0.00  0.00    +0.000 A 
ATOM     14  C   UNL     1       3.579   5.850  18.760  0.00  0.00    +0.000 C 
ENDROOT
BRANCH  14  15
ATOM     15  S   UNL     1       2.494   7.166  18.003  0.00  0.00    +0.000 S 
BRANCH  15  16
ATOM     16  C   UNL     1       2.004   8.053  19.528  0.00  0.00    +0.000 C 
BRANCH  16  17
ATOM     17  C   UNL     1       1.185   9.326  19.275  0.00  0.00    +0.000 C 
BRANCH  17  18
ATOM     18  N   UNL     1       0.208   9.573  20.364  0.00  0.00    +0.000 NA
ATOM     19  C   UNL     1       0.642   8.995  21.649  0.00  0.00    +0.000 C 
ATOM     20  C   UNL     1      -0.410   9.202  22.739  0.00  0.00    +0.000 C 
ATOM     21  C   UNL     1      -0.741  10.676  22.911  0.00  0.00    +0.000 C 
ATOM     22  C   UNL     1      -1.121  11.289  21.569  0.00  0.00    +0.000 C 
ATOM     23  C   UNL     1      -0.057  11.013  20.503  0.00  0.00    +0.000 C 
ENDBRANCH  17  18
ENDBRANCH  16  17
ENDBRANCH  15  16
ENDBRANCH  14  15
TORSDOF 4
ENDMDL
