MODEL 1
REMARK VINA RESULT:      -8.4      0.000      0.000
REMARK  Name = 
REMARK  2 active torsions:
REMARK  status: ('A' for Active; 'I' for Inactive)
REMARK    1  A    between atoms: C_2  and  O_3
REMARK    2  A    between atoms: O_3  and  C_4
REMARK                            x       y       z     vdW  Elec       q    Type
REMARK                         _______ _______ _______ _____ _____    ______ ____
ROOT
ATOM      1  O   UNL     1      -0.737  13.127  17.740  0.00  0.00    +0.000 OA
ATOM      2  C   UNL     1      -0.693  12.317  18.684  0.00  0.00    +0.000 C 
ATOM      3  N   UNL     1       0.916  11.923  19.513  0.00  0.00    +0.000 N 
ATOM      4  C   UNL     1      -0.345  11.259  20.676  0.00  0.00    +0.000 A 
ATOM      5  C   UNL     1      -0.211   9.873  21.009  0.00  0.00    +0.000 A 
ATOM      6  C   UNL     1      -0.314   9.328  22.345  0.00  0.00    +0.000 A 
ATOM      7  C   UNL     1      -0.844  10.057  23.384  0.00  0.00    +0.000 A 
ATOM      8  C   UNL     1      -1.534  11.268  22.984  0.00  0.00    +0.000 A 
ATOM      9  C   UNL     1      -1.563  12.057  21.471  0.00  0.00    +0.000 A 
ATOM     10  C   UNL     1      -1.697  14.165  21.553  0.00  0.00    +0.000 C 
ATOM     11  O   UNL     1      -1.035  14.895  20.431  0.00  0.00    +0.000 OA
ATOM     12  C   UNL     1       0.512  14.841  20.946  0.00  0.00    +0.000 C 
ATOM     13  C   UNL     1      -0.003  16.138  22.378  0.00  0.00    +0.000 C 
ATOM     14  C   UNL     1      -1.095  16.095  23.978  0.00  0.00    +0.000 C 
ATOM     15  C   UNL     1      -1.403  14.729  24.582  0.00  0.00    +0.000 C 
ATOM     16  C   UNL     1      -2.362  14.019  23.658  0.00  0.00    +0.000 C 
ATOM     17  C   UNL     1      -1.231  13.717  22.688  0.00  0.00    +0.000 C 
ATOM     18  C   UNL     1      -0.260  13.457  21.858  0.00  0.00    +0.000 C 
ATOM     19  C   UNL     1       0.871  13.154  20.888  0.00  0.00    +0.000 C 
ATOM     20  C   UNL     1       0.922  13.785  19.684  0.00  0.00    +0.000 C 
ATOM     21  C   UNL     1       2.053  13.483  18.714  0.00  0.00    +0.000 C 
ATOM     22  C   UNL     1       3.022  13.223  17.883  0.00  0.00    +0.000 C 
ATOM     23  C   UNL     1       2.349  13.602  19.890  0.00  0.00    +0.000 C 
ENDROOT
BRANCH   2  24
ATOM     24  O   UNL     1      -2.408  11.938  19.070  0.00  0.00    +0.000 OA
BRANCH  24  25
ATOM     25  C   UNL     1      -4.195  11.965  19.048  0.00  0.00    +0.000 A 
ATOM     26  C   UNL     1      -5.005  11.147  18.179  0.00  0.00    +0.000 A 
ATOM     27  C   UNL     1      -6.401  10.788  18.508  0.00  0.00    +0.000 A 
ATOM     28  C   UNL     1      -6.957  11.085  19.748  0.00  0.00    +0.000 A 
ATOM     29  C   UNL     1      -6.276  12.043  20.493  0.00  0.00    +0.000 A 
ATOM     30  C   UNL     1      -4.950  12.548  20.114  0.00  0.00    +0.000 A 
ENDBRANCH  24  25
ENDBRANCH   2  24
TORSDOF 2
ENDMDL
MODEL 2
REMARK VINA RESULT:      -8.1      1.718      2.246
REMARK  Name = 
REMARK  2 active torsions:
REMARK  status: ('A' for Active; 'I' for Inactive)
REMARK    1  A    between atoms: C_2  and  O_3
REMARK    2  A    between atoms: O_3  and  C_4
REMARK                            x       y       z     vdW  Elec       q    Type
REMARK                         _______ _______ _______ _____ _____    ______ ____
ROOT
ATOM      1  O   UNL     1       0.755  13.620  18.115  0.00  0.00    +0.000 OA
ATOM      2  C   UNL     1       0.688  12.744  18.997  0.00  0.00    +0.000 C 
ATOM      3  N   UNL     1       1.902  12.721  20.396  0.00  0.00    +0.000 N 
ATOM      4  C   UNL     1       0.567  11.587  20.961  0.00  0.00    +0.000 A 
ATOM      5  C   UNL     1       0.987  10.266  21.316  0.00  0.00    +0.000 A 
ATOM      6  C   UNL     1       0.562   9.551  22.500  0.00  0.00    +0.000 A 
ATOM      7  C   UNL     1      -0.518   9.965  23.244  0.00  0.00    +0.000 A 
ATOM      8  C   UNL     1      -1.344  10.972  22.608  0.00  0.00    +0.000 A 
ATOM      9  C   UNL     1      -1.043  11.903  21.209  0.00  0.00    +0.000 A 
ATOM     10  C   UNL     1      -1.842  13.860  21.237  0.00  0.00    +0.000 C 
ATOM     11  O   UNL     1      -1.065  14.882  20.471  0.00  0.00    +0.000 OA
ATOM     12  C   UNL     1       0.108  15.203  21.558  0.00  0.00    +0.000 C 
ATOM     13  C   UNL     1      -1.282  16.112  22.671  0.00  0.00    +0.000 C 
ATOM     14  C   UNL     1      -2.825  15.563  23.706  0.00  0.00    +0.000 C 
ATOM     15  C   UNL     1      -2.900  14.102  24.135  0.00  0.00    +0.000 C 
ATOM     16  C   UNL     1      -3.170  13.271  22.904  0.00  0.00    +0.000 C 
ATOM     17  C   UNL     1      -1.723  13.424  22.462  0.00  0.00    +0.000 C 
ATOM     18  C   UNL     1      -0.483  13.555  22.084  0.00  0.00    +0.000 C 
ATOM     19  C   UNL     1       0.964  13.707  21.643  0.00  0.00    +0.000 C 
ATOM     20  C   UNL     1       1.268  14.472  20.560  0.00  0.00    +0.000 C 
ATOM     21  C   UNL     1       2.714  14.625  20.118  0.00  0.00    +0.000 C 
ATOM     22  C   UNL     1       3.954  14.755  19.739  0.00  0.00    +0.000 C 
ATOM     23  C   UNL     1       2.492  14.675  21.315  0.00  0.00    +0.000 C 
ENDROOT
BRANCH   2  24
ATOM     24  O   UNL     1      -0.838  11.851  18.670  0.00  0.00    +0.000 OA
BRANCH  24  25
ATOM     25  C   UNL     1      -2.179  11.049  17.800  0.00  0.00    +0.000 A 
ATOM     26  C   UNL     1      -3.510  11.593  17.688  0.00  0.00    +0.000 A 
ATOM     27  C   UNL     1      -4.423  11.224  16.585  0.00  0.00    +0.000 A 
ATOM     28  C   UNL     1      -3.992  10.459  15.507  0.00  0.00    +0.000 A 
ATOM     29  C   UNL     1      -2.804   9.762  15.707  0.00  0.00    +0.000 A 
ATOM     30  C   UNL     1      -1.942   9.983  16.876  0.00  0.00    +0.000 A 
ENDBRANCH  24  25
ENDBRANCH   2  24
TORSDOF 2
ENDMDL
MODEL 3
REMARK VINA RESULT:      -8.0      0.597      1.062
REMARK  Name = 
REMARK  2 active torsions:
REMARK  status: ('A' for Active; 'I' for Inactive)
REMARK    1  A    between atoms: C_2  and  O_3
REMARK    2  A    between atoms: O_3  and  C_4
REMARK                            x       y       z     vdW  Elec       q    Type
REMARK                         _______ _______ _______ _____ _____    ______ ____
ROOT
ATOM      1  O   UNL     1      -0.545  13.254  17.775  0.00  0.00    +0.000 OA
ATOM      2  C   UNL     1      -0.498  12.424  18.701  0.00  0.00    +0.000 C 
ATOM      3  N   UNL     1       1.097  12.084  19.580  0.00  0.00    +0.000 N 
ATOM      4  C   UNL     1      -0.173  11.334  20.680  0.00  0.00    +0.000 A 
ATOM      5  C   UNL     1       0.014   9.948  20.986  0.00  0.00    +0.000 A 
ATOM      6  C   UNL     1      -0.112   9.366  22.304  0.00  0.00    +0.000 A 
ATOM      7  C   UNL     1      -0.713  10.044  23.339  0.00  0.00    +0.000 A 
ATOM      8  C   UNL     1      -1.443  11.232  22.943  0.00  0.00    +0.000 A 
ATOM      9  C   UNL     1      -1.455  12.057  21.448  0.00  0.00    +0.000 A 
ATOM     10  C   UNL     1      -1.689  14.153  21.573  0.00  0.00    +0.000 C 
ATOM     11  O   UNL     1      -1.022  14.940  20.493  0.00  0.00    +0.000 OA
ATOM     12  C   UNL     1       0.507  14.944  21.064  0.00  0.00    +0.000 C 
ATOM     13  C   UNL     1      -0.119  16.181  22.505  0.00  0.00    +0.000 C 
ATOM     14  C   UNL     1      -1.264  16.048  24.062  0.00  0.00    +0.000 C 
ATOM     15  C   UNL     1      -1.530  14.655  24.623  0.00  0.00    +0.000 C 
ATOM     16  C   UNL     1      -2.421  13.926  23.648  0.00  0.00    +0.000 C 
ATOM     17  C   UNL     1      -1.243  13.699  22.714  0.00  0.00    +0.000 C 
ATOM     18  C   UNL     1      -0.233  13.504  21.914  0.00  0.00    +0.000 C 
ATOM     19  C   UNL     1       0.946  13.277  20.980  0.00  0.00    +0.000 C 
ATOM     20  C   UNL     1       1.010  13.939  19.794  0.00  0.00    +0.000 C 
ATOM     21  C   UNL     1       2.188  13.713  18.860  0.00  0.00    +0.000 C 
ATOM     22  C   UNL     1       3.198  13.518  18.059  0.00  0.00    +0.000 C 
ATOM     23  C   UNL     1       2.436  13.816  20.049  0.00  0.00    +0.000 C 
ENDROOT
BRANCH   2  24
ATOM     24  O   UNL     1      -2.206  11.958  19.015  0.00  0.00    +0.000 OA
BRANCH  24  25
ATOM     25  C   UNL     1      -3.993  11.955  18.987  0.00  0.00    +0.000 A 
ATOM     26  C   UNL     1      -4.818  12.661  19.936  0.00  0.00    +0.000 A 
ATOM     27  C   UNL     1      -6.201  13.080  19.623  0.00  0.00    +0.000 A 
ATOM     28  C   UNL     1      -6.726  12.960  18.340  0.00  0.00    +0.000 A 
ATOM     29  C   UNL     1      -6.035  12.101  17.491  0.00  0.00    +0.000 A 
ATOM     30  C   UNL     1      -4.725  11.531  17.834  0.00  0.00    +0.000 A 
ENDBRANCH  24  25
ENDBRANCH   2  24
TORSDOF 2
ENDMDL
MODEL 4
REMARK VINA RESULT:      -7.5      2.251      5.218
REMARK  Name = 
REMARK  2 active torsions:
REMARK  status: ('A' for Active; 'I' for Inactive)
REMARK    1  A    between atoms: C_2  and  O_3
REMARK    2  A    between atoms: O_3  and  C_4
REMARK                            x       y       z     vdW  Elec       q    Type
REMARK                         _______ _______ _______ _____ _____    ______ ____
ROOT
ATOM      1  O   UNL     1       1.793  12.414  21.315  0.00  0.00    +0.000 OA
ATOM      2  C   UNL     1       0.942  12.128  20.454  0.00  0.00    +0.000 C 
ATOM      3  N   UNL     1       0.184  10.438  20.404  0.00  0.00    +0.000 N 
ATOM      4  C   UNL     1      -0.920  11.440  19.326  0.00  0.00    +0.000 A 
ATOM      5  C   UNL     1      -1.101  10.946  17.995  0.00  0.00    +0.000 A 
ATOM      6  C   UNL     1      -2.371  10.852  17.311  0.00  0.00    +0.000 A 
ATOM      7  C   UNL     1      -3.490  11.505  17.773  0.00  0.00    +0.000 A 
ATOM      8  C   UNL     1      -3.234  12.495  18.801  0.00  0.00    +0.000 A 
ATOM      9  C   UNL     1      -1.815  12.786  19.703  0.00  0.00    +0.000 A 
ATOM     10  C   UNL     1      -2.124  13.446  21.687  0.00  0.00    +0.000 C 
ATOM     11  O   UNL     1      -1.076  13.037  22.671  0.00  0.00    +0.000 OA
ATOM     12  C   UNL     1      -1.560  11.507  22.964  0.00  0.00    +0.000 C 
ATOM     13  C   UNL     1      -3.130  12.273  23.936  0.00  0.00    +0.000 C 
ATOM     14  C   UNL     1      -4.732  13.250  23.455  0.00  0.00    +0.000 C 
ATOM     15  C   UNL     1      -5.191  13.176  22.003  0.00  0.00    +0.000 C 
ATOM     16  C   UNL     1      -4.211  13.963  21.167  0.00  0.00    +0.000 C 
ATOM     17  C   UNL     1      -3.197  12.833  21.262  0.00  0.00    +0.000 C 
ATOM     18  C   UNL     1      -2.329  11.865  21.344  0.00  0.00    +0.000 C 
ATOM     19  C   UNL     1      -1.315  10.735  21.439  0.00  0.00    +0.000 C 
ATOM     20  C   UNL     1      -0.185  10.896  22.179  0.00  0.00    +0.000 C 
ATOM     21  C   UNL     1       0.828   9.768  22.275  0.00  0.00    +0.000 C 
ATOM     22  C   UNL     1       1.697   8.800  22.356  0.00  0.00    +0.000 C 
ATOM     23  C   UNL     1      -0.350   9.462  22.348  0.00  0.00    +0.000 C 
ENDROOT
BRANCH   2  24
ATOM     24  O   UNL     1       0.572  13.673  19.612  0.00  0.00    +0.000 OA
BRANCH  24  25
ATOM     25  C   UNL     1       0.578  15.405  19.171  0.00  0.00    +0.000 A 
ATOM     26  C   UNL     1       1.733  16.108  18.670  0.00  0.00    +0.000 A 
ATOM     27  C   UNL     1       1.617  17.330  17.844  0.00  0.00    +0.000 A 
ATOM     28  C   UNL     1       0.388  17.775  17.370  0.00  0.00    +0.000 A 
ATOM     29  C   UNL     1      -0.727  17.245  18.013  0.00  0.00    +0.000 A 
ATOM     30  C   UNL     1      -0.637  16.132  18.967  0.00  0.00    +0.000 A 
ENDBRANCH  24  25
ENDBRANCH   2  24
TORSDOF 2
ENDMDL
MODEL 5
REMARK VINA RESULT:      -7.4      1.955      6.321
REMARK  Name = 
REMARK  2 active torsions:
REMARK  status: ('A' for Active; 'I' for Inactive)
REMARK    1  A    between atoms: C_2  and  O_3
REMARK    2  A    between atoms: O_3  and  C_4
REMARK                            x       y       z     vdW  Elec       q    Type
REMARK                         _______ _______ _______ _____ _____    ______ ____
ROOT
ATOM      1  O   UNL     1      -0.943  14.807  22.296  0.00  0.00    +0.000 OA
ATOM      2  C   UNL     1      -0.731  13.588  22.428  0.00  0.00    +0.000 C 
ATOM      3  N   UNL     1      -2.049  12.469  23.093  0.00  0.00    +0.000 N 
ATOM      4  C   UNL     1      -0.820  11.308  22.367  0.00  0.00    +0.000 A 
ATOM      5  C   UNL     1      -0.311  10.309  23.257  0.00  0.00    +0.000 A 
ATOM      6  C   UNL     1      -0.161   8.908  22.933  0.00  0.00    +0.000 A 
ATOM      7  C   UNL     1      -0.221   8.456  21.635  0.00  0.00    +0.000 A 
ATOM      8  C   UNL     1      -0.158   9.497  20.628  0.00  0.00    +0.000 A 
ATOM      9  C   UNL     1      -0.285  11.190  20.800  0.00  0.00    +0.000 A 
ATOM     10  C   UNL     1      -1.211  12.196  19.189  0.00  0.00    +0.000 C 
ATOM     11  O   UNL     1      -1.963  13.435  19.552  0.00  0.00    +0.000 OA
ATOM     12  C   UNL     1      -3.346  12.763  20.099  0.00  0.00    +0.000 C 
ATOM     13  C   UNL     1      -3.756  12.259  18.208  0.00  0.00    +0.000 C 
ATOM     14  C   UNL     1      -3.043  11.014  16.906  0.00  0.00    +0.000 C 
ATOM     15  C   UNL     1      -2.205   9.852  17.429  0.00  0.00    +0.000 C 
ATOM     16  C   UNL     1      -0.893  10.412  17.920  0.00  0.00    +0.000 C 
ATOM     17  C   UNL     1      -1.568  10.940  19.177  0.00  0.00    +0.000 C 
ATOM     18  C   UNL     1      -2.147  11.391  20.253  0.00  0.00    +0.000 C 
ATOM     19  C   UNL     1      -2.822  11.918  21.510  0.00  0.00    +0.000 C 
ATOM     20  C   UNL     1      -2.989  13.257  21.682  0.00  0.00    +0.000 C 
ATOM     21  C   UNL     1      -3.663  13.784  22.937  0.00  0.00    +0.000 C 
ATOM     22  C   UNL     1      -4.242  14.236  24.014  0.00  0.00    +0.000 C 
ATOM     23  C   UNL     1      -4.157  12.800  22.415  0.00  0.00    +0.000 C 
ENDROOT
BRANCH   2  24
ATOM     24  O   UNL     1       0.868  13.294  21.659  0.00  0.00    +0.000 OA
BRANCH  24  25
ATOM     25  C   UNL     1       2.314  13.494  20.627  0.00  0.00    +0.000 A 
ATOM     26  C   UNL     1       2.303  13.378  19.190  0.00  0.00    +0.000 A 
ATOM     27  C   UNL     1       3.319  14.033  18.338  0.00  0.00    +0.000 A 
ATOM     28  C   UNL     1       4.244  14.929  18.864  0.00  0.00    +0.000 A 
ATOM     29  C   UNL     1       4.402  14.881  20.246  0.00  0.00    +0.000 A 
ATOM     30  C   UNL     1       3.508  14.109  21.119  0.00  0.00    +0.000 A 
ENDBRANCH  24  25
ENDBRANCH   2  24
TORSDOF 2
ENDMDL
MODEL 6
REMARK VINA RESULT:      -7.2      7.265     11.194
REMARK  Name = 
REMARK  2 active torsions:
REMARK  status: ('A' for Active; 'I' for Inactive)
REMARK    1  A    between atoms: C_2  and  O_3
REMARK    2  A    between atoms: O_3  and  C_4
REMARK                            x       y       z     vdW  Elec       q    Type
REMARK                         _______ _______ _______ _____ _____    ______ ____
ROOT
ATOM      1  O   UNL     1       7.094  16.477  22.190  0.00  0.00    +0.000 OA
ATOM      2  C   UNL     1       7.762  16.806  21.192  0.00  0.00    +0.000 C 
ATOM      3  N   UNL     1       9.567  17.190  21.352  0.00  0.00    +0.000 N 
ATOM      4  C   UNL     1       9.325  16.989  19.539  0.00  0.00    +0.000 A 
ATOM      5  C   UNL     1       9.735  18.099  18.733  0.00  0.00    +0.000 A 
ATOM      6  C   UNL     1      10.505  17.998  17.513  0.00  0.00    +0.000 A 
ATOM      7  C   UNL     1      10.663  16.800  16.856  0.00  0.00    +0.000 A 
ATOM      8  C   UNL     1       9.787  15.738  17.311  0.00  0.00    +0.000 A 
ATOM      9  C   UNL     1       8.786  15.668  18.692  0.00  0.00    +0.000 A 
ATOM     10  C   UNL     1       8.576  13.751  19.559  0.00  0.00    +0.000 C 
ATOM     11  O   UNL     1       8.364  13.735  21.038  0.00  0.00    +0.000 OA
ATOM     12  C   UNL     1       9.905  13.936  21.536  0.00  0.00    +0.000 C 
ATOM     13  C   UNL     1      10.272  12.080  20.890  0.00  0.00    +0.000 C 
ATOM     14  C   UNL     1      10.385  11.193  19.171  0.00  0.00    +0.000 C 
ATOM     15  C   UNL     1      10.608  12.068  17.942  0.00  0.00    +0.000 C 
ATOM     16  C   UNL     1       9.340  12.846  17.691  0.00  0.00    +0.000 C 
ATOM     17  C   UNL     1       9.668  13.785  18.842  0.00  0.00    +0.000 C 
ATOM     18  C   UNL     1       9.949  14.589  19.828  0.00  0.00    +0.000 C 
ATOM     19  C   UNL     1      10.277  15.527  20.979  0.00  0.00    +0.000 C 
ATOM     20  C   UNL     1       9.539  15.486  22.121  0.00  0.00    +0.000 C 
ATOM     21  C   UNL     1       9.866  16.423  23.271  0.00  0.00    +0.000 C 
ATOM     22  C   UNL     1      10.147  17.228  24.258  0.00  0.00    +0.000 C 
ATOM     23  C   UNL     1      10.806  15.900  22.699  0.00  0.00    +0.000 C 
ENDROOT
BRANCH   2  24
ATOM     24  O   UNL     1       6.668  16.569  19.785  0.00  0.00    +0.000 OA
BRANCH  24  25
ATOM     25  C   UNL     1       5.289  16.031  18.782  0.00  0.00    +0.000 A 
ATOM     26  C   UNL     1       5.167  14.710  18.218  0.00  0.00    +0.000 A 
ATOM     27  C   UNL     1       3.858  14.122  17.861  0.00  0.00    +0.000 A 
ATOM     28  C   UNL     1       2.662  14.746  18.200  0.00  0.00    +0.000 A 
ATOM     29  C   UNL     1       2.766  16.092  18.540  0.00  0.00    +0.000 A 
ATOM     30  C   UNL     1       4.058  16.759  18.747  0.00  0.00    +0.000 A 
ENDBRANCH  24  25
ENDBRANCH   2  24
TORSDOF 2
ENDMDL
MODEL 7
REMARK VINA RESULT:      -7.2      1.701      2.904
REMARK  Name = 
REMARK  2 active torsions:
REMARK  status: ('A' for Active; 'I' for Inactive)
REMARK    1  A    between atoms: C_2  and  O_3
REMARK    2  A    between atoms: O_3  and  C_4
REMARK                            x       y       z     vdW  Elec       q    Type
REMARK                         _______ _______ _______ _____ _____    ______ ____
ROOT
ATOM      1  O   UNL     1      -1.214  10.256  17.260  0.00  0.00    +0.000 OA
ATOM      2  C   UNL     1      -1.294  10.499  18.478  0.00  0.00    +0.000 C 
ATOM      3  N   UNL     1       0.096  10.056  19.619  0.00  0.00    +0.000 N 
ATOM      4  C   UNL     1      -0.941  11.198  20.622  0.00  0.00    +0.000 A 
ATOM      5  C   UNL     1      -1.391  10.683  21.879  0.00  0.00    +0.000 A 
ATOM      6  C   UNL     1      -1.358  11.406  23.131  0.00  0.00    +0.000 A 
ATOM      7  C   UNL     1      -1.160  12.766  23.175  0.00  0.00    +0.000 A 
ATOM      8  C   UNL     1      -1.274  13.437  21.894  0.00  0.00    +0.000 A 
ATOM      9  C   UNL     1      -1.353  12.777  20.322  0.00  0.00    +0.000 A 
ATOM     10  C   UNL     1      -0.444  13.938  18.808  0.00  0.00    +0.000 C 
ATOM     11  O   UNL     1       0.137  13.166  17.668  0.00  0.00    +0.000 OA
ATOM     12  C   UNL     1       1.547  12.702  18.343  0.00  0.00    +0.000 C 
ATOM     13  C   UNL     1       2.137  14.609  18.231  0.00  0.00    +0.000 C 
ATOM     14  C   UNL     1       1.660  16.274  19.098  0.00  0.00    +0.000 C 
ATOM     15  C   UNL     1       0.927  16.187  20.432  0.00  0.00    +0.000 C 
ATOM     16  C   UNL     1      -0.471  15.687  20.162  0.00  0.00    +0.000 C 
ATOM     17  C   UNL     1       0.055  14.273  19.968  0.00  0.00    +0.000 C 
ATOM     18  C   UNL     1       0.506  13.061  19.803  0.00  0.00    +0.000 C 
ATOM     19  C   UNL     1       1.031  11.648  19.609  0.00  0.00    +0.000 C 
ATOM     20  C   UNL     1       1.032  11.086  18.370  0.00  0.00    +0.000 C 
ATOM     21  C   UNL     1       1.557   9.673  18.176  0.00  0.00    +0.000 C 
ATOM     22  C   UNL     1       2.007   8.461  18.011  0.00  0.00    +0.000 C 
ATOM     23  C   UNL     1       2.193  10.404  18.915  0.00  0.00    +0.000 C 
ENDROOT
BRANCH   2  24
ATOM     24  O   UNL     1      -2.794  11.470  18.676  0.00  0.00    +0.000 OA
BRANCH  24  25
ATOM     25  C   UNL     1      -4.514  11.905  18.898  0.00  0.00    +0.000 A 
ATOM     26  C   UNL     1      -5.581  11.447  18.043  0.00  0.00    +0.000 A 
ATOM     27  C   UNL     1      -6.983  11.365  18.504  0.00  0.00    +0.000 A 
ATOM     28  C   UNL     1      -7.325  11.572  19.837  0.00  0.00    +0.000 A 
ATOM     29  C   UNL     1      -6.360  12.215  20.607  0.00  0.00    +0.000 A 
ATOM     30  C   UNL     1      -4.995  12.461  20.125  0.00  0.00    +0.000 A 
ENDBRANCH  24  25
ENDBRANCH   2  24
TORSDOF 2
ENDMDL
MODEL 8
REMARK VINA RESULT:      -7.1      7.597     11.242
REMARK  Name = 
REMARK  2 active torsions:
REMARK  status: ('A' for Active; 'I' for Inactive)
REMARK    1  A    between atoms: C_2  and  O_3
REMARK    2  A    between atoms: O_3  and  C_4
REMARK                            x       y       z     vdW  Elec       q    Type
REMARK                         _______ _______ _______ _____ _____    ______ ____
ROOT
ATOM      1  O   UNL     1       5.715  14.176  17.982  0.00  0.00    +0.000 OA
ATOM      2  C   UNL     1       6.610  15.039  18.035  0.00  0.00    +0.000 C 
ATOM      3  N   UNL     1       6.219  16.769  18.572  0.00  0.00    +0.000 N 
ATOM      4  C   UNL     1       8.056  16.691  18.659  0.00  0.00    +0.000 A 
ATOM      5  C   UNL     1       8.754  17.684  17.901  0.00  0.00    +0.000 A 
ATOM      6  C   UNL     1       9.878  18.456  18.383  0.00  0.00    +0.000 A 
ATOM      7  C   UNL     1      10.567  18.098  19.518  0.00  0.00    +0.000 A 
ATOM      8  C   UNL     1      10.270  16.768  20.014  0.00  0.00    +0.000 A 
ATOM      9  C   UNL     1       9.022  15.693  19.568  0.00  0.00    +0.000 A 
ATOM     10  C   UNL     1       8.277  14.476  21.127  0.00  0.00    +0.000 C 
ATOM     11  O   UNL     1       6.836  14.097  21.014  0.00  0.00    +0.000 OA
ATOM     12  C   UNL     1       6.150  15.467  21.577  0.00  0.00    +0.000 C 
ATOM     13  C   UNL     1       6.834  14.970  23.389  0.00  0.00    +0.000 C 
ATOM     14  C   UNL     1       8.568  14.856  24.247  0.00  0.00    +0.000 C 
ATOM     15  C   UNL     1       9.719  15.627  23.611  0.00  0.00    +0.000 C 
ATOM     16  C   UNL     1      10.082  14.936  22.319  0.00  0.00    +0.000 C 
ATOM     17  C   UNL     1       8.858  15.528  21.639  0.00  0.00    +0.000 C 
ATOM     18  C   UNL     1       7.808  16.036  21.056  0.00  0.00    +0.000 C 
ATOM     19  C   UNL     1       6.584  16.627  20.376  0.00  0.00    +0.000 C 
ATOM     20  C   UNL     1       5.540  15.824  20.036  0.00  0.00    +0.000 C 
ATOM     21  C   UNL     1       4.316  16.416  19.355  0.00  0.00    +0.000 C 
ATOM     22  C   UNL     1       3.267  16.923  18.772  0.00  0.00    +0.000 C 
ATOM     23  C   UNL     1       4.797  17.050  20.278  0.00  0.00    +0.000 C 
ENDROOT
BRANCH   2  24
ATOM     24  O   UNL     1       8.146  14.155  17.734  0.00  0.00    +0.000 OA
BRANCH  24  25
ATOM     25  C   UNL     1       9.456  12.945  17.857  0.00  0.00    +0.000 A 
ATOM     26  C   UNL     1      10.825  13.194  17.475  0.00  0.00    +0.000 A 
ATOM     27  C   UNL     1      11.954  12.426  18.042  0.00  0.00    +0.000 A 
ATOM     28  C   UNL     1      11.774  11.532  19.093  0.00  0.00    +0.000 A 
ATOM     29  C   UNL     1      10.460  11.131  19.316  0.00  0.00    +0.000 A 
ATOM     30  C   UNL     1       9.314  11.763  18.649  0.00  0.00    +0.000 A 
ENDBRANCH  24  25
ENDBRANCH   2  24
TORSDOF 2
ENDMDL
MODEL 9
REMARK VINA RESULT:      -7.1      6.892     10.758
REMARK  Name = 
REMARK  2 active torsions:
REMARK  status: ('A' for Active; 'I' for Inactive)
REMARK    1  A    between atoms: C_2  and  O_3
REMARK    2  A    between atoms: O_3  and  C_4
REMARK                            x       y       z     vdW  Elec       q    Type
REMARK                         _______ _______ _______ _____ _____    ______ ____
ROOT
ATOM      1  O   UNL     1       6.542  14.502  22.682  0.00  0.00    +0.000 OA
ATOM      2  C   UNL     1       6.974  15.280  21.813  0.00  0.00    +0.000 C 
ATOM      3  N   UNL     1       8.514  16.265  22.113  0.00  0.00    +0.000 N 
ATOM      4  C   UNL     1       8.248  16.418  20.298  0.00  0.00    +0.000 A 
ATOM      5  C   UNL     1       8.165  17.756  19.796  0.00  0.00    +0.000 A 
ATOM      6  C   UNL     1       8.837  18.239  18.610  0.00  0.00    +0.000 A 
ATOM      7  C   UNL     1       9.386  17.378  17.689  0.00  0.00    +0.000 A 
ATOM      8  C   UNL     1       8.997  15.990  17.849  0.00  0.00    +0.000 A 
ATOM      9  C   UNL     1       8.185  15.228  19.143  0.00  0.00    +0.000 A 
ATOM     10  C   UNL     1       8.756  13.228  19.516  0.00  0.00    +0.000 C 
ATOM     11  O   UNL     1       8.661  12.788  20.941  0.00  0.00    +0.000 OA
ATOM     12  C   UNL     1      10.045  13.430  21.518  0.00  0.00    +0.000 C 
ATOM     13  C   UNL     1      11.033  12.054  20.455  0.00  0.00    +0.000 C 
ATOM     14  C   UNL     1      11.355  11.703  18.578  0.00  0.00    +0.000 C 
ATOM     15  C   UNL     1      11.159  12.858  17.602  0.00  0.00    +0.000 C 
ATOM     16  C   UNL     1       9.680  13.140  17.509  0.00  0.00    +0.000 C 
ATOM     17  C   UNL     1       9.709  13.835  18.861  0.00  0.00    +0.000 C 
ATOM     18  C   UNL     1       9.735  14.431  20.019  0.00  0.00    +0.000 C 
ATOM     19  C   UNL     1       9.764  15.127  21.371  0.00  0.00    +0.000 C 
ATOM     20  C   UNL     1       9.170  14.546  22.448  0.00  0.00    +0.000 C 
ATOM     21  C   UNL     1       9.199  15.241  23.799  0.00  0.00    +0.000 C 
ATOM     22  C   UNL     1       9.224  15.837  24.958  0.00  0.00    +0.000 C 
ATOM     23  C   UNL     1      10.227  15.258  23.145  0.00  0.00    +0.000 C 
ENDROOT
BRANCH   2  24
ATOM     24  O   UNL     1       5.958  14.987  20.358  0.00  0.00    +0.000 OA
BRANCH  24  25
ATOM     25  C   UNL     1       4.559  14.964  19.246  0.00  0.00    +0.000 A 
ATOM     26  C   UNL     1       3.262  14.433  19.589  0.00  0.00    +0.000 A 
ATOM     27  C   UNL     1       2.025  14.871  18.907  0.00  0.00    +0.000 A 
ATOM     28  C   UNL     1       2.024  15.935  18.011  0.00  0.00    +0.000 A 
ATOM     29  C   UNL     1       3.272  16.302  17.519  0.00  0.00    +0.000 A 
ATOM     30  C   UNL     1       4.528  15.767  18.062  0.00  0.00    +0.000 A 
ENDBRANCH  24  25
ENDBRANCH   2  24
TORSDOF 2
ENDMDL
