MODEL 1
REMARK VINA RESULT:      -8.0      0.000      0.000
REMARK  Name = 
REMARK  8 active torsions:
REMARK  status: ('A' for Active; 'I' for Inactive)
REMARK    1  A    between atoms: C_1  and  O_2
REMARK    2  A    between atoms: O_2  and  C_3
REMARK    3  A    between atoms: C_7  and  C_8
REMARK    4  A    between atoms: C_8  and  N_9
REMARK    5  A    between atoms: C_10  and  C_12
REMARK    6  A    between atoms: C_13  and  C_14
REMARK    7  A    between atoms: C_23  and  O_24
REMARK    8  A    between atoms: O_24  and  C_25
REMARK                            x       y       z     vdW  Elec       q    Type
REMARK                         _______ _______ _______ _____ _____    ______ ____
ROOT
ATOM      1  N   UNL     1       6.064   7.471  17.598  0.00  0.00    +0.000 N 
ATOM      2  C   UNL     1       7.402   7.366  17.314  0.00  0.00    +0.000 C 
ATOM      3  O   UNL     1       7.868   6.774  16.350  0.00  0.00    +0.000 OA
ATOM      4  H   UNL     1       5.741   7.971  18.419  0.00  0.00    +0.000 HD
ENDROOT
BRANCH   2   5
ATOM      5  C   UNL     1       8.296   8.077  18.338  0.00  0.00    +0.000 C 
ATOM      6  C   UNL     1       8.458   9.403  18.213  0.00  0.00    +0.000 C 
BRANCH   6   7
ATOM      7  C   UNL     1       9.258  10.385  18.894  0.00  0.00    +0.000 A 
ATOM      8  C   UNL     1       9.167  10.416  20.277  0.00  0.00    +0.000 A 
ATOM      9  N   UNL     1       9.358  11.726  20.598  0.00  0.00    +0.000 N 
ATOM     10  C   UNL     1      10.313  12.215  19.745  0.00  0.00    +0.000 A 
ATOM     11  C   UNL     1      11.182  13.296  19.923  0.00  0.00    +0.000 A 
ATOM     12  C   UNL     1      12.058  13.574  18.882  0.00  0.00    +0.000 A 
ATOM     13  C   UNL     1      11.983  12.851  17.690  0.00  0.00    +0.000 A 
ATOM     14  C   UNL     1      11.050  11.801  17.512  0.00  0.00    +0.000 A 
ATOM     15  C   UNL     1      10.225  11.414  18.588  0.00  0.00    +0.000 A 
ATOM     16  H   UNL     1       8.983  12.202  21.407  0.00  0.00    +0.000 HD
ENDBRANCH   6   7
ENDBRANCH   2   5
BRANCH   1  17
ATOM     17  C   UNL     1       5.013   6.956  16.715  0.00  0.00    +0.000 C 
BRANCH  17  22
ATOM     18  C   UNL     1       3.533   3.651  18.060  0.00  0.00    +0.000 A 
ATOM     19  C   UNL     1       2.335   4.126  18.618  0.00  0.00    +0.000 A 
ATOM     20  C   UNL     1       1.999   5.472  18.516  0.00  0.00    +0.000 A 
ATOM     21  C   UNL     1       2.860   6.357  17.872  0.00  0.00    +0.000 A 
ATOM     22  C   UNL     1       4.099   5.924  17.361  0.00  0.00    +0.000 A 
ATOM     23  C   UNL     1       4.456   4.558  17.489  0.00  0.00    +0.000 A 
BRANCH  18  25
ATOM     24  C   UNL     1       4.112   1.782  19.393  0.00  0.00    +0.000 C 
ATOM     25  O   UNL     1       3.815   2.307  18.097  0.00  0.00    +0.000 OA
ENDBRANCH  18  25
BRANCH  23  26
ATOM     26  O   UNL     1       5.717   4.272  17.022  0.00  0.00    +0.000 OA
ATOM     27  C   UNL     1       5.872   3.761  15.706  0.00  0.00    +0.000 C 
ENDBRANCH  23  26
ENDBRANCH  17  22
ENDBRANCH   1  17
TORSDOF 6
ENDMDL
MODEL 2
REMARK VINA RESULT:      -7.9      1.277      2.080
REMARK  Name = 
REMARK  8 active torsions:
REMARK  status: ('A' for Active; 'I' for Inactive)
REMARK    1  A    between atoms: C_1  and  O_2
REMARK    2  A    between atoms: O_2  and  C_3
REMARK    3  A    between atoms: C_7  and  C_8
REMARK    4  A    between atoms: C_8  and  N_9
REMARK    5  A    between atoms: C_10  and  C_12
REMARK    6  A    between atoms: C_13  and  C_14
REMARK    7  A    between atoms: C_23  and  O_24
REMARK    8  A    between atoms: O_24  and  C_25
REMARK                            x       y       z     vdW  Elec       q    Type
REMARK                         _______ _______ _______ _____ _____    ______ ____
ROOT
ATOM      1  N   UNL     1       5.943   7.361  17.584  0.00  0.00    +0.000 N 
ATOM      2  C   UNL     1       7.278   7.271  17.281  0.00  0.00    +0.000 C 
ATOM      3  O   UNL     1       7.737   6.691  16.306  0.00  0.00    +0.000 OA
ATOM      4  H   UNL     1       5.627   7.851  18.413  0.00  0.00    +0.000 HD
ENDROOT
BRANCH   2   5
ATOM      5  C   UNL     1       8.179   7.984  18.298  0.00  0.00    +0.000 C 
ATOM      6  C   UNL     1       8.367   9.305  18.149  0.00  0.00    +0.000 C 
BRANCH   6   7
ATOM      7  C   UNL     1       9.181  10.284  18.817  0.00  0.00    +0.000 A 
ATOM      8  C   UNL     1       9.133  10.296  20.203  0.00  0.00    +0.000 A 
ATOM      9  N   UNL     1       9.325  11.603  20.535  0.00  0.00    +0.000 N 
ATOM     10  C   UNL     1      10.248  12.111  19.659  0.00  0.00    +0.000 A 
ATOM     11  C   UNL     1      11.115  13.196  19.823  0.00  0.00    +0.000 A 
ATOM     12  C   UNL     1      11.956  13.494  18.759  0.00  0.00    +0.000 A 
ATOM     13  C   UNL     1      11.849  12.786  17.561  0.00  0.00    +0.000 A 
ATOM     14  C   UNL     1      10.918  11.731  17.399  0.00  0.00    +0.000 A 
ATOM     15  C   UNL     1      10.130  11.323  18.495  0.00  0.00    +0.000 A 
ATOM     16  H   UNL     1       8.972  12.067  21.362  0.00  0.00    +0.000 HD
ENDBRANCH   6   7
ENDBRANCH   2   5
BRANCH   1  17
ATOM     17  C   UNL     1       4.886   6.841  16.712  0.00  0.00    +0.000 C 
BRANCH  17  22
ATOM     18  C   UNL     1       2.487   4.321  18.390  0.00  0.00    +0.000 A 
ATOM     19  C   UNL     1       3.111   3.114  18.038  0.00  0.00    +0.000 A 
ATOM     20  C   UNL     1       4.302   3.123  17.318  0.00  0.00    +0.000 A 
ATOM     21  C   UNL     1       4.870   4.334  16.931  0.00  0.00    +0.000 A 
ATOM     22  C   UNL     1       4.234   5.559  17.210  0.00  0.00    +0.000 A 
ATOM     23  C   UNL     1       3.006   5.550  17.919  0.00  0.00    +0.000 A 
BRANCH  18  25
ATOM     24  C   UNL     1       0.953   3.007  19.625  0.00  0.00    +0.000 C 
ATOM     25  O   UNL     1       1.356   4.301  19.169  0.00  0.00    +0.000 OA
ENDBRANCH  18  25
BRANCH  23  26
ATOM     26  O   UNL     1       2.445   6.796  18.065  0.00  0.00    +0.000 OA
ATOM     27  C   UNL     1       2.391   7.388  19.355  0.00  0.00    +0.000 C 
ENDBRANCH  23  26
ENDBRANCH  17  22
ENDBRANCH   1  17
TORSDOF 6
ENDMDL
MODEL 3
REMARK VINA RESULT:      -7.8      1.413      1.748
REMARK  Name = 
REMARK  8 active torsions:
REMARK  status: ('A' for Active; 'I' for Inactive)
REMARK    1  A    between atoms: C_1  and  O_2
REMARK    2  A    between atoms: O_2  and  C_3
REMARK    3  A    between atoms: C_7  and  C_8
REMARK    4  A    between atoms: C_8  and  N_9
REMARK    5  A    between atoms: C_10  and  C_12
REMARK    6  A    between atoms: C_13  and  C_14
REMARK    7  A    between atoms: C_23  and  O_24
REMARK    8  A    between atoms: O_24  and  C_25
REMARK                            x       y       z     vdW  Elec       q    Type
REMARK                         _______ _______ _______ _____ _____    ______ ____
ROOT
ATOM      1  N   UNL     1       6.485   7.739  17.043  0.00  0.00    +0.000 N 
ATOM      2  C   UNL     1       7.600   7.656  17.837  0.00  0.00    +0.000 C 
ATOM      3  O   UNL     1       7.902   6.688  18.522  0.00  0.00    +0.000 OA
ATOM      4  H   UNL     1       6.288   8.575  16.504  0.00  0.00    +0.000 HD
ENDROOT
BRANCH   2   5
ATOM      5  C   UNL     1       8.470   8.919  17.792  0.00  0.00    +0.000 C 
ATOM      6  C   UNL     1       8.828   9.475  18.961  0.00  0.00    +0.000 C 
BRANCH   6   7
ATOM      7  C   UNL     1       9.538  10.670  19.327  0.00  0.00    +0.000 A 
ATOM      8  C   UNL     1       9.453  11.065  20.654  0.00  0.00    +0.000 A 
ATOM      9  N   UNL     1       9.525  12.424  20.605  0.00  0.00    +0.000 N 
ATOM     10  C   UNL     1      10.424  12.747  19.623  0.00  0.00    +0.000 A 
ATOM     11  C   UNL     1      11.191  13.907  19.477  0.00  0.00    +0.000 A 
ATOM     12  C   UNL     1      12.030  13.969  18.373  0.00  0.00    +0.000 A 
ATOM     13  C   UNL     1      12.015  12.948  17.421  0.00  0.00    +0.000 A 
ATOM     14  C   UNL     1      11.182  11.811  17.562  0.00  0.00    +0.000 A 
ATOM     15  C   UNL     1      10.403  11.658  18.727  0.00  0.00    +0.000 A 
ATOM     16  H   UNL     1       9.112  13.067  21.268  0.00  0.00    +0.000 HD
ENDBRANCH   6   7
ENDBRANCH   2   5
BRANCH   1  17
ATOM     17  C   UNL     1       5.554   6.624  16.848  0.00  0.00    +0.000 C 
BRANCH  17  22
ATOM     18  C   UNL     1       3.048   5.693  19.637  0.00  0.00    +0.000 A 
ATOM     19  C   UNL     1       2.144   6.760  19.522  0.00  0.00    +0.000 A 
ATOM     20  C   UNL     1       2.318   7.726  18.536  0.00  0.00    +0.000 A 
ATOM     21  C   UNL     1       3.404   7.643  17.668  0.00  0.00    +0.000 A 
ATOM     22  C   UNL     1       4.366   6.623  17.800  0.00  0.00    +0.000 A 
ATOM     23  C   UNL     1       4.204   5.654  18.822  0.00  0.00    +0.000 A 
BRANCH  18  25
ATOM     24  C   UNL     1       1.457   4.294  20.692  0.00  0.00    +0.000 C 
ATOM     25  O   UNL     1       2.820   4.703  20.562  0.00  0.00    +0.000 OA
ENDBRANCH  18  25
BRANCH  23  26
ATOM     26  O   UNL     1       5.242   4.757  18.900  0.00  0.00    +0.000 OA
ATOM     27  C   UNL     1       5.059   3.437  18.408  0.00  0.00    +0.000 C 
ENDBRANCH  23  26
ENDBRANCH  17  22
ENDBRANCH   1  17
TORSDOF 6
ENDMDL
MODEL 4
REMARK VINA RESULT:      -7.8      1.773      2.534
REMARK  Name = 
REMARK  8 active torsions:
REMARK  status: ('A' for Active; 'I' for Inactive)
REMARK    1  A    between atoms: C_1  and  O_2
REMARK    2  A    between atoms: O_2  and  C_3
REMARK    3  A    between atoms: C_7  and  C_8
REMARK    4  A    between atoms: C_8  and  N_9
REMARK    5  A    between atoms: C_10  and  C_12
REMARK    6  A    between atoms: C_13  and  C_14
REMARK    7  A    between atoms: C_23  and  O_24
REMARK    8  A    between atoms: O_24  and  C_25
REMARK                            x       y       z     vdW  Elec       q    Type
REMARK                         _______ _______ _______ _____ _____    ______ ____
ROOT
ATOM      1  N   UNL     1       6.307   7.518  16.886  0.00  0.00    +0.000 N 
ATOM      2  C   UNL     1       7.453   7.116  17.524  0.00  0.00    +0.000 C 
ATOM      3  O   UNL     1       7.853   5.961  17.583  0.00  0.00    +0.000 OA
ATOM      4  H   UNL     1       6.025   8.492  16.881  0.00  0.00    +0.000 HD
ENDROOT
BRANCH   2   5
ATOM      5  C   UNL     1       8.218   8.273  18.180  0.00  0.00    +0.000 C 
ATOM      6  C   UNL     1       8.004   9.511  17.708  0.00  0.00    +0.000 C 
BRANCH   6   7
ATOM      7  C   UNL     1       8.574  10.802  17.985  0.00  0.00    +0.000 A 
ATOM      8  C   UNL     1       7.903  11.903  17.476  0.00  0.00    +0.000 A 
ATOM      9  N   UNL     1       8.888  12.808  17.218  0.00  0.00    +0.000 N 
ATOM     10  C   UNL     1       9.810  12.699  18.226  0.00  0.00    +0.000 A 
ATOM     11  C   UNL     1      10.721  13.652  18.693  0.00  0.00    +0.000 A 
ATOM     12  C   UNL     1      11.548  13.268  19.739  0.00  0.00    +0.000 A 
ATOM     13  C   UNL     1      11.514  11.957  20.216  0.00  0.00    +0.000 A 
ATOM     14  C   UNL     1      10.624  10.993  19.683  0.00  0.00    +0.000 A 
ATOM     15  C   UNL     1       9.689  11.377  18.700  0.00  0.00    +0.000 A 
ATOM     16  H   UNL     1       8.866  13.527  16.507  0.00  0.00    +0.000 HD
ENDBRANCH   6   7
ENDBRANCH   2   5
BRANCH   1  17
ATOM     17  C   UNL     1       5.461   6.608  16.107  0.00  0.00    +0.000 C 
BRANCH  17  22
ATOM     18  C   UNL     1       2.900   5.330  18.702  0.00  0.00    +0.000 A 
ATOM     19  C   UNL     1       2.910   3.958  18.402  0.00  0.00    +0.000 A 
ATOM     20  C   UNL     1       3.758   3.460  17.419  0.00  0.00    +0.000 A 
ATOM     21  C   UNL     1       4.593   4.326  16.717  0.00  0.00    +0.000 A 
ATOM     22  C   UNL     1       4.559   5.715  16.947  0.00  0.00    +0.000 A 
ATOM     23  C   UNL     1       3.673   6.228  17.929  0.00  0.00    +0.000 A 
BRANCH  18  25
ATOM     24  C   UNL     1       1.678   4.806  20.660  0.00  0.00    +0.000 C 
ATOM     25  O   UNL     1       2.116   5.798  19.728  0.00  0.00    +0.000 OA
ENDBRANCH  18  25
BRANCH  23  26
ATOM     26  O   UNL     1       3.675   7.600  18.010  0.00  0.00    +0.000 OA
ATOM     27  C   UNL     1       2.495   8.318  17.677  0.00  0.00    +0.000 C 
ENDBRANCH  23  26
ENDBRANCH  17  22
ENDBRANCH   1  17
TORSDOF 6
ENDMDL
MODEL 5
REMARK VINA RESULT:      -7.6      6.350     10.123
REMARK  Name = 
REMARK  8 active torsions:
REMARK  status: ('A' for Active; 'I' for Inactive)
REMARK    1  A    between atoms: C_1  and  O_2
REMARK    2  A    between atoms: O_2  and  C_3
REMARK    3  A    between atoms: C_7  and  C_8
REMARK    4  A    between atoms: C_8  and  N_9
REMARK    5  A    between atoms: C_10  and  C_12
REMARK    6  A    between atoms: C_13  and  C_14
REMARK    7  A    between atoms: C_23  and  O_24
REMARK    8  A    between atoms: O_24  and  C_25
REMARK                            x       y       z     vdW  Elec       q    Type
REMARK                         _______ _______ _______ _____ _____    ______ ____
ROOT
ATOM      1  N   UNL     1       0.801   9.468  18.601  0.00  0.00    +0.000 N 
ATOM      2  C   UNL     1       2.005   9.670  17.974  0.00  0.00    +0.000 C 
ATOM      3  O   UNL     1       2.451  10.763  17.651  0.00  0.00    +0.000 OA
ATOM      4  H   UNL     1       0.484   8.534  18.836  0.00  0.00    +0.000 HD
ENDROOT
BRANCH   2   5
ATOM      5  C   UNL     1       2.773   8.370  17.706  0.00  0.00    +0.000 C 
ATOM      6  C   UNL     1       2.218   7.218  18.115  0.00  0.00    +0.000 C 
BRANCH   6   7
ATOM      7  C   UNL     1       2.647   5.846  18.129  0.00  0.00    +0.000 A 
ATOM      8  C   UNL     1       3.900   5.578  17.598  0.00  0.00    +0.000 A 
ATOM      9  N   UNL     1       3.781   4.328  17.071  0.00  0.00    +0.000 N 
ATOM     10  C   UNL     1       2.988   3.604  17.922  0.00  0.00    +0.000 A 
ATOM     11  C   UNL     1       2.931   2.220  18.110  0.00  0.00    +0.000 A 
ATOM     12  C   UNL     1       2.023   1.751  19.049  0.00  0.00    +0.000 A 
ATOM     13  C   UNL     1       1.155   2.638  19.690  0.00  0.00    +0.000 A 
ATOM     14  C   UNL     1       1.191   4.031  19.435  0.00  0.00    +0.000 A 
ATOM     15  C   UNL     1       2.178   4.556  18.575  0.00  0.00    +0.000 A 
ATOM     16  H   UNL     1       4.303   3.959  16.286  0.00  0.00    +0.000 HD
ENDBRANCH   6   7
ENDBRANCH   2   5
BRANCH   1  17
ATOM     17  C   UNL     1      -0.066  10.563  19.045  0.00  0.00    +0.000 C 
BRANCH  17  22
ATOM     18  C   UNL     1      -1.354  11.509  22.562  0.00  0.00    +0.000 A 
ATOM     19  C   UNL     1      -0.939  10.380  23.288  0.00  0.00    +0.000 A 
ATOM     20  C   UNL     1      -0.221   9.367  22.662  0.00  0.00    +0.000 A 
ATOM     21  C   UNL     1       0.075   9.463  21.305  0.00  0.00    +0.000 A 
ATOM     22  C   UNL     1      -0.384  10.549  20.534  0.00  0.00    +0.000 A 
ATOM     23  C   UNL     1      -1.140  11.569  21.165  0.00  0.00    +0.000 A 
BRANCH  18  25
ATOM     24  C   UNL     1      -3.307  12.240  23.682  0.00  0.00    +0.000 C 
ATOM     25  O   UNL     1      -1.992  12.539  23.210  0.00  0.00    +0.000 OA
ENDBRANCH  18  25
BRANCH  23  26
ATOM     26  O   UNL     1      -1.595  12.534  20.299  0.00  0.00    +0.000 OA
ATOM     27  C   UNL     1      -2.969  12.554  19.939  0.00  0.00    +0.000 C 
ENDBRANCH  23  26
ENDBRANCH  17  22
ENDBRANCH   1  17
TORSDOF 6
ENDMDL
MODEL 6
REMARK VINA RESULT:      -7.6      5.642      8.154
REMARK  Name = 
REMARK  8 active torsions:
REMARK  status: ('A' for Active; 'I' for Inactive)
REMARK    1  A    between atoms: C_1  and  O_2
REMARK    2  A    between atoms: O_2  and  C_3
REMARK    3  A    between atoms: C_7  and  C_8
REMARK    4  A    between atoms: C_8  and  N_9
REMARK    5  A    between atoms: C_10  and  C_12
REMARK    6  A    between atoms: C_13  and  C_14
REMARK    7  A    between atoms: C_23  and  O_24
REMARK    8  A    between atoms: O_24  and  C_25
REMARK                            x       y       z     vdW  Elec       q    Type
REMARK                         _______ _______ _______ _____ _____    ______ ____
ROOT
ATOM      1  N   UNL     1       3.096   5.727  19.037  0.00  0.00    +0.000 N 
ATOM      2  C   UNL     1       2.629   4.648  18.331  0.00  0.00    +0.000 C 
ATOM      3  O   UNL     1       1.518   4.151  18.464  0.00  0.00    +0.000 OA
ATOM      4  H   UNL     1       4.032   6.086  18.884  0.00  0.00    +0.000 HD
ENDROOT
BRANCH   2   5
ATOM      5  C   UNL     1       3.646   4.097  17.324  0.00  0.00    +0.000 C 
ATOM      6  C   UNL     1       4.595   4.931  16.871  0.00  0.00    +0.000 C 
BRANCH   6   7
ATOM      7  C   UNL     1       5.640   4.826  15.889  0.00  0.00    +0.000 A 
ATOM      8  C   UNL     1       6.922   5.154  16.302  0.00  0.00    +0.000 A 
ATOM      9  N   UNL     1       7.513   5.668  15.188  0.00  0.00    +0.000 N 
ATOM     10  C   UNL     1       7.069   4.934  14.120  0.00  0.00    +0.000 A 
ATOM     11  C   UNL     1       7.678   4.731  12.877  0.00  0.00    +0.000 A 
ATOM     12  C   UNL     1       6.997   3.932  11.969  0.00  0.00    +0.000 A 
ATOM     13  C   UNL     1       5.723   3.449  12.276  0.00  0.00    +0.000 A 
ATOM     14  C   UNL     1       5.102   3.722  13.520  0.00  0.00    +0.000 A 
ATOM     15  C   UNL     1       5.811   4.431  14.511  0.00  0.00    +0.000 A 
ATOM     16  H   UNL     1       8.254   6.357  15.171  0.00  0.00    +0.000 HD
ENDBRANCH   6   7
ENDBRANCH   2   5
BRANCH   1  17
ATOM     17  C   UNL     1       2.274   6.482  19.986  0.00  0.00    +0.000 C 
BRANCH  17  22
ATOM     18  C   UNL     1       0.816  10.055  19.802  0.00  0.00    +0.000 A 
ATOM     19  C   UNL     1       1.242  10.428  18.518  0.00  0.00    +0.000 A 
ATOM     20  C   UNL     1       1.939   9.528  17.719  0.00  0.00    +0.000 A 
ATOM     21  C   UNL     1       2.231   8.255  18.200  0.00  0.00    +0.000 A 
ATOM     22  C   UNL     1       1.877   7.872  19.509  0.00  0.00    +0.000 A 
ATOM     23  C   UNL     1       1.192   8.799  20.334  0.00  0.00    +0.000 A 
BRANCH  18  25
ATOM     24  C   UNL     1      -1.003  11.569  19.843  0.00  0.00    +0.000 C 
ATOM     25  O   UNL     1       0.059  10.924  20.549  0.00  0.00    +0.000 OA
ENDBRANCH  18  25
BRANCH  23  26
ATOM     26  O   UNL     1       0.968   8.339  21.610  0.00  0.00    +0.000 OA
ATOM     27  C   UNL     1       0.698   9.271  22.648  0.00  0.00    +0.000 C 
ENDBRANCH  23  26
ENDBRANCH  17  22
ENDBRANCH   1  17
TORSDOF 6
ENDMDL
MODEL 7
REMARK VINA RESULT:      -7.6      4.818      7.718
REMARK  Name = 
REMARK  8 active torsions:
REMARK  status: ('A' for Active; 'I' for Inactive)
REMARK    1  A    between atoms: C_1  and  O_2
REMARK    2  A    between atoms: O_2  and  C_3
REMARK    3  A    between atoms: C_7  and  C_8
REMARK    4  A    between atoms: C_8  and  N_9
REMARK    5  A    between atoms: C_10  and  C_12
REMARK    6  A    between atoms: C_13  and  C_14
REMARK    7  A    between atoms: C_23  and  O_24
REMARK    8  A    between atoms: O_24  and  C_25
REMARK                            x       y       z     vdW  Elec       q    Type
REMARK                         _______ _______ _______ _____ _____    ______ ____
ROOT
ATOM      1  N   UNL     1       3.818   5.590  19.874  0.00  0.00    +0.000 N 
ATOM      2  C   UNL     1       2.652   5.088  20.394  0.00  0.00    +0.000 C 
ATOM      3  O   UNL     1       2.454   3.910  20.658  0.00  0.00    +0.000 OA
ATOM      4  H   UNL     1       3.917   6.579  19.670  0.00  0.00    +0.000 HD
ENDROOT
BRANCH   2   5
ATOM      5  C   UNL     1       1.583   6.162  20.629  0.00  0.00    +0.000 C 
ATOM      6  C   UNL     1       1.861   7.418  20.244  0.00  0.00    +0.000 C 
BRANCH   6   7
ATOM      7  C   UNL     1       1.181   8.679  20.366  0.00  0.00    +0.000 A 
ATOM      8  C   UNL     1       1.116   9.467  19.228  0.00  0.00    +0.000 A 
ATOM      9  N   UNL     1       1.132  10.744  19.701  0.00  0.00    +0.000 N 
ATOM     10  C   UNL     1       0.388  10.758  20.852  0.00  0.00    +0.000 A 
ATOM     11  C   UNL     1      -0.283  11.827  21.454  0.00  0.00    +0.000 A 
ATOM     12  C   UNL     1      -0.967  11.554  22.631  0.00  0.00    +0.000 A 
ATOM     13  C   UNL     1      -0.889  10.286  23.211  0.00  0.00    +0.000 A 
ATOM     14  C   UNL     1      -0.150   9.237  22.611  0.00  0.00    +0.000 A 
ATOM     15  C   UNL     1       0.461   9.443  21.357  0.00  0.00    +0.000 A 
ATOM     16  H   UNL     1       1.492  11.555  19.216  0.00  0.00    +0.000 HD
ENDBRANCH   6   7
ENDBRANCH   2   5
BRANCH   1  17
ATOM     17  C   UNL     1       5.016   4.774  19.654  0.00  0.00    +0.000 C 
BRANCH  17  22
ATOM     18  C   UNL     1       6.002   4.373  15.941  0.00  0.00    +0.000 A 
ATOM     19  C   UNL     1       6.903   5.442  15.809  0.00  0.00    +0.000 A 
ATOM     20  C   UNL     1       7.215   6.237  16.906  0.00  0.00    +0.000 A 
ATOM     21  C   UNL     1       6.621   5.984  18.139  0.00  0.00    +0.000 A 
ATOM     22  C   UNL     1       5.663   4.962  18.289  0.00  0.00    +0.000 A 
ATOM     23  C   UNL     1       5.322   4.169  17.165  0.00  0.00    +0.000 A 
BRANCH  18  25
ATOM     24  C   UNL     1       6.338   3.972  13.632  0.00  0.00    +0.000 C 
ATOM     25  O   UNL     1       5.764   3.546  14.870  0.00  0.00    +0.000 OA
ENDBRANCH  18  25
BRANCH  23  26
ATOM     26  O   UNL     1       4.324   3.257  17.415  0.00  0.00    +0.000 OA
ATOM     27  C   UNL     1       2.995   3.551  17.010  0.00  0.00    +0.000 C 
ENDBRANCH  23  26
ENDBRANCH  17  22
ENDBRANCH   1  17
TORSDOF 6
ENDMDL
MODEL 8
REMARK VINA RESULT:      -7.6      1.204      1.782
REMARK  Name = 
REMARK  8 active torsions:
REMARK  status: ('A' for Active; 'I' for Inactive)
REMARK    1  A    between atoms: C_1  and  O_2
REMARK    2  A    between atoms: O_2  and  C_3
REMARK    3  A    between atoms: C_7  and  C_8
REMARK    4  A    between atoms: C_8  and  N_9
REMARK    5  A    between atoms: C_10  and  C_12
REMARK    6  A    between atoms: C_13  and  C_14
REMARK    7  A    between atoms: C_23  and  O_24
REMARK    8  A    between atoms: O_24  and  C_25
REMARK                            x       y       z     vdW  Elec       q    Type
REMARK                         _______ _______ _______ _____ _____    ______ ____
ROOT
ATOM      1  N   UNL     1       7.069   6.200  18.541  0.00  0.00    +0.000 N 
ATOM      2  C   UNL     1       7.696   7.230  17.888  0.00  0.00    +0.000 C 
ATOM      3  O   UNL     1       7.600   7.461  16.690  0.00  0.00    +0.000 OA
ATOM      4  H   UNL     1       7.197   6.058  19.537  0.00  0.00    +0.000 HD
ENDROOT
BRANCH   2   5
ATOM      5  C   UNL     1       8.555   8.101  18.814  0.00  0.00    +0.000 C 
ATOM      6  C   UNL     1       8.633   9.413  18.545  0.00  0.00    +0.000 C 
BRANCH   6   7
ATOM      7  C   UNL     1       9.378  10.510  19.102  0.00  0.00    +0.000 A 
ATOM      8  C   UNL     1       9.242  10.729  20.464  0.00  0.00    +0.000 A 
ATOM      9  N   UNL     1       9.379  12.077  20.604  0.00  0.00    +0.000 N 
ATOM     10  C   UNL     1      10.343  12.479  19.716  0.00  0.00    +0.000 A 
ATOM     11  C   UNL     1      11.169  13.606  19.765  0.00  0.00    +0.000 A 
ATOM     12  C   UNL     1      12.068  13.769  18.719  0.00  0.00    +0.000 A 
ATOM     13  C   UNL     1      12.056  12.885  17.638  0.00  0.00    +0.000 A 
ATOM     14  C   UNL     1      11.164  11.786  17.585  0.00  0.00    +0.000 A 
ATOM     15  C   UNL     1      10.319  11.521  18.682  0.00  0.00    +0.000 A 
ATOM     16  H   UNL     1       8.962  12.647  21.328  0.00  0.00    +0.000 HD
ENDBRANCH   6   7
ENDBRANCH   2   5
BRANCH   1  17
ATOM     17  C   UNL     1       6.123   5.292  17.887  0.00  0.00    +0.000 C 
BRANCH  17  22
ATOM     18  C   UNL     1       2.350   5.246  18.719  0.00  0.00    +0.000 A 
ATOM     19  C   UNL     1       1.997   6.548  18.332  0.00  0.00    +0.000 A 
ATOM     20  C   UNL     1       2.946   7.397  17.773  0.00  0.00    +0.000 A 
ATOM     21  C   UNL     1       4.258   6.961  17.611  0.00  0.00    +0.000 A 
ATOM     22  C   UNL     1       4.661   5.685  18.050  0.00  0.00    +0.000 A 
ATOM     23  C   UNL     1       3.700   4.828  18.646  0.00  0.00    +0.000 A 
BRANCH  18  25
ATOM     24  C   UNL     1       1.273   4.332  20.619  0.00  0.00    +0.000 C 
ATOM     25  O   UNL     1       1.386   4.391  19.195  0.00  0.00    +0.000 OA
ENDBRANCH  18  25
BRANCH  23  26
ATOM     26  O   UNL     1       4.226   3.643  19.102  0.00  0.00    +0.000 OA
ATOM     27  C   UNL     1       3.900   2.434  18.432  0.00  0.00    +0.000 C 
ENDBRANCH  23  26
ENDBRANCH  17  22
ENDBRANCH   1  17
TORSDOF 6
ENDMDL
MODEL 9
REMARK VINA RESULT:      -7.6      1.885      2.545
REMARK  Name = 
REMARK  8 active torsions:
REMARK  status: ('A' for Active; 'I' for Inactive)
REMARK    1  A    between atoms: C_1  and  O_2
REMARK    2  A    between atoms: O_2  and  C_3
REMARK    3  A    between atoms: C_7  and  C_8
REMARK    4  A    between atoms: C_8  and  N_9
REMARK    5  A    between atoms: C_10  and  C_12
REMARK    6  A    between atoms: C_13  and  C_14
REMARK    7  A    between atoms: C_23  and  O_24
REMARK    8  A    between atoms: O_24  and  C_25
REMARK                            x       y       z     vdW  Elec       q    Type
REMARK                         _______ _______ _______ _____ _____    ______ ____
ROOT
ATOM      1  N   UNL     1       6.130   7.241  17.046  0.00  0.00    +0.000 N 
ATOM      2  C   UNL     1       7.353   6.764  17.442  0.00  0.00    +0.000 C 
ATOM      3  O   UNL     1       7.769   5.635  17.221  0.00  0.00    +0.000 OA
ATOM      4  H   UNL     1       5.841   8.188  17.267  0.00  0.00    +0.000 HD
ENDROOT
BRANCH   2   5
ATOM      5  C   UNL     1       8.187   7.799  18.207  0.00  0.00    +0.000 C 
ATOM      6  C   UNL     1       8.024   9.093  17.891  0.00  0.00    +0.000 C 
BRANCH   6   7
ATOM      7  C   UNL     1       8.661  10.315  18.302  0.00  0.00    +0.000 A 
ATOM      8  C   UNL     1       9.798  10.194  19.086  0.00  0.00    +0.000 A 
ATOM      9  N   UNL     1       9.772  11.294  19.889  0.00  0.00    +0.000 N 
ATOM     10  C   UNL     1       9.304  12.336  19.132  0.00  0.00    +0.000 A 
ATOM     11  C   UNL     1       9.510  13.709  19.300  0.00  0.00    +0.000 A 
ATOM     12  C   UNL     1       8.909  14.551  18.373  0.00  0.00    +0.000 A 
ATOM     13  C   UNL     1       8.067  14.027  17.391  0.00  0.00    +0.000 A 
ATOM     14  C   UNL     1       7.825  12.635  17.282  0.00  0.00    +0.000 A 
ATOM     15  C   UNL     1       8.509  11.741  18.130  0.00  0.00    +0.000 A 
ATOM     16  H   UNL     1      10.167  11.364  20.817  0.00  0.00    +0.000 HD
ENDBRANCH   6   7
ENDBRANCH   2   5
BRANCH   1  17
ATOM     17  C   UNL     1       5.197   6.470  16.219  0.00  0.00    +0.000 C 
BRANCH  17  22
ATOM     18  C   UNL     1       2.651   5.032  18.744  0.00  0.00    +0.000 A 
ATOM     19  C   UNL     1       2.641   3.686  18.345  0.00  0.00    +0.000 A 
ATOM     20  C   UNL     1       3.473   3.252  17.318  0.00  0.00    +0.000 A 
ATOM     21  C   UNL     1       4.309   4.158  16.671  0.00  0.00    +0.000 A 
ATOM     22  C   UNL     1       4.294   5.527  17.002  0.00  0.00    +0.000 A 
ATOM     23  C   UNL     1       3.425   5.976  18.029  0.00  0.00    +0.000 A 
BRANCH  18  25
ATOM     24  C   UNL     1       1.699   4.447  20.831  0.00  0.00    +0.000 C 
ATOM     25  O   UNL     1       1.884   5.432  19.811  0.00  0.00    +0.000 OA
ENDBRANCH  18  25
BRANCH  23  26
ATOM     26  O   UNL     1       3.444   7.339  18.210  0.00  0.00    +0.000 OA
ATOM     27  C   UNL     1       2.318   8.109  17.812  0.00  0.00    +0.000 C 
ENDBRANCH  23  26
ENDBRANCH  17  22
ENDBRANCH   1  17
TORSDOF 6
ENDMDL
