MODEL 1
REMARK VINA RESULT:      -6.9      0.000      0.000
REMARK  Name = 
REMARK  9 active torsions:
REMARK  status: ('A' for Active; 'I' for Inactive)
REMARK    1  A    between atoms: C_1  and  O_2
REMARK    2  A    between atoms: O_2  and  C_3
REMARK    3  A    between atoms: C_3  and  C_4
REMARK    4  A    between atoms: C_6  and  C_7
REMARK    5  A    between atoms: N_8  and  C_9
REMARK    6  A    between atoms: C_9  and  C_10
REMARK    7  A    between atoms: N_12  and  C_13
REMARK    8  A    between atoms: C_13  and  C_14
REMARK    9  A    between atoms: C_21  and  C_22
REMARK                            x       y       z     vdW  Elec       q    Type
REMARK                         _______ _______ _______ _____ _____    ______ ____
ROOT
ATOM      1  C   UNL     1       5.260   4.719  16.250  0.00  0.00    +0.000 A 
ATOM      2  C   UNL     1       4.238   3.712  16.454  0.00  0.00    +0.000 A 
ATOM      3  C   UNL     1       3.831   3.344  17.683  0.00  0.00    +0.000 A 
ATOM      4  C   UNL     1       2.758   2.301  17.847  0.00  0.00    +0.000 C 
ATOM      5  N   UNL     1       4.446   3.898  18.807  0.00  0.00    +0.000 N 
ATOM      6  C   UNL     1       5.538   4.762  18.693  0.00  0.00    +0.000 A 
ATOM      7  O   UNL     1       6.212   5.107  19.664  0.00  0.00    +0.000 OA
ATOM      8  C   UNL     1       5.878   5.259  17.325  0.00  0.00    +0.000 A 
ENDROOT
BRANCH   8   9
ATOM      9  C   UNL     1       6.856   6.283  17.209  0.00  0.00    +0.000 C 
ATOM     10  N   UNL     1       7.678   7.088  17.048  0.00  0.00    +0.000 NA
ENDBRANCH   8   9
BRANCH   1  11
ATOM     11  C   UNL     1       5.582   5.093  14.817  0.00  0.00    +0.000 C 
BRANCH  11  13
ATOM     12  C   UNL     1       6.262   3.709  13.036  0.00  0.00    +0.000 C 
ATOM     13  O   UNL     1       6.600   4.226  14.320  0.00  0.00    +0.000 OA
ENDBRANCH  11  13
ENDBRANCH   1  11
BRANCH   5  14
ATOM     14  C   UNL     1       4.007   3.585  20.173  0.00  0.00    +0.000 C 
BRANCH  14  15
ATOM     15  C   UNL     1       2.733   4.311  20.610  0.00  0.00    +0.000 C 
ATOM     16  O   UNL     1       1.855   3.745  21.262  0.00  0.00    +0.000 OA
ATOM     17  N   UNL     1       2.637   5.634  20.232  0.00  0.00    +0.000 N 
ATOM     18  H   UNL     1       3.512   6.129  20.044  0.00  0.00    +0.000 HD
BRANCH  17  19
ATOM     19  C   UNL     1       1.495   6.414  20.690  0.00  0.00    +0.000 C 
BRANCH  19  20
ATOM     20  C   UNL     1       1.708   7.928  20.686  0.00  0.00    +0.000 C 
ATOM     21  C   UNL     1       0.604   8.723  21.364  0.00  0.00    +0.000 C 
ATOM     22  C   UNL     1       0.625  10.019  20.593  0.00  0.00    +0.000 C 
ATOM     23  C   UNL     1       0.955   9.551  19.194  0.00  0.00    +0.000 C 
ATOM     24  O   UNL     1       1.812   8.412  19.334  0.00  0.00    +0.000 OA
ENDBRANCH  19  20
ENDBRANCH  17  19
ENDBRANCH  14  15
ENDBRANCH   5  14
TORSDOF 7
ENDMDL
MODEL 2
REMARK VINA RESULT:      -6.8      0.900      1.238
REMARK  Name = 
REMARK  9 active torsions:
REMARK  status: ('A' for Active; 'I' for Inactive)
REMARK    1  A    between atoms: C_1  and  O_2
REMARK    2  A    between atoms: O_2  and  C_3
REMARK    3  A    between atoms: C_3  and  C_4
REMARK    4  A    between atoms: C_6  and  C_7
REMARK    5  A    between atoms: N_8  and  C_9
REMARK    6  A    between atoms: C_9  and  C_10
REMARK    7  A    between atoms: N_12  and  C_13
REMARK    8  A    between atoms: C_13  and  C_14
REMARK    9  A    between atoms: C_21  and  C_22
REMARK                            x       y       z     vdW  Elec       q    Type
REMARK                         _______ _______ _______ _____ _____    ______ ____
ROOT
ATOM      1  C   UNL     1       5.318   4.878  16.192  0.00  0.00    +0.000 A 
ATOM      2  C   UNL     1       4.265   3.893  16.333  0.00  0.00    +0.000 A 
ATOM      3  C   UNL     1       3.671   3.643  17.515  0.00  0.00    +0.000 A 
ATOM      4  C   UNL     1       2.573   2.618  17.612  0.00  0.00    +0.000 C 
ATOM      5  N   UNL     1       4.113   4.306  18.662  0.00  0.00    +0.000 N 
ATOM      6  C   UNL     1       5.221   5.158  18.633  0.00  0.00    +0.000 A 
ATOM      7  O   UNL     1       5.742   5.597  19.659  0.00  0.00    +0.000 OA
ATOM      8  C   UNL     1       5.771   5.522  17.293  0.00  0.00    +0.000 A 
ENDROOT
BRANCH   8   9
ATOM      9  C   UNL     1       6.767   6.533  17.229  0.00  0.00    +0.000 C 
ATOM     10  N   UNL     1       7.621   7.319  17.229  0.00  0.00    +0.000 NA
ENDBRANCH   8   9
BRANCH   1  11
ATOM     11  C   UNL     1       5.859   5.113  14.796  0.00  0.00    +0.000 C 
BRANCH  11  13
ATOM     12  C   UNL     1       6.113   3.625  12.989  0.00  0.00    +0.000 C 
ATOM     13  O   UNL     1       6.493   3.924  14.329  0.00  0.00    +0.000 OA
ENDBRANCH  11  13
ENDBRANCH   1  11
BRANCH   5  14
ATOM     14  C   UNL     1       3.467   4.124  19.967  0.00  0.00    +0.000 C 
BRANCH  14  15
ATOM     15  C   UNL     1       2.365   5.140  20.275  0.00  0.00    +0.000 C 
ATOM     16  O   UNL     1       1.224   4.789  20.577  0.00  0.00    +0.000 OA
ATOM     17  N   UNL     1       2.735   6.467  20.197  0.00  0.00    +0.000 N 
ATOM     18  H   UNL     1       3.727   6.682  20.319  0.00  0.00    +0.000 HD
BRANCH  17  19
ATOM     19  C   UNL     1       1.764   7.488  20.565  0.00  0.00    +0.000 C 
BRANCH  19  20
ATOM     20  C   UNL     1       1.245   8.332  19.400  0.00  0.00    +0.000 C 
ATOM     21  C   UNL     1       2.257   8.566  18.289  0.00  0.00    +0.000 C 
ATOM     22  C   UNL     1       1.843   9.915  17.761  0.00  0.00    +0.000 C 
ATOM     23  C   UNL     1       1.393  10.625  19.017  0.00  0.00    +0.000 C 
ATOM     24  O   UNL     1       0.825   9.626  19.872  0.00  0.00    +0.000 OA
ENDBRANCH  19  20
ENDBRANCH  17  19
ENDBRANCH  14  15
ENDBRANCH   5  14
TORSDOF 7
ENDMDL
MODEL 3
REMARK VINA RESULT:      -6.8      2.578      6.935
REMARK  Name = 
REMARK  9 active torsions:
REMARK  status: ('A' for Active; 'I' for Inactive)
REMARK    1  A    between atoms: C_1  and  O_2
REMARK    2  A    between atoms: O_2  and  C_3
REMARK    3  A    between atoms: C_3  and  C_4
REMARK    4  A    between atoms: C_6  and  C_7
REMARK    5  A    between atoms: N_8  and  C_9
REMARK    6  A    between atoms: C_9  and  C_10
REMARK    7  A    between atoms: N_12  and  C_13
REMARK    8  A    between atoms: C_13  and  C_14
REMARK    9  A    between atoms: C_21  and  C_22
REMARK                            x       y       z     vdW  Elec       q    Type
REMARK                         _______ _______ _______ _____ _____    ______ ____
ROOT
ATOM      1  C   UNL     1       3.069   4.137  19.606  0.00  0.00    +0.000 A 
ATOM      2  C   UNL     1       2.685   5.423  19.058  0.00  0.00    +0.000 A 
ATOM      3  C   UNL     1       3.555   6.206  18.392  0.00  0.00    +0.000 A 
ATOM      4  C   UNL     1       3.109   7.530  17.832  0.00  0.00    +0.000 C 
ATOM      5  N   UNL     1       4.887   5.806  18.268  0.00  0.00    +0.000 N 
ATOM      6  C   UNL     1       5.366   4.653  18.895  0.00  0.00    +0.000 A 
ATOM      7  O   UNL     1       6.567   4.387  18.959  0.00  0.00    +0.000 OA
ATOM      8  C   UNL     1       4.357   3.736  19.507  0.00  0.00    +0.000 A 
ENDROOT
BRANCH   8   9
ATOM      9  C   UNL     1       4.801   2.471  19.978  0.00  0.00    +0.000 C 
ATOM     10  N   UNL     1       5.138   1.457  20.431  0.00  0.00    +0.000 NA
ENDBRANCH   8   9
BRANCH   1  11
ATOM     11  C   UNL     1       1.981   3.322  20.276  0.00  0.00    +0.000 C 
BRANCH  11  13
ATOM     12  C   UNL     1       0.542   2.302  18.716  0.00  0.00    +0.000 C 
ATOM     13  O   UNL     1       1.721   2.154  19.500  0.00  0.00    +0.000 OA
ENDBRANCH  11  13
ENDBRANCH   1  11
BRANCH   5  14
ATOM     14  C   UNL     1       5.868   6.584  17.501  0.00  0.00    +0.000 C 
BRANCH  14  15
ATOM     15  C   UNL     1       5.871   6.294  15.999  0.00  0.00    +0.000 C 
ATOM     16  O   UNL     1       5.076   6.837  15.231  0.00  0.00    +0.000 OA
ATOM     17  N   UNL     1       6.823   5.393  15.565  0.00  0.00    +0.000 N 
ATOM     18  H   UNL     1       7.656   5.280  16.146  0.00  0.00    +0.000 HD
BRANCH  17  19
ATOM     19  C   UNL     1       6.945   5.138  14.136  0.00  0.00    +0.000 C 
BRANCH  19  20
ATOM     20  C   UNL     1       6.333   3.818  13.665  0.00  0.00    +0.000 C 
ATOM     21  C   UNL     1       6.869   3.312  12.335  0.00  0.00    +0.000 C 
ATOM     22  C   UNL     1       5.681   2.571  11.774  0.00  0.00    +0.000 C 
ATOM     23  C   UNL     1       4.524   3.417  12.253  0.00  0.00    +0.000 C 
ATOM     24  O   UNL     1       4.906   3.955  13.524  0.00  0.00    +0.000 OA
ENDBRANCH  19  20
ENDBRANCH  17  19
ENDBRANCH  14  15
ENDBRANCH   5  14
TORSDOF 7
ENDMDL
MODEL 4
REMARK VINA RESULT:      -6.7      2.781      7.178
REMARK  Name = 
REMARK  9 active torsions:
REMARK  status: ('A' for Active; 'I' for Inactive)
REMARK    1  A    between atoms: C_1  and  O_2
REMARK    2  A    between atoms: O_2  and  C_3
REMARK    3  A    between atoms: C_3  and  C_4
REMARK    4  A    between atoms: C_6  and  C_7
REMARK    5  A    between atoms: N_8  and  C_9
REMARK    6  A    between atoms: C_9  and  C_10
REMARK    7  A    between atoms: N_12  and  C_13
REMARK    8  A    between atoms: C_13  and  C_14
REMARK    9  A    between atoms: C_21  and  C_22
REMARK                            x       y       z     vdW  Elec       q    Type
REMARK                         _______ _______ _______ _____ _____    ______ ____
ROOT
ATOM      1  C   UNL     1       3.132   4.312  19.015  0.00  0.00    +0.000 A 
ATOM      2  C   UNL     1       2.918   5.528  18.256  0.00  0.00    +0.000 A 
ATOM      3  C   UNL     1       3.929   6.187  17.659  0.00  0.00    +0.000 A 
ATOM      4  C   UNL     1       3.658   7.441  16.872  0.00  0.00    +0.000 C 
ATOM      5  N   UNL     1       5.238   5.729  17.816  0.00  0.00    +0.000 N 
ATOM      6  C   UNL     1       5.541   4.651  18.654  0.00  0.00    +0.000 A 
ATOM      7  O   UNL     1       6.697   4.355  18.956  0.00  0.00    +0.000 OA
ATOM      8  C   UNL     1       4.394   3.857  19.190  0.00  0.00    +0.000 A 
ENDROOT
BRANCH   8   9
ATOM      9  C   UNL     1       4.681   2.650  19.881  0.00  0.00    +0.000 C 
ATOM     10  N   UNL     1       4.940   1.705  20.504  0.00  0.00    +0.000 NA
ENDBRANCH   8   9
BRANCH   1  11
ATOM     11  C   UNL     1       1.904   3.629  19.582  0.00  0.00    +0.000 C 
BRANCH  11  13
ATOM     12  C   UNL     1       1.282   2.734  21.670  0.00  0.00    +0.000 C 
ATOM     13  O   UNL     1       1.848   3.850  20.989  0.00  0.00    +0.000 OA
ENDBRANCH  11  13
ENDBRANCH   1  11
BRANCH   5  14
ATOM     14  C   UNL     1       6.376   6.366  17.141  0.00  0.00    +0.000 C 
BRANCH  14  15
ATOM     15  C   UNL     1       7.027   5.509  16.054  0.00  0.00    +0.000 C 
ATOM     16  O   UNL     1       7.911   4.691  16.314  0.00  0.00    +0.000 OA
ATOM     17  N   UNL     1       6.558   5.709  14.772  0.00  0.00    +0.000 N 
ATOM     18  H   UNL     1       5.615   6.090  14.676  0.00  0.00    +0.000 HD
BRANCH  17  19
ATOM     19  C   UNL     1       7.067   4.865  13.699  0.00  0.00    +0.000 C 
BRANCH  19  20
ATOM     20  C   UNL     1       6.183   3.667  13.350  0.00  0.00    +0.000 C 
ATOM     21  C   UNL     1       6.678   2.837  12.177  0.00  0.00    +0.000 C 
ATOM     22  C   UNL     1       5.391   2.313  11.591  0.00  0.00    +0.000 C 
ATOM     23  C   UNL     1       4.448   3.475  11.807  0.00  0.00    +0.000 C 
ATOM     24  O   UNL     1       4.852   4.110  13.025  0.00  0.00    +0.000 OA
ENDBRANCH  19  20
ENDBRANCH  17  19
ENDBRANCH  14  15
ENDBRANCH   5  14
TORSDOF 7
ENDMDL
MODEL 5
REMARK VINA RESULT:      -6.6      3.398      6.080
REMARK  Name = 
REMARK  9 active torsions:
REMARK  status: ('A' for Active; 'I' for Inactive)
REMARK    1  A    between atoms: C_1  and  O_2
REMARK    2  A    between atoms: O_2  and  C_3
REMARK    3  A    between atoms: C_3  and  C_4
REMARK    4  A    between atoms: C_6  and  C_7
REMARK    5  A    between atoms: N_8  and  C_9
REMARK    6  A    between atoms: C_9  and  C_10
REMARK    7  A    between atoms: N_12  and  C_13
REMARK    8  A    between atoms: C_13  and  C_14
REMARK    9  A    between atoms: C_21  and  C_22
REMARK                            x       y       z     vdW  Elec       q    Type
REMARK                         _______ _______ _______ _____ _____    ______ ____
ROOT
ATOM      1  C   UNL     1       3.981   3.134  17.727  0.00  0.00    +0.000 A 
ATOM      2  C   UNL     1       4.392   3.701  16.458  0.00  0.00    +0.000 A 
ATOM      3  C   UNL     1       5.458   4.516  16.350  0.00  0.00    +0.000 A 
ATOM      4  C   UNL     1       5.854   5.074  15.010  0.00  0.00    +0.000 C 
ATOM      5  N   UNL     1       6.165   4.882  17.497  0.00  0.00    +0.000 N 
ATOM      6  C   UNL     1       5.742   4.496  18.772  0.00  0.00    +0.000 A 
ATOM      7  O   UNL     1       6.234   4.962  19.800  0.00  0.00    +0.000 OA
ATOM      8  C   UNL     1       4.645   3.485  18.853  0.00  0.00    +0.000 A 
ENDROOT
BRANCH   8   9
ATOM      9  C   UNL     1       4.331   2.937  20.126  0.00  0.00    +0.000 C 
ATOM     10  N   UNL     1       4.093   2.421  21.138  0.00  0.00    +0.000 NA
ENDBRANCH   8   9
BRANCH   1  11
ATOM     11  C   UNL     1       2.805   2.179  17.706  0.00  0.00    +0.000 C 
BRANCH  11  13
ATOM     12  C   UNL     1       0.993   3.095  18.901  0.00  0.00    +0.000 C 
ATOM     13  O   UNL     1       1.592   2.925  17.619  0.00  0.00    +0.000 OA
ENDBRANCH  11  13
ENDBRANCH   1  11
BRANCH   5  14
ATOM     14  C   UNL     1       7.372   5.715  17.438  0.00  0.00    +0.000 C 
BRANCH  14  15
ATOM     15  C   UNL     1       7.101   7.221  17.415  0.00  0.00    +0.000 C 
ATOM     16  O   UNL     1       6.019   7.680  17.047  0.00  0.00    +0.000 OA
ATOM     17  N   UNL     1       8.141   8.024  17.836  0.00  0.00    +0.000 N 
ATOM     18  H   UNL     1       8.831   7.602  18.460  0.00  0.00    +0.000 HD
BRANCH  17  19
ATOM     19  C   UNL     1       7.924   9.462  17.927  0.00  0.00    +0.000 C 
BRANCH  19  20
ATOM     20  C   UNL     1       9.158  10.274  18.321  0.00  0.00    +0.000 C 
ATOM     21  C   UNL     1       9.403  10.363  19.819  0.00  0.00    +0.000 C 
ATOM     22  C   UNL     1      10.071  11.708  19.953  0.00  0.00    +0.000 C 
ATOM     23  C   UNL     1       9.361  12.522  18.896  0.00  0.00    +0.000 C 
ATOM     24  O   UNL     1       9.044  11.622  17.828  0.00  0.00    +0.000 OA
ENDBRANCH  19  20
ENDBRANCH  17  19
ENDBRANCH  14  15
ENDBRANCH   5  14
TORSDOF 7
ENDMDL
MODEL 6
REMARK VINA RESULT:      -6.6      1.731      2.277
REMARK  Name = 
REMARK  9 active torsions:
REMARK  status: ('A' for Active; 'I' for Inactive)
REMARK    1  A    between atoms: C_1  and  O_2
REMARK    2  A    between atoms: O_2  and  C_3
REMARK    3  A    between atoms: C_3  and  C_4
REMARK    4  A    between atoms: C_6  and  C_7
REMARK    5  A    between atoms: N_8  and  C_9
REMARK    6  A    between atoms: C_9  and  C_10
REMARK    7  A    between atoms: N_12  and  C_13
REMARK    8  A    between atoms: C_13  and  C_14
REMARK    9  A    between atoms: C_21  and  C_22
REMARK                            x       y       z     vdW  Elec       q    Type
REMARK                         _______ _______ _______ _____ _____    ______ ____
ROOT
ATOM      1  C   UNL     1       5.116   3.944  16.720  0.00  0.00    +0.000 A 
ATOM      2  C   UNL     1       3.670   3.854  16.674  0.00  0.00    +0.000 A 
ATOM      3  C   UNL     1       2.891   4.325  17.666  0.00  0.00    +0.000 A 
ATOM      4  C   UNL     1       1.393   4.220  17.570  0.00  0.00    +0.000 C 
ATOM      5  N   UNL     1       3.483   4.868  18.808  0.00  0.00    +0.000 N 
ATOM      6  C   UNL     1       4.869   4.854  18.991  0.00  0.00    +0.000 A 
ATOM      7  O   UNL     1       5.396   5.148  20.065  0.00  0.00    +0.000 OA
ATOM      8  C   UNL     1       5.710   4.455  17.823  0.00  0.00    +0.000 A 
ENDROOT
BRANCH   8   9
ATOM      9  C   UNL     1       7.118   4.618  17.925  0.00  0.00    +0.000 C 
ATOM     10  N   UNL     1       8.256   4.796  18.068  0.00  0.00    +0.000 NA
ENDBRANCH   8   9
BRANCH   1  11
ATOM     11  C   UNL     1       5.876   3.437  15.511  0.00  0.00    +0.000 C 
BRANCH  11  13
ATOM     12  C   UNL     1       5.837   3.819  13.188  0.00  0.00    +0.000 C 
ATOM     13  O   UNL     1       5.833   4.420  14.479  0.00  0.00    +0.000 OA
ENDBRANCH  11  13
ENDBRANCH   1  11
BRANCH   5  14
ATOM     14  C   UNL     1       2.690   5.454  19.896  0.00  0.00    +0.000 C 
BRANCH  14  15
ATOM     15  C   UNL     1       2.350   6.933  19.704  0.00  0.00    +0.000 C 
ATOM     16  O   UNL     1       2.617   7.531  18.662  0.00  0.00    +0.000 OA
ATOM     17  N   UNL     1       1.723   7.547  20.770  0.00  0.00    +0.000 N 
ATOM     18  H   UNL     1       1.206   6.945  21.415  0.00  0.00    +0.000 HD
BRANCH  17  19
ATOM     19  C   UNL     1       1.287   8.929  20.625  0.00  0.00    +0.000 C 
BRANCH  19  20
ATOM     20  C   UNL     1       0.872   9.611  21.929  0.00  0.00    +0.000 C 
ATOM     21  C   UNL     1      -0.444   9.117  22.510  0.00  0.00    +0.000 C 
ATOM     22  C   UNL     1      -0.964  10.346  23.212  0.00  0.00    +0.000 C 
ATOM     23  C   UNL     1      -0.504  11.455  22.292  0.00  0.00    +0.000 C 
ATOM     24  O   UNL     1       0.741  11.031  21.728  0.00  0.00    +0.000 OA
ENDBRANCH  19  20
ENDBRANCH  17  19
ENDBRANCH  14  15
ENDBRANCH   5  14
TORSDOF 7
ENDMDL
MODEL 7
REMARK VINA RESULT:      -6.6      2.460      7.139
REMARK  Name = 
REMARK  9 active torsions:
REMARK  status: ('A' for Active; 'I' for Inactive)
REMARK    1  A    between atoms: C_1  and  O_2
REMARK    2  A    between atoms: O_2  and  C_3
REMARK    3  A    between atoms: C_3  and  C_4
REMARK    4  A    between atoms: C_6  and  C_7
REMARK    5  A    between atoms: N_8  and  C_9
REMARK    6  A    between atoms: C_9  and  C_10
REMARK    7  A    between atoms: N_12  and  C_13
REMARK    8  A    between atoms: C_13  and  C_14
REMARK    9  A    between atoms: C_21  and  C_22
REMARK                            x       y       z     vdW  Elec       q    Type
REMARK                         _______ _______ _______ _____ _____    ______ ____
ROOT
ATOM      1  C   UNL     1       2.299   4.032  18.832  0.00  0.00    +0.000 A 
ATOM      2  C   UNL     1       2.119   5.459  18.654  0.00  0.00    +0.000 A 
ATOM      3  C   UNL     1       3.107   6.254  18.201  0.00  0.00    +0.000 A 
ATOM      4  C   UNL     1       2.872   7.729  18.021  0.00  0.00    +0.000 C 
ATOM      5  N   UNL     1       4.367   5.710  17.946  0.00  0.00    +0.000 N 
ATOM      6  C   UNL     1       4.659   4.374  18.234  0.00  0.00    +0.000 A 
ATOM      7  O   UNL     1       5.806   3.926  18.200  0.00  0.00    +0.000 OA
ATOM      8  C   UNL     1       3.516   3.486  18.603  0.00  0.00    +0.000 A 
ENDROOT
BRANCH   8   9
ATOM      9  C   UNL     1       3.758   2.091  18.712  0.00  0.00    +0.000 C 
ATOM     10  N   UNL     1       3.943   0.956  18.874  0.00  0.00    +0.000 NA
ENDBRANCH   8   9
BRANCH   1  11
ATOM     11  C   UNL     1       1.091   3.237  19.286  0.00  0.00    +0.000 C 
BRANCH  11  13
ATOM     12  C   UNL     1       1.589   3.227  21.588  0.00  0.00    +0.000 C 
ATOM     13  O   UNL     1       1.447   2.437  20.411  0.00  0.00    +0.000 OA
ENDBRANCH  11  13
ENDBRANCH   1  11
BRANCH   5  14
ATOM     14  C   UNL     1       5.466   6.510  17.392  0.00  0.00    +0.000 C 
BRANCH  14  15
ATOM     15  C   UNL     1       5.714   6.296  15.897  0.00  0.00    +0.000 C 
ATOM     16  O   UNL     1       5.105   6.938  15.040  0.00  0.00    +0.000 OA
ATOM     17  N   UNL     1       6.662   5.346  15.576  0.00  0.00    +0.000 N 
ATOM     18  H   UNL     1       7.370   5.139  16.283  0.00  0.00    +0.000 HD
BRANCH  17  19
ATOM     19  C   UNL     1       7.016   5.154  14.176  0.00  0.00    +0.000 C 
BRANCH  19  20
ATOM     20  C   UNL     1       6.503   3.854  13.557  0.00  0.00    +0.000 C 
ATOM     21  C   UNL     1       7.026   3.571  12.158  0.00  0.00    +0.000 C 
ATOM     22  C   UNL     1       5.887   2.800  11.542  0.00  0.00    +0.000 C 
ATOM     23  C   UNL     1       4.680   3.468  12.160  0.00  0.00    +0.000 C 
ATOM     24  O   UNL     1       5.065   3.875  13.478  0.00  0.00    +0.000 OA
ENDBRANCH  19  20
ENDBRANCH  17  19
ENDBRANCH  14  15
ENDBRANCH   5  14
TORSDOF 7
ENDMDL
MODEL 8
REMARK VINA RESULT:      -6.6      2.257      3.664
REMARK  Name = 
REMARK  9 active torsions:
REMARK  status: ('A' for Active; 'I' for Inactive)
REMARK    1  A    between atoms: C_1  and  O_2
REMARK    2  A    between atoms: O_2  and  C_3
REMARK    3  A    between atoms: C_3  and  C_4
REMARK    4  A    between atoms: C_6  and  C_7
REMARK    5  A    between atoms: N_8  and  C_9
REMARK    6  A    between atoms: C_9  and  C_10
REMARK    7  A    between atoms: N_12  and  C_13
REMARK    8  A    between atoms: C_13  and  C_14
REMARK    9  A    between atoms: C_21  and  C_22
REMARK                            x       y       z     vdW  Elec       q    Type
REMARK                         _______ _______ _______ _____ _____    ______ ____
ROOT
ATOM      1  C   UNL     1       6.045   3.922  14.232  0.00  0.00    +0.000 A 
ATOM      2  C   UNL     1       5.095   3.371  15.177  0.00  0.00    +0.000 A 
ATOM      3  C   UNL     1       4.972   3.850  16.430  0.00  0.00    +0.000 A 
ATOM      4  C   UNL     1       3.964   3.254  17.375  0.00  0.00    +0.000 C 
ATOM      5  N   UNL     1       5.822   4.869  16.865  0.00  0.00    +0.000 N 
ATOM      6  C   UNL     1       6.861   5.348  16.062  0.00  0.00    +0.000 A 
ATOM      7  O   UNL     1       7.734   6.102  16.492  0.00  0.00    +0.000 OA
ATOM      8  C   UNL     1       6.886   4.901  14.636  0.00  0.00    +0.000 A 
ENDROOT
BRANCH   8   9
ATOM      9  C   UNL     1       7.813   5.522  13.756  0.00  0.00    +0.000 C 
ATOM     10  N   UNL     1       8.553   5.977  12.986  0.00  0.00    +0.000 NA
ENDBRANCH   8   9
BRANCH   1  11
ATOM     11  C   UNL     1       6.039   3.340  12.832  0.00  0.00    +0.000 C 
BRANCH  11  13
ATOM     12  C   UNL     1       4.461   2.727  11.195  0.00  0.00    +0.000 C 
ATOM     13  O   UNL     1       4.820   3.691  12.180  0.00  0.00    +0.000 OA
ENDBRANCH  11  13
ENDBRANCH   1  11
BRANCH   5  14
ATOM     14  C   UNL     1       5.698   5.475  18.196  0.00  0.00    +0.000 C 
BRANCH  14  15
ATOM     15  C   UNL     1       4.304   6.018  18.517  0.00  0.00    +0.000 C 
ATOM     16  O   UNL     1       3.693   6.741  17.731  0.00  0.00    +0.000 OA
ATOM     17  N   UNL     1       3.781   5.641  19.737  0.00  0.00    +0.000 N 
ATOM     18  H   UNL     1       4.141   4.779  20.151  0.00  0.00    +0.000 HD
BRANCH  17  19
ATOM     19  C   UNL     1       2.422   6.045  20.071  0.00  0.00    +0.000 C 
BRANCH  19  20
ATOM     20  C   UNL     1       1.515   4.912  20.554  0.00  0.00    +0.000 C 
ATOM     21  C   UNL     1       2.174   3.944  21.524  0.00  0.00    +0.000 C 
ATOM     22  C   UNL     1       1.456   2.653  21.224  0.00  0.00    +0.000 C 
ATOM     23  C   UNL     1       1.238   2.750  19.731  0.00  0.00    +0.000 C 
ATOM     24  O   UNL     1       1.048   4.138  19.433  0.00  0.00    +0.000 OA
ENDBRANCH  19  20
ENDBRANCH  17  19
ENDBRANCH  14  15
ENDBRANCH   5  14
TORSDOF 7
ENDMDL
MODEL 9
REMARK VINA RESULT:      -6.6      2.409      6.962
REMARK  Name = 
REMARK  9 active torsions:
REMARK  status: ('A' for Active; 'I' for Inactive)
REMARK    1  A    between atoms: C_1  and  O_2
REMARK    2  A    between atoms: O_2  and  C_3
REMARK    3  A    between atoms: C_3  and  C_4
REMARK    4  A    between atoms: C_6  and  C_7
REMARK    5  A    between atoms: N_8  and  C_9
REMARK    6  A    between atoms: C_9  and  C_10
REMARK    7  A    between atoms: N_12  and  C_13
REMARK    8  A    between atoms: C_13  and  C_14
REMARK    9  A    between atoms: C_21  and  C_22
REMARK                            x       y       z     vdW  Elec       q    Type
REMARK                         _______ _______ _______ _____ _____    ______ ____
ROOT
ATOM      1  C   UNL     1       2.816   4.385  19.857  0.00  0.00    +0.000 A 
ATOM      2  C   UNL     1       2.451   5.666  19.286  0.00  0.00    +0.000 A 
ATOM      3  C   UNL     1       3.318   6.402  18.566  0.00  0.00    +0.000 A 
ATOM      4  C   UNL     1       2.891   7.722  17.983  0.00  0.00    +0.000 C 
ATOM      5  N   UNL     1       4.632   5.957  18.404  0.00  0.00    +0.000 N 
ATOM      6  C   UNL     1       5.099   4.808  19.048  0.00  0.00    +0.000 A 
ATOM      7  O   UNL     1       6.293   4.507  19.075  0.00  0.00    +0.000 OA
ATOM      8  C   UNL     1       4.088   3.941  19.723  0.00  0.00    +0.000 A 
ENDROOT
BRANCH   8   9
ATOM      9  C   UNL     1       4.510   2.677  20.215  0.00  0.00    +0.000 C 
ATOM     10  N   UNL     1       4.922   1.675  20.633  0.00  0.00    +0.000 NA
ENDBRANCH   8   9
BRANCH   1  11
ATOM     11  C   UNL     1       1.731   3.623  20.591  0.00  0.00    +0.000 C 
BRANCH  11  13
ATOM     12  C   UNL     1       0.880   2.359  18.795  0.00  0.00    +0.000 C 
ATOM     13  O   UNL     1       0.625   3.416  19.715  0.00  0.00    +0.000 OA
ENDBRANCH  11  13
ENDBRANCH   1  11
BRANCH   5  14
ATOM     14  C   UNL     1       5.606   6.682  17.580  0.00  0.00    +0.000 C 
BRANCH  14  15
ATOM     15  C   UNL     1       6.274   5.833  16.496  0.00  0.00    +0.000 C 
ATOM     16  O   UNL     1       7.392   6.104  16.057  0.00  0.00    +0.000 OA
ATOM     17  N   UNL     1       5.546   4.749  16.050  0.00  0.00    +0.000 N 
ATOM     18  H   UNL     1       4.841   4.369  16.685  0.00  0.00    +0.000 HD
BRANCH  17  19
ATOM     19  C   UNL     1       6.156   3.843  15.086  0.00  0.00    +0.000 C 
BRANCH  19  20
ATOM     20  C   UNL     1       5.851   4.164  13.622  0.00  0.00    +0.000 C 
ATOM     21  C   UNL     1       4.824   3.248  12.975  0.00  0.00    +0.000 C 
ATOM     22  C   UNL     1       5.269   3.238  11.535  0.00  0.00    +0.000 C 
ATOM     23  C   UNL     1       6.774   3.297  11.667  0.00  0.00    +0.000 C 
ATOM     24  O   UNL     1       7.053   4.079  12.834  0.00  0.00    +0.000 OA
ENDBRANCH  19  20
ENDBRANCH  17  19
ENDBRANCH  14  15
ENDBRANCH   5  14
TORSDOF 7
ENDMDL
