MODEL 1
REMARK VINA RESULT:      -7.8      0.000      0.000
REMARK  Name = 
REMARK  6 active torsions:
REMARK  status: ('A' for Active; 'I' for Inactive)
REMARK    1  A    between atoms: C_1  and  C_2
REMARK    2  A    between atoms: C_2  and  C_4
REMARK    3  A    between atoms: C_4  and  C_5
REMARK    4  A    between atoms: N_6  and  O_7
REMARK    5  A    between atoms: O_7  and  C_8
REMARK    6  A    between atoms: C_8  and  C_9
REMARK                            x       y       z     vdW  Elec       q    Type
REMARK                         _______ _______ _______ _____ _____    ______ ____
ROOT
ATOM      1  C   UNL     1       2.871   3.593  18.931  0.00  0.00    +0.000 A 
ATOM      2  C   UNL     1       2.647   2.683  19.892  0.00  0.00    +0.000 A 
ATOM      3  C   UNL     1       2.126   3.018  21.225  0.00  0.00    +0.000 A 
ATOM      4  O   UNL     1       1.928   2.139  22.057  0.00  0.00    +0.000 OA
ATOM      5  O   UNL     1       1.895   4.355  21.488  0.00  0.00    +0.000 OA
ATOM      6  C   UNL     1       2.092   5.335  20.497  0.00  0.00    +0.000 A 
ATOM      7  C   UNL     1       1.784   6.648  20.859  0.00  0.00    +0.000 A 
ATOM      8  C   UNL     1       1.925   7.665  19.920  0.00  0.00    +0.000 A 
ATOM      9  C   UNL     1       2.370   7.356  18.638  0.00  0.00    +0.000 A 
ATOM     10 CL   UNL     1       2.522   8.605  17.463  0.00  0.00    +0.000 Cl
ATOM     11  C   UNL     1       2.693   6.040  18.290  0.00  0.00    +0.000 A 
ATOM     12  C   UNL     1       2.559   5.002  19.223  0.00  0.00    +0.000 A 
ENDROOT
BRANCH   1  13
ATOM     13  C   UNL     1       3.446   3.194  17.598  0.00  0.00    +0.000 C 
BRANCH  13  14
ATOM     14  O   UNL     1       4.768   3.721  17.497  0.00  0.00    +0.000 OA
BRANCH  14  17
ATOM     15  C   UNL     1       6.325   4.343  16.044  0.00  0.00    +0.000 C 
ATOM     16  C   UNL     1       7.245   4.566  17.218  0.00  0.00    +0.000 C 
ATOM     17  N   UNL     1       5.101   3.907  16.147  0.00  0.00    +0.000 NA
BRANCH  15  19
ATOM     18  C   UNL     1       6.257   3.904  13.502  0.00  0.00    +0.000 C 
ATOM     19  C   UNL     1       6.869   4.646  14.655  0.00  0.00    +0.000 C 
ATOM     20  O   UNL     1       7.763   5.470  14.519  0.00  0.00    +0.000 OA
ENDBRANCH  15  19
ENDBRANCH  14  17
ENDBRANCH  13  14
ENDBRANCH   1  13
TORSDOF 4
ENDMDL
MODEL 2
REMARK VINA RESULT:      -7.8      2.818      7.035
REMARK  Name = 
REMARK  6 active torsions:
REMARK  status: ('A' for Active; 'I' for Inactive)
REMARK    1  A    between atoms: C_1  and  C_2
REMARK    2  A    between atoms: C_2  and  C_4
REMARK    3  A    between atoms: C_4  and  C_5
REMARK    4  A    between atoms: N_6  and  O_7
REMARK    5  A    between atoms: O_7  and  C_8
REMARK    6  A    between atoms: C_8  and  C_9
REMARK                            x       y       z     vdW  Elec       q    Type
REMARK                         _______ _______ _______ _____ _____    ______ ____
ROOT
ATOM      1  C   UNL     1       5.283   4.540  16.266  0.00  0.00    +0.000 A 
ATOM      2  C   UNL     1       5.884   5.372  17.130  0.00  0.00    +0.000 A 
ATOM      3  C   UNL     1       7.102   6.133  16.814  0.00  0.00    +0.000 A 
ATOM      4  O   UNL     1       7.598   6.890  17.642  0.00  0.00    +0.000 OA
ATOM      5  O   UNL     1       7.656   5.934  15.564  0.00  0.00    +0.000 OA
ATOM      6  C   UNL     1       7.039   5.091  14.621  0.00  0.00    +0.000 A 
ATOM      7  C   UNL     1       7.662   5.001  13.375  0.00  0.00    +0.000 A 
ATOM      8  C   UNL     1       7.090   4.209  12.383  0.00  0.00    +0.000 A 
ATOM      9  C   UNL     1       5.910   3.522  12.651  0.00  0.00    +0.000 A 
ATOM     10 CL   UNL     1       5.183   2.561  11.421  0.00  0.00    +0.000 Cl
ATOM     11  C   UNL     1       5.303   3.605  13.909  0.00  0.00    +0.000 A 
ATOM     12  C   UNL     1       5.865   4.396  14.921  0.00  0.00    +0.000 A 
ENDROOT
BRANCH   1  13
ATOM     13  C   UNL     1       4.060   3.756  16.662  0.00  0.00    +0.000 C 
BRANCH  13  14
ATOM     14  O   UNL     1       4.255   3.245  17.981  0.00  0.00    +0.000 OA
BRANCH  14  17
ATOM     15  C   UNL     1       3.284   3.048  19.966  0.00  0.00    +0.000 C 
ATOM     16  C   UNL     1       4.454   2.193  20.384  0.00  0.00    +0.000 C 
ATOM     17  N   UNL     1       3.166   3.599  18.791  0.00  0.00    +0.000 NA
BRANCH  15  19
ATOM     18  C   UNL     1       1.027   4.144  20.565  0.00  0.00    +0.000 C 
ATOM     19  C   UNL     1       2.180   3.279  20.986  0.00  0.00    +0.000 C 
ATOM     20  O   UNL     1       2.256   2.761  22.092  0.00  0.00    +0.000 OA
ENDBRANCH  15  19
ENDBRANCH  14  17
ENDBRANCH  13  14
ENDBRANCH   1  13
TORSDOF 4
ENDMDL
MODEL 3
REMARK VINA RESULT:      -7.5      0.892      1.584
REMARK  Name = 
REMARK  6 active torsions:
REMARK  status: ('A' for Active; 'I' for Inactive)
REMARK    1  A    between atoms: C_1  and  C_2
REMARK    2  A    between atoms: C_2  and  C_4
REMARK    3  A    between atoms: C_4  and  C_5
REMARK    4  A    between atoms: N_6  and  O_7
REMARK    5  A    between atoms: O_7  and  C_8
REMARK    6  A    between atoms: C_8  and  C_9
REMARK                            x       y       z     vdW  Elec       q    Type
REMARK                         _______ _______ _______ _____ _____    ______ ____
ROOT
ATOM      1  C   UNL     1       2.649   3.994  18.752  0.00  0.00    +0.000 A 
ATOM      2  C   UNL     1       2.507   3.039  19.685  0.00  0.00    +0.000 A 
ATOM      3  C   UNL     1       2.103   3.310  21.072  0.00  0.00    +0.000 A 
ATOM      4  O   UNL     1       1.976   2.392  21.876  0.00  0.00    +0.000 OA
ATOM      5  O   UNL     1       1.899   4.633  21.417  0.00  0.00    +0.000 OA
ATOM      6  C   UNL     1       2.012   5.658  20.460  0.00  0.00    +0.000 A 
ATOM      7  C   UNL     1       1.739   6.952  20.909  0.00  0.00    +0.000 A 
ATOM      8  C   UNL     1       1.800   8.013  20.010  0.00  0.00    +0.000 A 
ATOM      9  C   UNL     1       2.133   7.765  18.681  0.00  0.00    +0.000 A 
ATOM     10 CL   UNL     1       2.186   9.069  17.558  0.00  0.00    +0.000 Cl
ATOM     11  C   UNL     1       2.421   6.468  18.245  0.00  0.00    +0.000 A 
ATOM     12  C   UNL     1       2.366   5.387  19.136  0.00  0.00    +0.000 A 
ENDROOT
BRANCH   1  13
ATOM     13  C   UNL     1       3.106   3.659  17.357  0.00  0.00    +0.000 C 
BRANCH  13  14
ATOM     14  O   UNL     1       4.453   3.190  17.420  0.00  0.00    +0.000 OA
BRANCH  14  17
ATOM     15  C   UNL     1       6.074   4.556  16.763  0.00  0.00    +0.000 C 
ATOM     16  C   UNL     1       6.006   3.887  15.414  0.00  0.00    +0.000 C 
ATOM     17  N   UNL     1       5.305   4.248  17.771  0.00  0.00    +0.000 NA
BRANCH  15  19
ATOM     18  C   UNL     1       7.487   6.007  18.362  0.00  0.00    +0.000 C 
ATOM     19  C   UNL     1       7.103   5.661  16.952  0.00  0.00    +0.000 C 
ATOM     20  O   UNL     1       7.583   6.217  15.974  0.00  0.00    +0.000 OA
ENDBRANCH  15  19
ENDBRANCH  14  17
ENDBRANCH  13  14
ENDBRANCH   1  13
TORSDOF 4
ENDMDL
MODEL 4
REMARK VINA RESULT:      -7.5      2.596      7.056
REMARK  Name = 
REMARK  6 active torsions:
REMARK  status: ('A' for Active; 'I' for Inactive)
REMARK    1  A    between atoms: C_1  and  C_2
REMARK    2  A    between atoms: C_2  and  C_4
REMARK    3  A    between atoms: C_4  and  C_5
REMARK    4  A    between atoms: N_6  and  O_7
REMARK    5  A    between atoms: O_7  and  C_8
REMARK    6  A    between atoms: C_8  and  C_9
REMARK                            x       y       z     vdW  Elec       q    Type
REMARK                         _______ _______ _______ _____ _____    ______ ____
ROOT
ATOM      1  C   UNL     1       5.286   4.563  16.297  0.00  0.00    +0.000 A 
ATOM      2  C   UNL     1       5.899   5.394  17.154  0.00  0.00    +0.000 A 
ATOM      3  C   UNL     1       7.119   6.145  16.826  0.00  0.00    +0.000 A 
ATOM      4  O   UNL     1       7.627   6.901  17.648  0.00  0.00    +0.000 OA
ATOM      5  O   UNL     1       7.662   5.940  15.572  0.00  0.00    +0.000 OA
ATOM      6  C   UNL     1       7.031   5.098  14.636  0.00  0.00    +0.000 A 
ATOM      7  C   UNL     1       7.643   5.001  13.385  0.00  0.00    +0.000 A 
ATOM      8  C   UNL     1       7.058   4.210  12.400  0.00  0.00    +0.000 A 
ATOM      9  C   UNL     1       5.875   3.532  12.680  0.00  0.00    +0.000 A 
ATOM     10 CL   UNL     1       5.132   2.573  11.459  0.00  0.00    +0.000 Cl
ATOM     11  C   UNL     1       5.280   3.622  13.942  0.00  0.00    +0.000 A 
ATOM     12  C   UNL     1       5.855   4.412  14.947  0.00  0.00    +0.000 A 
ENDROOT
BRANCH   1  13
ATOM     13  C   UNL     1       4.061   3.788  16.705  0.00  0.00    +0.000 C 
BRANCH  13  14
ATOM     14  O   UNL     1       3.569   4.330  17.931  0.00  0.00    +0.000 OA
BRANCH  14  17
ATOM     15  C   UNL     1       2.867   3.764  19.958  0.00  0.00    +0.000 C 
ATOM     16  C   UNL     1       2.359   5.177  20.109  0.00  0.00    +0.000 C 
ATOM     17  N   UNL     1       3.451   3.309  18.886  0.00  0.00    +0.000 NA
BRANCH  15  19
ATOM     18  C   UNL     1       1.295   2.710  21.713  0.00  0.00    +0.000 C 
ATOM     19  C   UNL     1       2.677   2.817  21.134  0.00  0.00    +0.000 C 
ATOM     20  O   UNL     1       3.630   2.179  21.560  0.00  0.00    +0.000 OA
ENDBRANCH  15  19
ENDBRANCH  14  17
ENDBRANCH  13  14
ENDBRANCH   1  13
TORSDOF 4
ENDMDL
MODEL 5
REMARK VINA RESULT:      -7.5      2.734      7.060
REMARK  Name = 
REMARK  6 active torsions:
REMARK  status: ('A' for Active; 'I' for Inactive)
REMARK    1  A    between atoms: C_1  and  C_2
REMARK    2  A    between atoms: C_2  and  C_4
REMARK    3  A    between atoms: C_4  and  C_5
REMARK    4  A    between atoms: N_6  and  O_7
REMARK    5  A    between atoms: O_7  and  C_8
REMARK    6  A    between atoms: C_8  and  C_9
REMARK                            x       y       z     vdW  Elec       q    Type
REMARK                         _______ _______ _______ _____ _____    ______ ____
ROOT
ATOM      1  C   UNL     1       5.398   4.507  16.342  0.00  0.00    +0.000 A 
ATOM      2  C   UNL     1       5.997   5.363  17.185  0.00  0.00    +0.000 A 
ATOM      3  C   UNL     1       7.171   6.172  16.825  0.00  0.00    +0.000 A 
ATOM      4  O   UNL     1       7.666   6.949  17.635  0.00  0.00    +0.000 OA
ATOM      5  O   UNL     1       7.687   5.995  15.555  0.00  0.00    +0.000 OA
ATOM      6  C   UNL     1       7.069   5.126  14.635  0.00  0.00    +0.000 A 
ATOM      7  C   UNL     1       7.649   5.060  13.367  0.00  0.00    +0.000 A 
ATOM      8  C   UNL     1       7.074   4.246  12.396  0.00  0.00    +0.000 A 
ATOM      9  C   UNL     1       5.932   3.512  12.707  0.00  0.00    +0.000 A 
ATOM     10 CL   UNL     1       5.200   2.523  11.503  0.00  0.00    +0.000 Cl
ATOM     11  C   UNL     1       5.369   3.572  13.985  0.00  0.00    +0.000 A 
ATOM     12  C   UNL     1       5.935   4.385  14.977  0.00  0.00    +0.000 A 
ENDROOT
BRANCH   1  13
ATOM     13  C   UNL     1       4.222   3.675  16.782  0.00  0.00    +0.000 C 
BRANCH  13  14
ATOM     14  O   UNL     1       4.411   3.309  18.149  0.00  0.00    +0.000 OA
BRANCH  14  17
ATOM     15  C   UNL     1       2.673   3.459  19.520  0.00  0.00    +0.000 C 
ATOM     16  C   UNL     1       3.176   4.827  19.909  0.00  0.00    +0.000 C 
ATOM     17  N   UNL     1       3.250   2.692  18.638  0.00  0.00    +0.000 NA
BRANCH  15  19
ATOM     18  C   UNL     1       1.499   2.645  21.669  0.00  0.00    +0.000 C 
ATOM     19  C   UNL     1       1.411   2.953  20.202  0.00  0.00    +0.000 C 
ATOM     20  O   UNL     1       0.382   2.820  19.553  0.00  0.00    +0.000 OA
ENDBRANCH  15  19
ENDBRANCH  14  17
ENDBRANCH  13  14
ENDBRANCH   1  13
TORSDOF 4
ENDMDL
MODEL 6
REMARK VINA RESULT:      -7.4      2.638      6.905
REMARK  Name = 
REMARK  6 active torsions:
REMARK  status: ('A' for Active; 'I' for Inactive)
REMARK    1  A    between atoms: C_1  and  C_2
REMARK    2  A    between atoms: C_2  and  C_4
REMARK    3  A    between atoms: C_4  and  C_5
REMARK    4  A    between atoms: N_6  and  O_7
REMARK    5  A    between atoms: O_7  and  C_8
REMARK    6  A    between atoms: C_8  and  C_9
REMARK                            x       y       z     vdW  Elec       q    Type
REMARK                         _______ _______ _______ _____ _____    ______ ____
ROOT
ATOM      1  C   UNL     1       5.502   4.405  16.533  0.00  0.00    +0.000 A 
ATOM      2  C   UNL     1       6.076   5.268  17.387  0.00  0.00    +0.000 A 
ATOM      3  C   UNL     1       7.192   6.152  17.022  0.00  0.00    +0.000 A 
ATOM      4  O   UNL     1       7.666   6.930  17.844  0.00  0.00    +0.000 OA
ATOM      5  O   UNL     1       7.680   6.045  15.734  0.00  0.00    +0.000 OA
ATOM      6  C   UNL     1       7.086   5.172  14.803  0.00  0.00    +0.000 A 
ATOM      7  C   UNL     1       7.632   5.179  13.517  0.00  0.00    +0.000 A 
ATOM      8  C   UNL     1       7.075   4.364  12.536  0.00  0.00    +0.000 A 
ATOM      9  C   UNL     1       5.985   3.557  12.854  0.00  0.00    +0.000 A 
ATOM     10 CL   UNL     1       5.275   2.566  11.638  0.00  0.00    +0.000 Cl
ATOM     11  C   UNL     1       5.457   3.545  14.148  0.00  0.00    +0.000 A 
ATOM     12  C   UNL     1       6.005   4.358  15.150  0.00  0.00    +0.000 A 
ENDROOT
BRANCH   1  13
ATOM     13  C   UNL     1       4.388   3.495  16.977  0.00  0.00    +0.000 C 
BRANCH  13  14
ATOM     14  O   UNL     1       3.204   4.275  17.145  0.00  0.00    +0.000 OA
BRANCH  14  17
ATOM     15  C   UNL     1       2.468   5.292  18.974  0.00  0.00    +0.000 C 
ATOM     16  C   UNL     1       2.639   6.599  18.241  0.00  0.00    +0.000 C 
ATOM     17  N   UNL     1       2.720   4.124  18.453  0.00  0.00    +0.000 NA
BRANCH  15  19
ATOM     18  C   UNL     1       2.039   4.082  21.212  0.00  0.00    +0.000 C 
ATOM     19  C   UNL     1       1.966   5.349  20.410  0.00  0.00    +0.000 C 
ATOM     20  O   UNL     1       1.536   6.401  20.862  0.00  0.00    +0.000 OA
ENDBRANCH  15  19
ENDBRANCH  14  17
ENDBRANCH  13  14
ENDBRANCH   1  13
TORSDOF 4
ENDMDL
MODEL 7
REMARK VINA RESULT:      -7.4      1.487      2.069
REMARK  Name = 
REMARK  6 active torsions:
REMARK  status: ('A' for Active; 'I' for Inactive)
REMARK    1  A    between atoms: C_1  and  C_2
REMARK    2  A    between atoms: C_2  and  C_4
REMARK    3  A    between atoms: C_4  and  C_5
REMARK    4  A    between atoms: N_6  and  O_7
REMARK    5  A    between atoms: O_7  and  C_8
REMARK    6  A    between atoms: C_8  and  C_9
REMARK                            x       y       z     vdW  Elec       q    Type
REMARK                         _______ _______ _______ _____ _____    ______ ____
ROOT
ATOM      1  C   UNL     1       2.902   4.157  18.788  0.00  0.00    +0.000 A 
ATOM      2  C   UNL     1       2.761   3.177  19.694  0.00  0.00    +0.000 A 
ATOM      3  C   UNL     1       2.238   3.393  21.051  0.00  0.00    +0.000 A 
ATOM      4  O   UNL     1       2.120   2.453  21.831  0.00  0.00    +0.000 OA
ATOM      5  O   UNL     1       1.914   4.691  21.397  0.00  0.00    +0.000 OA
ATOM      6  C   UNL     1       2.021   5.739  20.464  0.00  0.00    +0.000 A 
ATOM      7  C   UNL     1       1.622   7.002  20.909  0.00  0.00    +0.000 A 
ATOM      8  C   UNL     1       1.672   8.081  20.031  0.00  0.00    +0.000 A 
ATOM      9  C   UNL     1       2.119   7.882  18.727  0.00  0.00    +0.000 A 
ATOM     10 CL   UNL     1       2.159   9.207  17.628  0.00  0.00    +0.000 Cl
ATOM     11  C   UNL     1       2.532   6.617  18.297  0.00  0.00    +0.000 A 
ATOM     12  C   UNL     1       2.491   5.519  19.167  0.00  0.00    +0.000 A 
ENDROOT
BRANCH   1  13
ATOM     13  C   UNL     1       3.483   3.881  17.426  0.00  0.00    +0.000 C 
BRANCH  13  14
ATOM     14  O   UNL     1       4.823   3.419  17.589  0.00  0.00    +0.000 OA
BRANCH  14  17
ATOM     15  C   UNL     1       6.572   4.775  17.750  0.00  0.00    +0.000 C 
ATOM     16  C   UNL     1       6.906   4.413  16.324  0.00  0.00    +0.000 C 
ATOM     17  N   UNL     1       5.538   4.316  18.397  0.00  0.00    +0.000 NA
BRANCH  15  19
ATOM     18  C   UNL     1       7.680   7.103  17.862  0.00  0.00    +0.000 C 
ATOM     19  C   UNL     1       7.503   5.740  18.468  0.00  0.00    +0.000 C 
ATOM     20  O   UNL     1       8.062   5.391  19.499  0.00  0.00    +0.000 OA
ENDBRANCH  15  19
ENDBRANCH  14  17
ENDBRANCH  13  14
ENDBRANCH   1  13
TORSDOF 4
ENDMDL
MODEL 8
REMARK VINA RESULT:      -7.4      3.386      4.962
REMARK  Name = 
REMARK  6 active torsions:
REMARK  status: ('A' for Active; 'I' for Inactive)
REMARK    1  A    between atoms: C_1  and  C_2
REMARK    2  A    between atoms: C_2  and  C_4
REMARK    3  A    between atoms: C_4  and  C_5
REMARK    4  A    between atoms: N_6  and  O_7
REMARK    5  A    between atoms: O_7  and  C_8
REMARK    6  A    between atoms: C_8  and  C_9
REMARK                            x       y       z     vdW  Elec       q    Type
REMARK                         _______ _______ _______ _____ _____    ______ ____
ROOT
ATOM      1  C   UNL     1       6.118   5.530  16.487  0.00  0.00    +0.000 A 
ATOM      2  C   UNL     1       7.117   6.288  16.965  0.00  0.00    +0.000 A 
ATOM      3  C   UNL     1       7.451   6.388  18.393  0.00  0.00    +0.000 A 
ATOM      4  O   UNL     1       8.385   7.088  18.769  0.00  0.00    +0.000 OA
ATOM      5  O   UNL     1       6.654   5.679  19.273  0.00  0.00    +0.000 OA
ATOM      6  C   UNL     1       5.616   4.851  18.806  0.00  0.00    +0.000 A 
ATOM      7  C   UNL     1       4.907   4.145  19.780  0.00  0.00    +0.000 A 
ATOM      8  C   UNL     1       3.886   3.284  19.390  0.00  0.00    +0.000 A 
ATOM      9  C   UNL     1       3.591   3.141  18.036  0.00  0.00    +0.000 A 
ATOM     10 CL   UNL     1       2.347   2.057  17.544  0.00  0.00    +0.000 Cl
ATOM     11  C   UNL     1       4.296   3.865  17.070  0.00  0.00    +0.000 A 
ATOM     12  C   UNL     1       5.326   4.739  17.444  0.00  0.00    +0.000 A 
ENDROOT
BRANCH   1  13
ATOM     13  C   UNL     1       5.798   5.500  15.016  0.00  0.00    +0.000 C 
BRANCH  13  14
ATOM     14  O   UNL     1       6.686   4.584  14.376  0.00  0.00    +0.000 OA
BRANCH  14  17
ATOM     15  C   UNL     1       6.262   3.521  12.475  0.00  0.00    +0.000 C 
ATOM     16  C   UNL     1       7.306   4.395  11.826  0.00  0.00    +0.000 C 
ATOM     17  N   UNL     1       5.947   3.576  13.739  0.00  0.00    +0.000 NA
BRANCH  15  19
ATOM     18  C   UNL     1       6.304   1.284  11.191  0.00  0.00    +0.000 C 
ATOM     19  C   UNL     1       5.540   2.512  11.595  0.00  0.00    +0.000 C 
ATOM     20  O   UNL     1       4.383   2.720  11.255  0.00  0.00    +0.000 OA
ENDBRANCH  15  19
ENDBRANCH  14  17
ENDBRANCH  13  14
ENDBRANCH   1  13
TORSDOF 4
ENDMDL
MODEL 9
REMARK VINA RESULT:      -7.3      2.246      3.502
REMARK  Name = 
REMARK  6 active torsions:
REMARK  status: ('A' for Active; 'I' for Inactive)
REMARK    1  A    between atoms: C_1  and  C_2
REMARK    2  A    between atoms: C_2  and  C_4
REMARK    3  A    between atoms: C_4  and  C_5
REMARK    4  A    between atoms: N_6  and  O_7
REMARK    5  A    between atoms: O_7  and  C_8
REMARK    6  A    between atoms: C_8  and  C_9
REMARK                            x       y       z     vdW  Elec       q    Type
REMARK                         _______ _______ _______ _____ _____    ______ ____
ROOT
ATOM      1  C   UNL     1       2.674   6.911  18.561  0.00  0.00    +0.000 A 
ATOM      2  C   UNL     1       2.267   7.907  19.364  0.00  0.00    +0.000 A 
ATOM      3  C   UNL     1       1.590   7.689  20.651  0.00  0.00    +0.000 A 
ATOM      4  O   UNL     1       1.254   8.641  21.348  0.00  0.00    +0.000 OA
ATOM      5  O   UNL     1       1.341   6.379  21.013  0.00  0.00    +0.000 OA
ATOM      6  C   UNL     1       1.778   5.309  20.211  0.00  0.00    +0.000 A 
ATOM      7  C   UNL     1       1.512   4.027  20.697  0.00  0.00    +0.000 A 
ATOM      8  C   UNL     1       1.943   2.920  19.971  0.00  0.00    +0.000 A 
ATOM      9  C   UNL     1       2.629   3.110  18.775  0.00  0.00    +0.000 A 
ATOM     10 CL   UNL     1       3.186   1.746  17.884  0.00  0.00    +0.000 Cl
ATOM     11  C   UNL     1       2.875   4.398  18.288  0.00  0.00    +0.000 A 
ATOM     12  C   UNL     1       2.447   5.525  19.004  0.00  0.00    +0.000 A 
ENDROOT
BRANCH   1  13
ATOM     13  C   UNL     1       3.325   7.197  17.234  0.00  0.00    +0.000 C 
BRANCH  13  14
ATOM     14  O   UNL     1       4.728   6.965  17.358  0.00  0.00    +0.000 OA
BRANCH  14  17
ATOM     15  C   UNL     1       6.082   5.577  16.280  0.00  0.00    +0.000 C 
ATOM     16  C   UNL     1       6.383   4.935  17.611  0.00  0.00    +0.000 C 
ATOM     17  N   UNL     1       5.253   6.570  16.119  0.00  0.00    +0.000 NA
BRANCH  15  19
ATOM     18  C   UNL     1       6.115   3.903  14.317  0.00  0.00    +0.000 C 
ATOM     19  C   UNL     1       6.792   5.023  15.053  0.00  0.00    +0.000 C 
ATOM     20  O   UNL     1       7.864   5.498  14.705  0.00  0.00    +0.000 OA
ENDBRANCH  15  19
ENDBRANCH  14  17
ENDBRANCH  13  14
ENDBRANCH   1  13
TORSDOF 4
ENDMDL
