MODEL 1
REMARK VINA RESULT:      -8.9      0.000      0.000
REMARK  Name = 
REMARK  10 active torsions:
REMARK  status: ('A' for Active; 'I' for Inactive)
REMARK    1  A    between atoms: C_1  and  C_2
REMARK    2  A    between atoms: C_6  and  C_7
REMARK    3  A    between atoms: C_9  and  C_10
REMARK    4  A    between atoms: C_10  and  O_11
REMARK    5  A    between atoms: O_11  and  C_12
REMARK    6  A    between atoms: C_12  and  C_13
REMARK    7  A    between atoms: C_16  and  C_17
REMARK    8  A    between atoms: C_17  and  C_18
REMARK    9  A    between atoms: C_17  and  C_19
REMARK   10  A    between atoms: C_28  and  O_29
REMARK                            x       y       z     vdW  Elec       q    Type
REMARK                         _______ _______ _______ _____ _____    ______ ____
ROOT
ATOM      1  C   UNL     1       6.007   4.019  14.407  0.00  0.00    +0.000 A 
ATOM      2  C   UNL     1       5.162   3.647  15.466  0.00  0.00    +0.000 A 
ATOM      3  C   UNL     1       5.454   3.997  16.787  0.00  0.00    +0.000 A 
ATOM      4  C   UNL     1       6.625   4.720  17.042  0.00  0.00    +0.000 A 
ATOM      5  C   UNL     1       7.016   4.983  18.350  0.00  0.00    +0.000 A 
ATOM      6  C   UNL     1       7.272   6.303  18.681  0.00  0.00    +0.000 A 
ATOM      7  C   UNL     1       7.660   7.087  17.630  0.00  0.00    +0.000 A 
ATOM      8  N   UNL     1       7.811   6.641  16.355  0.00  0.00    +0.000 NA
ATOM      9  C   UNL     1       7.195   5.466  16.036  0.00  0.00    +0.000 A 
ATOM     10  C   UNL     1       7.000   4.986  14.725  0.00  0.00    +0.000 A 
ENDROOT
BRANCH   1  16
ATOM     11  C   UNL     1       3.059   3.569  10.346  0.00  0.00    +0.000 C 
ATOM     12  C   UNL     1       4.326   3.200  11.059  0.00  0.00    +0.000 A 
ATOM     13  C   UNL     1       5.220   2.281  10.509  0.00  0.00    +0.000 A 
ATOM     14  C   UNL     1       6.387   1.954  11.194  0.00  0.00    +0.000 A 
ATOM     15  C   UNL     1       6.673   2.535  12.442  0.00  0.00    +0.000 A 
ATOM     16  C   UNL     1       5.783   3.435  13.048  0.00  0.00    +0.000 A 
ATOM     17  C   UNL     1       4.617   3.763  12.316  0.00  0.00    +0.000 A 
ENDBRANCH   1  16
BRANCH  10  18
ATOM     18  O   UNL     1       7.814   5.516  13.748  0.00  0.00    +0.000 OA
ATOM     19  H   UNL     1       8.500   4.837  13.596  0.00  0.00    +0.000 HD
ENDBRANCH  10  18
BRANCH   3  20
ATOM     20  C   UNL     1       4.473   3.899  17.932  0.00  0.00    +0.000 C 
BRANCH  20  21
ATOM     21  O   UNL     1       3.312   4.688  17.762  0.00  0.00    +0.000 OA
BRANCH  21  22
ATOM     22  C   UNL     1       3.702   6.034  17.487  0.00  0.00    +0.000 C 
BRANCH  22  23
ATOM     23  C   UNL     1       2.888   6.935  18.355  0.00  0.00    +0.000 A 
ATOM     24  C   UNL     1       2.446   8.161  17.838  0.00  0.00    +0.000 A 
ATOM     25  C   UNL     1       1.666   9.013  18.614  0.00  0.00    +0.000 A 
ATOM     26  C   UNL     1       1.316   8.648  19.915  0.00  0.00    +0.000 A 
ATOM     27  C   UNL     1       1.778   7.429  20.438  0.00  0.00    +0.000 A 
ATOM     28  C   UNL     1       2.557   6.574  19.660  0.00  0.00    +0.000 A 
BRANCH  26  29
ATOM     29  C   UNL     1       0.422   9.565  20.722  0.00  0.00    +0.000 C 
ATOM     30  C   UNL     1      -0.532  10.329  19.802  0.00  0.00    +0.000 C 
ATOM     31  C   UNL     1      -0.334   8.801  21.808  0.00  0.00    +0.000 C 
ENDBRANCH  26  29
ENDBRANCH  22  23
ENDBRANCH  21  22
ENDBRANCH  20  21
ENDBRANCH   3  20
TORSDOF 7
ENDMDL
MODEL 2
REMARK VINA RESULT:      -8.7      2.555      4.751
REMARK  Name = 
REMARK  10 active torsions:
REMARK  status: ('A' for Active; 'I' for Inactive)
REMARK    1  A    between atoms: C_1  and  C_2
REMARK    2  A    between atoms: C_6  and  C_7
REMARK    3  A    between atoms: C_9  and  C_10
REMARK    4  A    between atoms: C_10  and  O_11
REMARK    5  A    between atoms: O_11  and  C_12
REMARK    6  A    between atoms: C_12  and  C_13
REMARK    7  A    between atoms: C_16  and  C_17
REMARK    8  A    between atoms: C_17  and  C_18
REMARK    9  A    between atoms: C_17  and  C_19
REMARK   10  A    between atoms: C_28  and  O_29
REMARK                            x       y       z     vdW  Elec       q    Type
REMARK                         _______ _______ _______ _____ _____    ______ ____
ROOT
ATOM      1  C   UNL     1       4.362   4.523  17.150  0.00  0.00    +0.000 A 
ATOM      2  C   UNL     1       3.872   5.706  17.727  0.00  0.00    +0.000 A 
ATOM      3  C   UNL     1       2.834   5.685  18.661  0.00  0.00    +0.000 A 
ATOM      4  C   UNL     1       2.271   4.450  19.005  0.00  0.00    +0.000 A 
ATOM      5  C   UNL     1       1.158   4.393  19.835  0.00  0.00    +0.000 A 
ATOM      6  C   UNL     1       1.243   3.581  20.954  0.00  0.00    +0.000 A 
ATOM      7  C   UNL     1       2.119   2.538  20.833  0.00  0.00    +0.000 A 
ATOM      8  N   UNL     1       2.851   2.277  19.718  0.00  0.00    +0.000 NA
ATOM      9  C   UNL     1       3.002   3.298  18.826  0.00  0.00    +0.000 A 
ATOM     10  C   UNL     1       3.934   3.316  17.769  0.00  0.00    +0.000 A 
ENDROOT
BRANCH   1  16
ATOM     11  C   UNL     1       5.442   3.338  12.374  0.00  0.00    +0.000 C 
ATOM     12  C   UNL     1       5.847   4.010  13.652  0.00  0.00    +0.000 A 
ATOM     13  C   UNL     1       7.096   4.618  13.781  0.00  0.00    +0.000 A 
ATOM     14  C   UNL     1       7.447   5.232  14.980  0.00  0.00    +0.000 A 
ATOM     15  C   UNL     1       6.559   5.239  16.069  0.00  0.00    +0.000 A 
ATOM     16  C   UNL     1       5.309   4.606  15.994  0.00  0.00    +0.000 A 
ATOM     17  C   UNL     1       4.973   4.011  14.755  0.00  0.00    +0.000 A 
ENDBRANCH   1  16
BRANCH  10  18
ATOM     18  O   UNL     1       4.434   2.097  17.367  0.00  0.00    +0.000 OA
ATOM     19  H   UNL     1       4.880   2.275  16.516  0.00  0.00    +0.000 HD
ENDBRANCH  10  18
BRANCH   3  20
ATOM     20  C   UNL     1       2.451   6.854  19.539  0.00  0.00    +0.000 C 
BRANCH  20  21
ATOM     21  O   UNL     1       1.977   7.978  18.824  0.00  0.00    +0.000 OA
BRANCH  21  22
ATOM     22  C   UNL     1       1.640   9.009  19.753  0.00  0.00    +0.000 C 
BRANCH  22  23
ATOM     23  C   UNL     1       0.415   9.698  19.250  0.00  0.00    +0.000 A 
ATOM     24  C   UNL     1       0.010   9.486  17.925  0.00  0.00    +0.000 A 
ATOM     25  C   UNL     1      -1.140  10.096  17.432  0.00  0.00    +0.000 A 
ATOM     26  C   UNL     1      -1.900  10.924  18.260  0.00  0.00    +0.000 A 
ATOM     27  C   UNL     1      -1.480  11.152  19.581  0.00  0.00    +0.000 A 
ATOM     28  C   UNL     1      -0.331  10.539  20.075  0.00  0.00    +0.000 A 
BRANCH  26  29
ATOM     29  C   UNL     1      -3.176  11.534  17.720  0.00  0.00    +0.000 C 
ATOM     30  C   UNL     1      -3.855  10.575  16.740  0.00  0.00    +0.000 C 
ATOM     31  C   UNL     1      -4.120  11.952  18.846  0.00  0.00    +0.000 C 
ENDBRANCH  26  29
ENDBRANCH  22  23
ENDBRANCH  21  22
ENDBRANCH  20  21
ENDBRANCH   3  20
TORSDOF 7
ENDMDL
MODEL 3
REMARK VINA RESULT:      -8.7      0.709      1.088
REMARK  Name = 
REMARK  10 active torsions:
REMARK  status: ('A' for Active; 'I' for Inactive)
REMARK    1  A    between atoms: C_1  and  C_2
REMARK    2  A    between atoms: C_6  and  C_7
REMARK    3  A    between atoms: C_9  and  C_10
REMARK    4  A    between atoms: C_10  and  O_11
REMARK    5  A    between atoms: O_11  and  C_12
REMARK    6  A    between atoms: C_12  and  C_13
REMARK    7  A    between atoms: C_16  and  C_17
REMARK    8  A    between atoms: C_17  and  C_18
REMARK    9  A    between atoms: C_17  and  C_19
REMARK   10  A    between atoms: C_28  and  O_29
REMARK                            x       y       z     vdW  Elec       q    Type
REMARK                         _______ _______ _______ _____ _____    ______ ____
ROOT
ATOM      1  C   UNL     1       5.901   3.999  14.395  0.00  0.00    +0.000 A 
ATOM      2  C   UNL     1       5.058   3.592  15.442  0.00  0.00    +0.000 A 
ATOM      3  C   UNL     1       5.347   3.905  16.773  0.00  0.00    +0.000 A 
ATOM      4  C   UNL     1       6.515   4.626  17.049  0.00  0.00    +0.000 A 
ATOM      5  C   UNL     1       6.904   4.853  18.364  0.00  0.00    +0.000 A 
ATOM      6  C   UNL     1       7.154   6.165  18.733  0.00  0.00    +0.000 A 
ATOM      7  C   UNL     1       7.538   6.980  17.706  0.00  0.00    +0.000 A 
ATOM      8  N   UNL     1       7.691   6.573  16.418  0.00  0.00    +0.000 NA
ATOM      9  C   UNL     1       7.081   5.403  16.066  0.00  0.00    +0.000 A 
ATOM     10  C   UNL     1       6.889   4.961  14.741  0.00  0.00    +0.000 A 
ENDROOT
BRANCH   1  16
ATOM     11  C   UNL     1       3.131   3.919  10.187  0.00  0.00    +0.000 C 
ATOM     12  C   UNL     1       4.308   3.401  10.958  0.00  0.00    +0.000 A 
ATOM     13  C   UNL     1       5.117   2.388  10.441  0.00  0.00    +0.000 A 
ATOM     14  C   UNL     1       6.202   1.924  11.180  0.00  0.00    +0.000 A 
ATOM     15  C   UNL     1       6.490   2.460  12.447  0.00  0.00    +0.000 A 
ATOM     16  C   UNL     1       5.680   3.453  13.019  0.00  0.00    +0.000 A 
ATOM     17  C   UNL     1       4.598   3.918  12.234  0.00  0.00    +0.000 A 
ENDBRANCH   1  16
BRANCH  10  18
ATOM     18  O   UNL     1       7.701   5.523  13.779  0.00  0.00    +0.000 OA
ATOM     19  H   UNL     1       8.389   6.003  14.280  0.00  0.00    +0.000 HD
ENDBRANCH  10  18
BRANCH   3  20
ATOM     20  C   UNL     1       4.367   3.770  17.914  0.00  0.00    +0.000 C 
BRANCH  20  21
ATOM     21  O   UNL     1       3.411   4.809  17.976  0.00  0.00    +0.000 OA
BRANCH  21  22
ATOM     22  C   UNL     1       3.322   5.278  19.323  0.00  0.00    +0.000 C 
BRANCH  22  23
ATOM     23  C   UNL     1       2.643   6.607  19.303  0.00  0.00    +0.000 A 
ATOM     24  C   UNL     1       2.853   7.462  18.212  0.00  0.00    +0.000 A 
ATOM     25  C   UNL     1       2.217   8.699  18.153  0.00  0.00    +0.000 A 
ATOM     26  C   UNL     1       1.362   9.093  19.185  0.00  0.00    +0.000 A 
ATOM     27  C   UNL     1       1.171   8.244  20.286  0.00  0.00    +0.000 A 
ATOM     28  C   UNL     1       1.805   7.005  20.344  0.00  0.00    +0.000 A 
BRANCH  26  29
ATOM     29  C   UNL     1       0.639  10.419  19.073  0.00  0.00    +0.000 C 
ATOM     30  C   UNL     1       1.533  11.463  18.404  0.00  0.00    +0.000 C 
ATOM     31  C   UNL     1      -0.697  10.271  18.347  0.00  0.00    +0.000 C 
ENDBRANCH  26  29
ENDBRANCH  22  23
ENDBRANCH  21  22
ENDBRANCH  20  21
ENDBRANCH   3  20
TORSDOF 7
ENDMDL
MODEL 4
REMARK VINA RESULT:      -8.7      0.708      1.356
REMARK  Name = 
REMARK  10 active torsions:
REMARK  status: ('A' for Active; 'I' for Inactive)
REMARK    1  A    between atoms: C_1  and  C_2
REMARK    2  A    between atoms: C_6  and  C_7
REMARK    3  A    between atoms: C_9  and  C_10
REMARK    4  A    between atoms: C_10  and  O_11
REMARK    5  A    between atoms: O_11  and  C_12
REMARK    6  A    between atoms: C_12  and  C_13
REMARK    7  A    between atoms: C_16  and  C_17
REMARK    8  A    between atoms: C_17  and  C_18
REMARK    9  A    between atoms: C_17  and  C_19
REMARK   10  A    between atoms: C_28  and  O_29
REMARK                            x       y       z     vdW  Elec       q    Type
REMARK                         _______ _______ _______ _____ _____    ______ ____
ROOT
ATOM      1  C   UNL     1       6.006   4.057  14.421  0.00  0.00    +0.000 A 
ATOM      2  C   UNL     1       5.116   3.717  15.454  0.00  0.00    +0.000 A 
ATOM      3  C   UNL     1       5.365   4.081  16.779  0.00  0.00    +0.000 A 
ATOM      4  C   UNL     1       6.541   4.784  17.067  0.00  0.00    +0.000 A 
ATOM      5  C   UNL     1       6.889   5.060  18.385  0.00  0.00    +0.000 A 
ATOM      6  C   UNL     1       7.159   6.379  18.707  0.00  0.00    +0.000 A 
ATOM      7  C   UNL     1       7.601   7.140  17.660  0.00  0.00    +0.000 A 
ATOM      8  N   UNL     1       7.789   6.672  16.398  0.00  0.00    +0.000 NA
ATOM      9  C   UNL     1       7.162   5.504  16.073  0.00  0.00    +0.000 A 
ATOM     10  C   UNL     1       7.006   5.009  14.762  0.00  0.00    +0.000 A 
ENDROOT
BRANCH   1  16
ATOM     11  C   UNL     1       3.037   3.283  10.425  0.00  0.00    +0.000 C 
ATOM     12  C   UNL     1       4.355   3.062  11.107  0.00  0.00    +0.000 A 
ATOM     13  C   UNL     1       5.337   2.258  10.529  0.00  0.00    +0.000 A 
ATOM     14  C   UNL     1       6.550   2.067  11.185  0.00  0.00    +0.000 A 
ATOM     15  C   UNL     1       6.795   2.672  12.430  0.00  0.00    +0.000 A 
ATOM     16  C   UNL     1       5.820   3.457  13.063  0.00  0.00    +0.000 A 
ATOM     17  C   UNL     1       4.607   3.649  12.361  0.00  0.00    +0.000 A 
ENDBRANCH   1  16
BRANCH  10  18
ATOM     18  O   UNL     1       7.866   5.508  13.808  0.00  0.00    +0.000 OA
ATOM     19  H   UNL     1       8.247   6.314  14.209  0.00  0.00    +0.000 HD
ENDBRANCH  10  18
BRANCH   3  20
ATOM     20  C   UNL     1       4.342   4.020  17.888  0.00  0.00    +0.000 C 
BRANCH  20  21
ATOM     21  O   UNL     1       3.470   5.132  17.927  0.00  0.00    +0.000 OA
BRANCH  21  22
ATOM     22  C   UNL     1       3.350   5.580  19.279  0.00  0.00    +0.000 C 
BRANCH  22  23
ATOM     23  C   UNL     1       2.618   6.881  19.269  0.00  0.00    +0.000 A 
ATOM     24  C   UNL     1       1.920   7.277  20.417  0.00  0.00    +0.000 A 
ATOM     25  C   UNL     1       1.246   8.495  20.448  0.00  0.00    +0.000 A 
ATOM     26  C   UNL     1       1.266   9.331  19.329  0.00  0.00    +0.000 A 
ATOM     27  C   UNL     1       1.949   8.921  18.173  0.00  0.00    +0.000 A 
ATOM     28  C   UNL     1       2.625   7.704  18.143  0.00  0.00    +0.000 A 
BRANCH  26  29
ATOM     29  C   UNL     1       0.572  10.675  19.403  0.00  0.00    +0.000 C 
ATOM     30  C   UNL     1       0.297  11.057  20.858  0.00  0.00    +0.000 C 
ATOM     31  C   UNL     1       1.367  11.759  18.676  0.00  0.00    +0.000 C 
ENDBRANCH  26  29
ENDBRANCH  22  23
ENDBRANCH  21  22
ENDBRANCH  20  21
ENDBRANCH   3  20
TORSDOF 7
ENDMDL
MODEL 5
REMARK VINA RESULT:      -8.6      2.613      4.761
REMARK  Name = 
REMARK  10 active torsions:
REMARK  status: ('A' for Active; 'I' for Inactive)
REMARK    1  A    between atoms: C_1  and  C_2
REMARK    2  A    between atoms: C_6  and  C_7
REMARK    3  A    between atoms: C_9  and  C_10
REMARK    4  A    between atoms: C_10  and  O_11
REMARK    5  A    between atoms: O_11  and  C_12
REMARK    6  A    between atoms: C_12  and  C_13
REMARK    7  A    between atoms: C_16  and  C_17
REMARK    8  A    between atoms: C_17  and  C_18
REMARK    9  A    between atoms: C_17  and  C_19
REMARK   10  A    between atoms: C_28  and  O_29
REMARK                            x       y       z     vdW  Elec       q    Type
REMARK                         _______ _______ _______ _____ _____    ______ ____
ROOT
ATOM      1  C   UNL     1       4.449   4.822  16.875  0.00  0.00    +0.000 A 
ATOM      2  C   UNL     1       3.946   6.069  17.285  0.00  0.00    +0.000 A 
ATOM      3  C   UNL     1       2.930   6.166  18.239  0.00  0.00    +0.000 A 
ATOM      4  C   UNL     1       2.405   4.984  18.775  0.00  0.00    +0.000 A 
ATOM      5  C   UNL     1       1.313   5.029  19.635  0.00  0.00    +0.000 A 
ATOM      6  C   UNL     1       1.443   4.393  20.858  0.00  0.00    +0.000 A 
ATOM      7  C   UNL     1       2.340   3.361  20.869  0.00  0.00    +0.000 A 
ATOM      8  N   UNL     1       3.052   2.951  19.785  0.00  0.00    +0.000 NA
ATOM      9  C   UNL     1       3.157   3.833  18.748  0.00  0.00    +0.000 A 
ATOM     10  C   UNL     1       4.064   3.712  17.676  0.00  0.00    +0.000 A 
ENDROOT
BRANCH   1  16
ATOM     11  C   UNL     1       5.270   3.299  12.143  0.00  0.00    +0.000 C 
ATOM     12  C   UNL     1       5.776   3.989  13.375  0.00  0.00    +0.000 A 
ATOM     13  C   UNL     1       7.082   4.474  13.442  0.00  0.00    +0.000 A 
ATOM     14  C   UNL     1       7.527   5.108  14.600  0.00  0.00    +0.000 A 
ATOM     15  C   UNL     1       6.675   5.259  15.707  0.00  0.00    +0.000 A 
ATOM     16  C   UNL     1       5.366   4.753  15.695  0.00  0.00    +0.000 A 
ATOM     17  C   UNL     1       4.938   4.134  14.496  0.00  0.00    +0.000 A 
ENDBRANCH   1  16
BRANCH  10  18
ATOM     18  O   UNL     1       4.583   2.457  17.445  0.00  0.00    +0.000 OA
ATOM     19  H   UNL     1       5.518   2.516  17.720  0.00  0.00    +0.000 HD
ENDBRANCH  10  18
BRANCH   3  20
ATOM     20  C   UNL     1       2.541   7.443  18.945  0.00  0.00    +0.000 C 
BRANCH  20  21
ATOM     21  O   UNL     1       1.613   8.235  18.230  0.00  0.00    +0.000 OA
BRANCH  21  22
ATOM     22  C   UNL     1       1.391   9.450  18.947  0.00  0.00    +0.000 C 
BRANCH  22  23
ATOM     23  C   UNL     1       0.033   9.955  18.586  0.00  0.00    +0.000 A 
ATOM     24  C   UNL     1      -0.570  10.926  19.397  0.00  0.00    +0.000 A 
ATOM     25  C   UNL     1      -1.825  11.433  19.075  0.00  0.00    +0.000 A 
ATOM     26  C   UNL     1      -2.491  10.976  17.936  0.00  0.00    +0.000 A 
ATOM     27  C   UNL     1      -1.894   9.987  17.138  0.00  0.00    +0.000 A 
ATOM     28  C   UNL     1      -0.636   9.481  17.458  0.00  0.00    +0.000 A 
BRANCH  26  29
ATOM     29  C   UNL     1      -3.832  11.580  17.576  0.00  0.00    +0.000 C 
ATOM     30  C   UNL     1      -4.219  11.211  16.143  0.00  0.00    +0.000 C 
ATOM     31  C   UNL     1      -4.917  11.178  18.574  0.00  0.00    +0.000 C 
ENDBRANCH  26  29
ENDBRANCH  22  23
ENDBRANCH  21  22
ENDBRANCH  20  21
ENDBRANCH   3  20
TORSDOF 7
ENDMDL
MODEL 6
REMARK VINA RESULT:      -8.5      2.398      4.541
REMARK  Name = 
REMARK  10 active torsions:
REMARK  status: ('A' for Active; 'I' for Inactive)
REMARK    1  A    between atoms: C_1  and  C_2
REMARK    2  A    between atoms: C_6  and  C_7
REMARK    3  A    between atoms: C_9  and  C_10
REMARK    4  A    between atoms: C_10  and  O_11
REMARK    5  A    between atoms: O_11  and  C_12
REMARK    6  A    between atoms: C_12  and  C_13
REMARK    7  A    between atoms: C_16  and  C_17
REMARK    8  A    between atoms: C_17  and  C_18
REMARK    9  A    between atoms: C_17  and  C_19
REMARK   10  A    between atoms: C_28  and  O_29
REMARK                            x       y       z     vdW  Elec       q    Type
REMARK                         _______ _______ _______ _____ _____    ______ ____
ROOT
ATOM      1  C   UNL     1       4.302   4.545  17.091  0.00  0.00    +0.000 A 
ATOM      2  C   UNL     1       3.768   5.742  17.596  0.00  0.00    +0.000 A 
ATOM      3  C   UNL     1       2.720   5.739  18.520  0.00  0.00    +0.000 A 
ATOM      4  C   UNL     1       2.194   4.508  18.927  0.00  0.00    +0.000 A 
ATOM      5  C   UNL     1       1.074   4.461  19.749  0.00  0.00    +0.000 A 
ATOM      6  C   UNL     1       1.173   3.716  20.913  0.00  0.00    +0.000 A 
ATOM      7  C   UNL     1       2.083   2.698  20.859  0.00  0.00    +0.000 A 
ATOM      8  N   UNL     1       2.836   2.398  19.768  0.00  0.00    +0.000 NA
ATOM      9  C   UNL     1       2.963   3.372  18.821  0.00  0.00    +0.000 A 
ATOM     10  C   UNL     1       3.907   3.361  17.773  0.00  0.00    +0.000 A 
ENDROOT
BRANCH   1  16
ATOM     11  C   UNL     1       5.340   3.385  12.300  0.00  0.00    +0.000 C 
ATOM     12  C   UNL     1       5.775   4.010  13.592  0.00  0.00    +0.000 A 
ATOM     13  C   UNL     1       7.056   4.543  13.737  0.00  0.00    +0.000 A 
ATOM     14  C   UNL     1       7.435   5.114  14.949  0.00  0.00    +0.000 A 
ATOM     15  C   UNL     1       6.542   5.154  16.034  0.00  0.00    +0.000 A 
ATOM     16  C   UNL     1       5.258   4.595  15.942  0.00  0.00    +0.000 A 
ATOM     17  C   UNL     1       4.897   4.042  14.690  0.00  0.00    +0.000 A 
ENDBRANCH   1  16
BRANCH  10  18
ATOM     18  O   UNL     1       4.451   2.138  17.446  0.00  0.00    +0.000 OA
ATOM     19  H   UNL     1       4.772   2.243  16.529  0.00  0.00    +0.000 HD
ENDBRANCH  10  18
BRANCH   3  20
ATOM     20  C   UNL     1       2.290   6.942  19.327  0.00  0.00    +0.000 C 
BRANCH  20  21
ATOM     21  O   UNL     1       2.627   8.181  18.735  0.00  0.00    +0.000 OA
BRANCH  21  22
ATOM     22  C   UNL     1       1.608   8.542  17.801  0.00  0.00    +0.000 C 
BRANCH  22  23
ATOM     23  C   UNL     1       0.736   9.568  18.446  0.00  0.00    +0.000 A 
ATOM     24  C   UNL     1      -0.475   9.915  17.832  0.00  0.00    +0.000 A 
ATOM     25  C   UNL     1      -1.320  10.852  18.419  0.00  0.00    +0.000 A 
ATOM     26  C   UNL     1      -0.964  11.450  19.630  0.00  0.00    +0.000 A 
ATOM     27  C   UNL     1       0.259  11.116  20.232  0.00  0.00    +0.000 A 
ATOM     28  C   UNL     1       1.104  10.177  19.646  0.00  0.00    +0.000 A 
BRANCH  26  29
ATOM     29  C   UNL     1      -1.924  12.426  20.278  0.00  0.00    +0.000 C 
ATOM     30  C   UNL     1      -1.378  13.852  20.193  0.00  0.00    +0.000 C 
ATOM     31  C   UNL     1      -3.324  12.321  19.675  0.00  0.00    +0.000 C 
ENDBRANCH  26  29
ENDBRANCH  22  23
ENDBRANCH  21  22
ENDBRANCH  20  21
ENDBRANCH   3  20
TORSDOF 7
ENDMDL
MODEL 7
REMARK VINA RESULT:      -8.5      2.349      4.493
REMARK  Name = 
REMARK  10 active torsions:
REMARK  status: ('A' for Active; 'I' for Inactive)
REMARK    1  A    between atoms: C_1  and  C_2
REMARK    2  A    between atoms: C_6  and  C_7
REMARK    3  A    between atoms: C_9  and  C_10
REMARK    4  A    between atoms: C_10  and  O_11
REMARK    5  A    between atoms: O_11  and  C_12
REMARK    6  A    between atoms: C_12  and  C_13
REMARK    7  A    between atoms: C_16  and  C_17
REMARK    8  A    between atoms: C_17  and  C_18
REMARK    9  A    between atoms: C_17  and  C_19
REMARK   10  A    between atoms: C_28  and  O_29
REMARK                            x       y       z     vdW  Elec       q    Type
REMARK                         _______ _______ _______ _____ _____    ______ ____
ROOT
ATOM      1  C   UNL     1       4.343   4.646  17.047  0.00  0.00    +0.000 A 
ATOM      2  C   UNL     1       3.811   5.858  17.517  0.00  0.00    +0.000 A 
ATOM      3  C   UNL     1       2.764   5.885  18.440  0.00  0.00    +0.000 A 
ATOM      4  C   UNL     1       2.236   4.666  18.884  0.00  0.00    +0.000 A 
ATOM      5  C   UNL     1       1.116   4.645  19.707  0.00  0.00    +0.000 A 
ATOM      6  C   UNL     1       1.214   3.935  20.892  0.00  0.00    +0.000 A 
ATOM      7  C   UNL     1       2.123   2.914  20.869  0.00  0.00    +0.000 A 
ATOM      8  N   UNL     1       2.875   2.581  19.787  0.00  0.00    +0.000 NA
ATOM      9  C   UNL     1       3.003   3.527  18.811  0.00  0.00    +0.000 A 
ATOM     10  C   UNL     1       3.946   3.483  17.764  0.00  0.00    +0.000 A 
ENDROOT
BRANCH   1  16
ATOM     11  C   UNL     1       5.364   3.372  12.280  0.00  0.00    +0.000 C 
ATOM     12  C   UNL     1       5.808   4.019  13.559  0.00  0.00    +0.000 A 
ATOM     13  C   UNL     1       7.095   4.540  13.692  0.00  0.00    +0.000 A 
ATOM     14  C   UNL     1       7.481   5.133  14.891  0.00  0.00    +0.000 A 
ATOM     15  C   UNL     1       6.590   5.206  15.976  0.00  0.00    +0.000 A 
ATOM     16  C   UNL     1       5.299   4.660  15.896  0.00  0.00    +0.000 A 
ATOM     17  C   UNL     1       4.930   4.085  14.657  0.00  0.00    +0.000 A 
ENDBRANCH   1  16
BRANCH  10  18
ATOM     18  O   UNL     1       4.488   2.251  17.473  0.00  0.00    +0.000 OA
ATOM     19  H   UNL     1       5.118   2.074  18.198  0.00  0.00    +0.000 HD
ENDBRANCH  10  18
BRANCH   3  20
ATOM     20  C   UNL     1       2.336   7.111  19.211  0.00  0.00    +0.000 C 
BRANCH  20  21
ATOM     21  O   UNL     1       2.631   8.331  18.559  0.00  0.00    +0.000 OA
BRANCH  21  22
ATOM     22  C   UNL     1       1.494   8.735  17.794  0.00  0.00    +0.000 C 
BRANCH  22  23
ATOM     23  C   UNL     1       0.677   9.657  18.637  0.00  0.00    +0.000 A 
ATOM     24  C   UNL     1       1.218  10.144  19.834  0.00  0.00    +0.000 A 
ATOM     25  C   UNL     1       0.490  11.023  20.631  0.00  0.00    +0.000 A 
ATOM     26  C   UNL     1      -0.787  11.426  20.237  0.00  0.00    +0.000 A 
ATOM     27  C   UNL     1      -1.335  10.920  19.048  0.00  0.00    +0.000 A 
ATOM     28  C   UNL     1      -0.606  10.042  18.249  0.00  0.00    +0.000 A 
BRANCH  26  29
ATOM     29  C   UNL     1      -1.539  12.425  21.092  0.00  0.00    +0.000 C 
ATOM     30  C   UNL     1      -2.837  12.849  20.404  0.00  0.00    +0.000 C 
ATOM     31  C   UNL     1      -1.796  11.882  22.496  0.00  0.00    +0.000 C 
ENDBRANCH  26  29
ENDBRANCH  22  23
ENDBRANCH  21  22
ENDBRANCH  20  21
ENDBRANCH   3  20
TORSDOF 7
ENDMDL
MODEL 8
REMARK VINA RESULT:      -8.4      0.948      1.286
REMARK  Name = 
REMARK  10 active torsions:
REMARK  status: ('A' for Active; 'I' for Inactive)
REMARK    1  A    between atoms: C_1  and  C_2
REMARK    2  A    between atoms: C_6  and  C_7
REMARK    3  A    between atoms: C_9  and  C_10
REMARK    4  A    between atoms: C_10  and  O_11
REMARK    5  A    between atoms: O_11  and  C_12
REMARK    6  A    between atoms: C_12  and  C_13
REMARK    7  A    between atoms: C_16  and  C_17
REMARK    8  A    between atoms: C_17  and  C_18
REMARK    9  A    between atoms: C_17  and  C_19
REMARK   10  A    between atoms: C_28  and  O_29
REMARK                            x       y       z     vdW  Elec       q    Type
REMARK                         _______ _______ _______ _____ _____    ______ ____
ROOT
ATOM      1  C   UNL     1       5.972   4.046  14.495  0.00  0.00    +0.000 A 
ATOM      2  C   UNL     1       5.150   3.661  15.567  0.00  0.00    +0.000 A 
ATOM      3  C   UNL     1       5.460   4.010  16.884  0.00  0.00    +0.000 A 
ATOM      4  C   UNL     1       6.627   4.745  17.121  0.00  0.00    +0.000 A 
ATOM      5  C   UNL     1       7.037   5.009  18.423  0.00  0.00    +0.000 A 
ATOM      6  C   UNL     1       7.284   6.331  18.753  0.00  0.00    +0.000 A 
ATOM      7  C   UNL     1       7.646   7.122  17.699  0.00  0.00    +0.000 A 
ATOM      8  N   UNL     1       7.780   6.682  16.420  0.00  0.00    +0.000 NA
ATOM      9  C   UNL     1       7.171   5.500  16.108  0.00  0.00    +0.000 A 
ATOM     10  C   UNL     1       6.960   5.022  14.799  0.00  0.00    +0.000 A 
ENDROOT
BRANCH   1  16
ATOM     11  C   UNL     1       3.073   3.757  10.384  0.00  0.00    +0.000 C 
ATOM     12  C   UNL     1       4.297   3.308  11.125  0.00  0.00    +0.000 A 
ATOM     13  C   UNL     1       5.133   2.321  10.601  0.00  0.00    +0.000 A 
ATOM     14  C   UNL     1       6.262   1.921  11.311  0.00  0.00    +0.000 A 
ATOM     15  C   UNL     1       6.566   2.495  12.558  0.00  0.00    +0.000 A 
ATOM     16  C   UNL     1       5.731   3.462  13.138  0.00  0.00    +0.000 A 
ATOM     17  C   UNL     1       4.605   3.863  12.381  0.00  0.00    +0.000 A 
ENDBRANCH   1  16
BRANCH  10  18
ATOM     18  O   UNL     1       7.751   5.564  13.809  0.00  0.00    +0.000 OA
ATOM     19  H   UNL     1       7.202   5.533  13.002  0.00  0.00    +0.000 HD
ENDBRANCH  10  18
BRANCH   3  20
ATOM     20  C   UNL     1       4.500   3.899  18.044  0.00  0.00    +0.000 C 
BRANCH  20  21
ATOM     21  O   UNL     1       3.638   2.780  17.973  0.00  0.00    +0.000 OA
BRANCH  21  22
ATOM     22  C   UNL     1       2.291   3.239  17.851  0.00  0.00    +0.000 C 
BRANCH  22  23
ATOM     23  C   UNL     1       2.192   4.561  18.538  0.00  0.00    +0.000 A 
ATOM     24  C   UNL     1       2.473   5.727  17.814  0.00  0.00    +0.000 A 
ATOM     25  C   UNL     1       2.368   6.976  18.419  0.00  0.00    +0.000 A 
ATOM     26  C   UNL     1       1.978   7.072  19.757  0.00  0.00    +0.000 A 
ATOM     27  C   UNL     1       1.718   5.901  20.486  0.00  0.00    +0.000 A 
ATOM     28  C   UNL     1       1.820   4.651  19.879  0.00  0.00    +0.000 A 
BRANCH  26  29
ATOM     29  C   UNL     1       1.818   8.443  20.379  0.00  0.00    +0.000 C 
ATOM     30  C   UNL     1       1.137   9.401  19.400  0.00  0.00    +0.000 C 
ATOM     31  C   UNL     1       1.070   8.372  21.710  0.00  0.00    +0.000 C 
ENDBRANCH  26  29
ENDBRANCH  22  23
ENDBRANCH  21  22
ENDBRANCH  20  21
ENDBRANCH   3  20
TORSDOF 7
ENDMDL
MODEL 9
REMARK VINA RESULT:      -8.3      2.596      4.590
REMARK  Name = 
REMARK  10 active torsions:
REMARK  status: ('A' for Active; 'I' for Inactive)
REMARK    1  A    between atoms: C_1  and  C_2
REMARK    2  A    between atoms: C_6  and  C_7
REMARK    3  A    between atoms: C_9  and  C_10
REMARK    4  A    between atoms: C_10  and  O_11
REMARK    5  A    between atoms: O_11  and  C_12
REMARK    6  A    between atoms: C_12  and  C_13
REMARK    7  A    between atoms: C_16  and  C_17
REMARK    8  A    between atoms: C_17  and  C_18
REMARK    9  A    between atoms: C_17  and  C_19
REMARK   10  A    between atoms: C_28  and  O_29
REMARK                            x       y       z     vdW  Elec       q    Type
REMARK                         _______ _______ _______ _____ _____    ______ ____
ROOT
ATOM      1  C   UNL     1       4.323   4.493  16.988  0.00  0.00    +0.000 A 
ATOM      2  C   UNL     1       3.787   5.695  17.479  0.00  0.00    +0.000 A 
ATOM      3  C   UNL     1       2.757   5.702  18.422  0.00  0.00    +0.000 A 
ATOM      4  C   UNL     1       2.250   4.474  18.864  0.00  0.00    +0.000 A 
ATOM      5  C   UNL     1       1.147   4.432  19.708  0.00  0.00    +0.000 A 
ATOM      6  C   UNL     1       1.275   3.713  20.885  0.00  0.00    +0.000 A 
ATOM      7  C   UNL     1       2.195   2.702  20.834  0.00  0.00    +0.000 A 
ATOM      8  N   UNL     1       2.930   2.387  19.735  0.00  0.00    +0.000 NA
ATOM      9  C   UNL     1       3.029   3.344  18.766  0.00  0.00    +0.000 A 
ATOM     10  C   UNL     1       3.953   3.320  17.701  0.00  0.00    +0.000 A 
ENDROOT
BRANCH   1  16
ATOM     11  C   UNL     1       5.251   3.310  12.179  0.00  0.00    +0.000 C 
ATOM     12  C   UNL     1       5.720   3.932  13.461  0.00  0.00    +0.000 A 
ATOM     13  C   UNL     1       7.010   4.450  13.580  0.00  0.00    +0.000 A 
ATOM     14  C   UNL     1       7.420   5.018  14.782  0.00  0.00    +0.000 A 
ATOM     15  C   UNL     1       6.549   5.071  15.885  0.00  0.00    +0.000 A 
ATOM     16  C   UNL     1       5.257   4.528  15.820  0.00  0.00    +0.000 A 
ATOM     17  C   UNL     1       4.864   3.978  14.577  0.00  0.00    +0.000 A 
ENDBRANCH   1  16
BRANCH  10  18
ATOM     18  O   UNL     1       4.502   2.096  17.388  0.00  0.00    +0.000 OA
ATOM     19  H   UNL     1       3.999   1.450  17.921  0.00  0.00    +0.000 HD
ENDBRANCH  10  18
BRANCH   3  20
ATOM     20  C   UNL     1       2.330   6.916  19.212  0.00  0.00    +0.000 C 
BRANCH  20  21
ATOM     21  O   UNL     1       2.768   8.142  18.662  0.00  0.00    +0.000 OA
BRANCH  21  22
ATOM     22  C   UNL     1       1.758   8.646  17.787  0.00  0.00    +0.000 C 
BRANCH  22  23
ATOM     23  C   UNL     1       1.324   9.978  18.304  0.00  0.00    +0.000 A 
ATOM     24  C   UNL     1       2.140  11.094  18.078  0.00  0.00    +0.000 A 
ATOM     25  C   UNL     1       1.753  12.353  18.528  0.00  0.00    +0.000 A 
ATOM     26  C   UNL     1       0.544  12.510  19.208  0.00  0.00    +0.000 A 
ATOM     27  C   UNL     1      -0.262  11.386  19.452  0.00  0.00    +0.000 A 
ATOM     28  C   UNL     1       0.124  10.126  18.999  0.00  0.00    +0.000 A 
BRANCH  26  29
ATOM     29  C   UNL     1       0.117  13.897  19.640  0.00  0.00    +0.000 C 
ATOM     30  C   UNL     1      -0.622  13.838  20.978  0.00  0.00    +0.000 C 
ATOM     31  C   UNL     1       1.304  14.859  19.693  0.00  0.00    +0.000 C 
ENDBRANCH  26  29
ENDBRANCH  22  23
ENDBRANCH  21  22
ENDBRANCH  20  21
ENDBRANCH   3  20
TORSDOF 7
ENDMDL
