MODEL 1
REMARK VINA RESULT:      -6.4      0.000      0.000
REMARK  Name = 
REMARK  16 active torsions:
REMARK  status: ('A' for Active; 'I' for Inactive)
REMARK    1  A    between atoms: C_1  and  C_2
REMARK    2  A    between atoms: C_2  and  C_3
REMARK    3  A    between atoms: C_3  and  C_4
REMARK    4  A    between atoms: C_4  and  C_5
REMARK    5  A    between atoms: C_5  and  C_6
REMARK    6  A    between atoms: C_6  and  C_7
REMARK    7  A    between atoms: C_7  and  C_8
REMARK    8  A    between atoms: C_8  and  C_9
REMARK    9  A    between atoms: C_9  and  N_10
REMARK   10  A    between atoms: N_14  and  C_15
REMARK   11  A    between atoms: C_15  and  C_16
REMARK   12  A    between atoms: C_16  and  C_17
REMARK   13  A    between atoms: C_17  and  C_18
REMARK   14  A    between atoms: C_18  and  C_19
REMARK   15  A    between atoms: C_19  and  C_20
REMARK   16  A    between atoms: C_20  and  C_21
REMARK                            x       y       z     vdW  Elec       q    Type
REMARK                         _______ _______ _______ _____ _____    ______ ____
ROOT
ATOM      1  N   UNL     1       4.591   4.069  18.159  0.00  0.00    +0.000 N 
ATOM      2  C   UNL     1       4.128   4.941  17.187  0.00  0.00    +0.000 A 
ATOM      3  C   UNL     1       4.779   6.051  16.801  0.00  0.00    +0.000 A 
ATOM      4  C   UNL     1       6.059   6.387  17.478  0.00  0.00    +0.000 A 
ATOM      5  N   UNL     1       6.724   7.405  17.037  0.00  0.00    +0.000 NA
ATOM      6  C   UNL     1       6.467   5.504  18.610  0.00  0.00    +0.000 A 
ATOM      7  C   UNL     1       5.745   4.403  18.841  0.00  0.00    +0.000 A 
ENDROOT
BRANCH   1   8
ATOM      8  C   UNL     1       3.928   2.784  18.403  0.00  0.00    +0.000 C 
BRANCH   8   9
ATOM      9  C   UNL     1       2.458   2.861  18.008  0.00  0.00    +0.000 C 
BRANCH   9  10
ATOM     10  C   UNL     1       1.593   2.193  19.062  0.00  0.00    +0.000 C 
BRANCH  10  11
ATOM     11  C   UNL     1       0.824   3.236  19.858  0.00  0.00    +0.000 C 
BRANCH  11  12
ATOM     12  C   UNL     1       1.780   4.062  20.703  0.00  0.00    +0.000 C 
BRANCH  12  13
ATOM     13  C   UNL     1       1.351   5.522  20.713  0.00  0.00    +0.000 C 
BRANCH  13  14
ATOM     14  C   UNL     1       2.264   6.347  19.818  0.00  0.00    +0.000 C 
BRANCH  14  16
ATOM     15  C   UNL     1       1.080   8.062  21.195  0.00  0.00    +0.000 C 
ATOM     16  C   UNL     1       2.023   7.835  20.029  0.00  0.00    +0.000 C 
ENDBRANCH  14  16
ENDBRANCH  13  14
ENDBRANCH  12  13
ENDBRANCH  11  12
ENDBRANCH  10  11
ENDBRANCH   9  10
ENDBRANCH   8   9
ENDBRANCH   1   8
BRANCH   5  17
ATOM     17  C   UNL     1       7.980   7.693  17.716  0.00  0.00    +0.000 C 
BRANCH  17  18
ATOM     18  C   UNL     1       8.152   9.196  17.798  0.00  0.00    +0.000 C 
BRANCH  18  19
ATOM     19  C   UNL     1       8.915   9.546  19.067  0.00  0.00    +0.000 C 
BRANCH  19  20
ATOM     20  C   UNL     1       9.336  11.005  19.045  0.00  0.00    +0.000 C 
BRANCH  20  21
ATOM     21  C   UNL     1       9.843  11.430  20.415  0.00  0.00    +0.000 C 
BRANCH  21  22
ATOM     22  C   UNL     1      11.131  12.231  20.281  0.00  0.00    +0.000 C 
ATOM     23  C   UNL     1      12.042  11.606  19.243  0.00  0.00    +0.000 C 
ENDBRANCH  21  22
ENDBRANCH  20  21
ENDBRANCH  19  20
ENDBRANCH  18  19
ENDBRANCH  17  18
ENDBRANCH   5  17
TORSDOF 14
ENDMDL
MODEL 2
REMARK VINA RESULT:      -6.4      3.958      8.004
REMARK  Name = 
REMARK  16 active torsions:
REMARK  status: ('A' for Active; 'I' for Inactive)
REMARK    1  A    between atoms: C_1  and  C_2
REMARK    2  A    between atoms: C_2  and  C_3
REMARK    3  A    between atoms: C_3  and  C_4
REMARK    4  A    between atoms: C_4  and  C_5
REMARK    5  A    between atoms: C_5  and  C_6
REMARK    6  A    between atoms: C_6  and  C_7
REMARK    7  A    between atoms: C_7  and  C_8
REMARK    8  A    between atoms: C_8  and  C_9
REMARK    9  A    between atoms: C_9  and  N_10
REMARK   10  A    between atoms: N_14  and  C_15
REMARK   11  A    between atoms: C_15  and  C_16
REMARK   12  A    between atoms: C_16  and  C_17
REMARK   13  A    between atoms: C_17  and  C_18
REMARK   14  A    between atoms: C_18  and  C_19
REMARK   15  A    between atoms: C_19  and  C_20
REMARK   16  A    between atoms: C_20  and  C_21
REMARK                            x       y       z     vdW  Elec       q    Type
REMARK                         _______ _______ _______ _____ _____    ______ ____
ROOT
ATOM      1  N   UNL     1       5.451   4.984  16.598  0.00  0.00    +0.000 N 
ATOM      2  C   UNL     1       5.998   5.187  17.854  0.00  0.00    +0.000 A 
ATOM      3  C   UNL     1       5.522   4.631  18.981  0.00  0.00    +0.000 A 
ATOM      4  C   UNL     1       4.315   3.768  18.883  0.00  0.00    +0.000 A 
ATOM      5  N   UNL     1       3.920   3.162  19.956  0.00  0.00    +0.000 NA
ATOM      6  C   UNL     1       3.670   3.673  17.541  0.00  0.00    +0.000 A 
ATOM      7  C   UNL     1       4.291   4.239  16.502  0.00  0.00    +0.000 A 
ENDROOT
BRANCH   1   8
ATOM      8  C   UNL     1       6.124   5.472  15.390  0.00  0.00    +0.000 C 
BRANCH   8   9
ATOM      9  C   UNL     1       6.793   4.318  14.652  0.00  0.00    +0.000 C 
BRANCH   9  10
ATOM     10  C   UNL     1       7.344   4.793  13.319  0.00  0.00    +0.000 C 
BRANCH  10  11
ATOM     11  C   UNL     1       6.891   3.871  12.197  0.00  0.00    +0.000 C 
BRANCH  11  12
ATOM     12  C   UNL     1       5.481   3.371  12.465  0.00  0.00    +0.000 C 
BRANCH  12  13
ATOM     13  C   UNL     1       5.028   2.440  11.350  0.00  0.00    +0.000 C 
BRANCH  13  14
ATOM     14  C   UNL     1       3.623   2.807  10.893  0.00  0.00    +0.000 C 
BRANCH  14  16
ATOM     15  C   UNL     1       2.582   4.406   9.280  0.00  0.00    +0.000 C 
ATOM     16  C   UNL     1       3.571   4.253  10.421  0.00  0.00    +0.000 C 
ENDBRANCH  14  16
ENDBRANCH  13  14
ENDBRANCH  12  13
ENDBRANCH  11  12
ENDBRANCH  10  11
ENDBRANCH   9  10
ENDBRANCH   8   9
ENDBRANCH   1   8
BRANCH   5  17
ATOM     17  C   UNL     1       2.744   2.315  19.818  0.00  0.00    +0.000 C 
BRANCH  17  18
ATOM     18  C   UNL     1       1.532   3.086  20.297  0.00  0.00    +0.000 C 
BRANCH  18  19
ATOM     19  C   UNL     1       1.990   4.345  21.018  0.00  0.00    +0.000 C 
BRANCH  19  20
ATOM     20  C   UNL     1       1.360   5.574  20.388  0.00  0.00    +0.000 C 
BRANCH  20  21
ATOM     21  C   UNL     1       2.426   6.616  20.079  0.00  0.00    +0.000 C 
BRANCH  21  22
ATOM     22  C   UNL     1       2.507   6.866  18.580  0.00  0.00    +0.000 C 
ATOM     23  C   UNL     1       2.050   8.273  18.249  0.00  0.00    +0.000 C 
ENDBRANCH  21  22
ENDBRANCH  20  21
ENDBRANCH  19  20
ENDBRANCH  18  19
ENDBRANCH  17  18
ENDBRANCH   5  17
TORSDOF 14
ENDMDL
MODEL 3
REMARK VINA RESULT:      -6.4      1.112      1.685
REMARK  Name = 
REMARK  16 active torsions:
REMARK  status: ('A' for Active; 'I' for Inactive)
REMARK    1  A    between atoms: C_1  and  C_2
REMARK    2  A    between atoms: C_2  and  C_3
REMARK    3  A    between atoms: C_3  and  C_4
REMARK    4  A    between atoms: C_4  and  C_5
REMARK    5  A    between atoms: C_5  and  C_6
REMARK    6  A    between atoms: C_6  and  C_7
REMARK    7  A    between atoms: C_7  and  C_8
REMARK    8  A    between atoms: C_8  and  C_9
REMARK    9  A    between atoms: C_9  and  N_10
REMARK   10  A    between atoms: N_14  and  C_15
REMARK   11  A    between atoms: C_15  and  C_16
REMARK   12  A    between atoms: C_16  and  C_17
REMARK   13  A    between atoms: C_17  and  C_18
REMARK   14  A    between atoms: C_18  and  C_19
REMARK   15  A    between atoms: C_19  and  C_20
REMARK   16  A    between atoms: C_20  and  C_21
REMARK                            x       y       z     vdW  Elec       q    Type
REMARK                         _______ _______ _______ _____ _____    ______ ____
ROOT
ATOM      1  N   UNL     1       4.229   3.183  17.924  0.00  0.00    +0.000 N 
ATOM      2  C   UNL     1       4.728   3.515  19.173  0.00  0.00    +0.000 A 
ATOM      3  C   UNL     1       5.633   4.484  19.388  0.00  0.00    +0.000 A 
ATOM      4  C   UNL     1       6.158   5.229  18.213  0.00  0.00    +0.000 A 
ATOM      5  N   UNL     1       6.957   6.222  18.437  0.00  0.00    +0.000 NA
ATOM      6  C   UNL     1       5.703   4.763  16.870  0.00  0.00    +0.000 A 
ATOM      7  C   UNL     1       4.756   3.822  16.818  0.00  0.00    +0.000 A 
ENDROOT
BRANCH   1   8
ATOM      8  C   UNL     1       3.113   2.243  17.779  0.00  0.00    +0.000 C 
BRANCH   8   9
ATOM      9  C   UNL     1       2.401   2.052  19.113  0.00  0.00    +0.000 C 
BRANCH   9  10
ATOM     10  C   UNL     1       0.915   2.321  18.962  0.00  0.00    +0.000 C 
BRANCH  10  11
ATOM     11  C   UNL     1       0.517   3.564  19.743  0.00  0.00    +0.000 C 
BRANCH  11  12
ATOM     12  C   UNL     1       1.554   3.867  20.812  0.00  0.00    +0.000 C 
BRANCH  12  13
ATOM     13  C   UNL     1       1.983   5.324  20.735  0.00  0.00    +0.000 C 
BRANCH  13  14
ATOM     14  C   UNL     1       2.194   5.736  19.285  0.00  0.00    +0.000 C 
BRANCH  14  16
ATOM     15  C   UNL     1       3.091   7.596  17.878  0.00  0.00    +0.000 C 
ATOM     16  C   UNL     1       2.393   7.242  19.177  0.00  0.00    +0.000 C 
ENDBRANCH  14  16
ENDBRANCH  13  14
ENDBRANCH  12  13
ENDBRANCH  11  12
ENDBRANCH  10  11
ENDBRANCH   9  10
ENDBRANCH   8   9
ENDBRANCH   1   8
BRANCH   5  17
ATOM     17  C   UNL     1       7.438   6.936  17.263  0.00  0.00    +0.000 C 
BRANCH  17  18
ATOM     18  C   UNL     1       7.322   8.424  17.519  0.00  0.00    +0.000 C 
BRANCH  18  19
ATOM     19  C   UNL     1       8.528   8.893  18.320  0.00  0.00    +0.000 C 
BRANCH  19  20
ATOM     20  C   UNL     1       8.639  10.406  18.270  0.00  0.00    +0.000 C 
BRANCH  20  21
ATOM     21  C   UNL     1      10.088  10.836  18.442  0.00  0.00    +0.000 C 
BRANCH  21  22
ATOM     22  C   UNL     1      10.322  11.373  19.847  0.00  0.00    +0.000 C 
ATOM     23  C   UNL     1      11.718  11.949  19.973  0.00  0.00    +0.000 C 
ENDBRANCH  21  22
ENDBRANCH  20  21
ENDBRANCH  19  20
ENDBRANCH  18  19
ENDBRANCH  17  18
ENDBRANCH   5  17
TORSDOF 14
ENDMDL
MODEL 4
REMARK VINA RESULT:      -6.3      3.758      6.853
REMARK  Name = 
REMARK  16 active torsions:
REMARK  status: ('A' for Active; 'I' for Inactive)
REMARK    1  A    between atoms: C_1  and  C_2
REMARK    2  A    between atoms: C_2  and  C_3
REMARK    3  A    between atoms: C_3  and  C_4
REMARK    4  A    between atoms: C_4  and  C_5
REMARK    5  A    between atoms: C_5  and  C_6
REMARK    6  A    between atoms: C_6  and  C_7
REMARK    7  A    between atoms: C_7  and  C_8
REMARK    8  A    between atoms: C_8  and  C_9
REMARK    9  A    between atoms: C_9  and  N_10
REMARK   10  A    between atoms: N_14  and  C_15
REMARK   11  A    between atoms: C_15  and  C_16
REMARK   12  A    between atoms: C_16  and  C_17
REMARK   13  A    between atoms: C_17  and  C_18
REMARK   14  A    between atoms: C_18  and  C_19
REMARK   15  A    between atoms: C_19  and  C_20
REMARK   16  A    between atoms: C_20  and  C_21
REMARK                            x       y       z     vdW  Elec       q    Type
REMARK                         _______ _______ _______ _____ _____    ______ ____
ROOT
ATOM      1  N   UNL     1       3.629   5.602  17.481  0.00  0.00    +0.000 N 
ATOM      2  C   UNL     1       4.508   6.673  17.463  0.00  0.00    +0.000 A 
ATOM      3  C   UNL     1       5.607   6.732  16.694  0.00  0.00    +0.000 A 
ATOM      4  C   UNL     1       5.923   5.564  15.829  0.00  0.00    +0.000 A 
ATOM      5  N   UNL     1       6.930   5.666  15.023  0.00  0.00    +0.000 NA
ATOM      6  C   UNL     1       5.035   4.373  15.966  0.00  0.00    +0.000 A 
ATOM      7  C   UNL     1       3.946   4.484  16.733  0.00  0.00    +0.000 A 
ENDROOT
BRANCH   1   8
ATOM      8  C   UNL     1       2.356   5.678  18.203  0.00  0.00    +0.000 C 
BRANCH   8   9
ATOM      9  C   UNL     1       2.564   6.284  19.587  0.00  0.00    +0.000 C 
BRANCH   9  10
ATOM     10  C   UNL     1       1.647   5.621  20.597  0.00  0.00    +0.000 C 
BRANCH  10  11
ATOM     11  C   UNL     1       1.092   4.319  20.038  0.00  0.00    +0.000 C 
BRANCH  11  12
ATOM     12  C   UNL     1       1.094   3.243  21.110  0.00  0.00    +0.000 C 
BRANCH  12  13
ATOM     13  C   UNL     1       2.463   2.583  21.194  0.00  0.00    +0.000 C 
BRANCH  13  14
ATOM     14  C   UNL     1       3.009   2.323  19.797  0.00  0.00    +0.000 C 
BRANCH  14  16
ATOM     15  C   UNL     1       5.208   3.502  19.668  0.00  0.00    +0.000 C 
ATOM     16  C   UNL     1       4.522   2.159  19.834  0.00  0.00    +0.000 C 
ENDBRANCH  14  16
ENDBRANCH  13  14
ENDBRANCH  12  13
ENDBRANCH  11  12
ENDBRANCH  10  11
ENDBRANCH   9  10
ENDBRANCH   8   9
ENDBRANCH   1   8
BRANCH   5  17
ATOM     17  C   UNL     1       7.199   4.508  14.182  0.00  0.00    +0.000 C 
BRANCH  17  18
ATOM     18  C   UNL     1       7.455   4.985  12.767  0.00  0.00    +0.000 C 
BRANCH  18  19
ATOM     19  C   UNL     1       6.938   3.944  11.785  0.00  0.00    +0.000 C 
BRANCH  19  20
ATOM     20  C   UNL     1       5.806   3.147  12.407  0.00  0.00    +0.000 C 
BRANCH  20  21
ATOM     21  C   UNL     1       4.781   2.769  11.348  0.00  0.00    +0.000 C 
BRANCH  21  22
ATOM     22  C   UNL     1       3.901   3.963  11.008  0.00  0.00    +0.000 C 
ATOM     23  C   UNL     1       3.051   3.669   9.788  0.00  0.00    +0.000 C 
ENDBRANCH  21  22
ENDBRANCH  20  21
ENDBRANCH  19  20
ENDBRANCH  18  19
ENDBRANCH  17  18
ENDBRANCH   5  17
TORSDOF 14
ENDMDL
MODEL 5
REMARK VINA RESULT:      -6.3      3.385      8.401
REMARK  Name = 
REMARK  16 active torsions:
REMARK  status: ('A' for Active; 'I' for Inactive)
REMARK    1  A    between atoms: C_1  and  C_2
REMARK    2  A    between atoms: C_2  and  C_3
REMARK    3  A    between atoms: C_3  and  C_4
REMARK    4  A    between atoms: C_4  and  C_5
REMARK    5  A    between atoms: C_5  and  C_6
REMARK    6  A    between atoms: C_6  and  C_7
REMARK    7  A    between atoms: C_7  and  C_8
REMARK    8  A    between atoms: C_8  and  C_9
REMARK    9  A    between atoms: C_9  and  N_10
REMARK   10  A    between atoms: N_14  and  C_15
REMARK   11  A    between atoms: C_15  and  C_16
REMARK   12  A    between atoms: C_16  and  C_17
REMARK   13  A    between atoms: C_17  and  C_18
REMARK   14  A    between atoms: C_18  and  C_19
REMARK   15  A    between atoms: C_19  and  C_20
REMARK   16  A    between atoms: C_20  and  C_21
REMARK                            x       y       z     vdW  Elec       q    Type
REMARK                         _______ _______ _______ _____ _____    ______ ____
ROOT
ATOM      1  N   UNL     1       5.260   6.409  17.906  0.00  0.00    +0.000 N 
ATOM      2  C   UNL     1       4.054   7.070  17.744  0.00  0.00    +0.000 A 
ATOM      3  C   UNL     1       2.963   6.839  18.493  0.00  0.00    +0.000 A 
ATOM      4  C   UNL     1       3.039   5.786  19.540  0.00  0.00    +0.000 A 
ATOM      5  N   UNL     1       2.016   5.635  20.318  0.00  0.00    +0.000 NA
ATOM      6  C   UNL     1       4.305   5.000  19.604  0.00  0.00    +0.000 A 
ATOM      7  C   UNL     1       5.325   5.383  18.830  0.00  0.00    +0.000 A 
ENDROOT
BRANCH   1   8
ATOM      8  C   UNL     1       6.461   6.834  17.181  0.00  0.00    +0.000 C 
BRANCH   8   9
ATOM      9  C   UNL     1       6.513   6.177  15.806  0.00  0.00    +0.000 C 
BRANCH   9  10
ATOM     10  C   UNL     1       7.084   4.774  15.913  0.00  0.00    +0.000 C 
BRANCH  10  11
ATOM     11  C   UNL     1       6.024   3.741  15.564  0.00  0.00    +0.000 C 
BRANCH  11  12
ATOM     12  C   UNL     1       5.385   4.075  14.225  0.00  0.00    +0.000 C 
BRANCH  12  13
ATOM     13  C   UNL     1       6.366   3.812  13.092  0.00  0.00    +0.000 C 
BRANCH  13  14
ATOM     14  C   UNL     1       5.617   3.439  11.821  0.00  0.00    +0.000 C 
BRANCH  14  16
ATOM     15  C   UNL     1       6.991   1.498  11.056  0.00  0.00    +0.000 C 
ATOM     16  C   UNL     1       5.644   1.933  11.602  0.00  0.00    +0.000 C 
ENDBRANCH  14  16
ENDBRANCH  13  14
ENDBRANCH  12  13
ENDBRANCH  11  12
ENDBRANCH  10  11
ENDBRANCH   9  10
ENDBRANCH   8   9
ENDBRANCH   1   8
BRANCH   5  17
ATOM     17  C   UNL     1       2.134   4.605  21.340  0.00  0.00    +0.000 C 
BRANCH  17  18
ATOM     18  C   UNL     1       1.165   3.487  21.016  0.00  0.00    +0.000 C 
BRANCH  18  19
ATOM     19  C   UNL     1       1.928   2.324  20.398  0.00  0.00    +0.000 C 
BRANCH  19  20
ATOM     20  C   UNL     1       1.497   2.115  18.957  0.00  0.00    +0.000 C 
BRANCH  20  21
ATOM     21  C   UNL     1       2.711   2.076  18.042  0.00  0.00    +0.000 C 
BRANCH  21  22
ATOM     22  C   UNL     1       2.667   3.228  17.048  0.00  0.00    +0.000 C 
ATOM     23  C   UNL     1       1.362   3.989  17.172  0.00  0.00    +0.000 C 
ENDBRANCH  21  22
ENDBRANCH  20  21
ENDBRANCH  19  20
ENDBRANCH  18  19
ENDBRANCH  17  18
ENDBRANCH   5  17
TORSDOF 14
ENDMDL
MODEL 6
REMARK VINA RESULT:      -6.3      1.129      2.224
REMARK  Name = 
REMARK  16 active torsions:
REMARK  status: ('A' for Active; 'I' for Inactive)
REMARK    1  A    between atoms: C_1  and  C_2
REMARK    2  A    between atoms: C_2  and  C_3
REMARK    3  A    between atoms: C_3  and  C_4
REMARK    4  A    between atoms: C_4  and  C_5
REMARK    5  A    between atoms: C_5  and  C_6
REMARK    6  A    between atoms: C_6  and  C_7
REMARK    7  A    between atoms: C_7  and  C_8
REMARK    8  A    between atoms: C_8  and  C_9
REMARK    9  A    between atoms: C_9  and  N_10
REMARK   10  A    between atoms: N_14  and  C_15
REMARK   11  A    between atoms: C_15  and  C_16
REMARK   12  A    between atoms: C_16  and  C_17
REMARK   13  A    between atoms: C_17  and  C_18
REMARK   14  A    between atoms: C_18  and  C_19
REMARK   15  A    between atoms: C_19  and  C_20
REMARK   16  A    between atoms: C_20  and  C_21
REMARK                            x       y       z     vdW  Elec       q    Type
REMARK                         _______ _______ _______ _____ _____    ______ ____
ROOT
ATOM      1  N   UNL     1       5.850   4.984  18.087  0.00  0.00    +0.000 N 
ATOM      2  C   UNL     1       6.984   4.944  18.881  0.00  0.00    +0.000 A 
ATOM      3  C   UNL     1       7.855   5.960  18.999  0.00  0.00    +0.000 A 
ATOM      4  C   UNL     1       7.610   7.193  18.206  0.00  0.00    +0.000 A 
ATOM      5  N   UNL     1       8.400   8.199  18.396  0.00  0.00    +0.000 NA
ATOM      6  C   UNL     1       6.456   7.158  17.260  0.00  0.00    +0.000 A 
ATOM      7  C   UNL     1       5.645   6.097  17.294  0.00  0.00    +0.000 A 
ENDROOT
BRANCH   1   8
ATOM      8  C   UNL     1       4.847   3.916  18.143  0.00  0.00    +0.000 C 
BRANCH   8   9
ATOM      9  C   UNL     1       3.928   3.985  16.928  0.00  0.00    +0.000 C 
BRANCH   9  10
ATOM     10  C   UNL     1       2.592   3.335  17.239  0.00  0.00    +0.000 C 
BRANCH  10  11
ATOM     11  C   UNL     1       2.615   2.709  18.625  0.00  0.00    +0.000 C 
BRANCH  11  12
ATOM     12  C   UNL     1       1.201   2.573  19.164  0.00  0.00    +0.000 C 
BRANCH  12  13
ATOM     13  C   UNL     1       1.057   3.338  20.471  0.00  0.00    +0.000 C 
BRANCH  13  14
ATOM     14  C   UNL     1       2.235   4.282  20.663  0.00  0.00    +0.000 C 
BRANCH  14  16
ATOM     15  C   UNL     1       2.616   6.471  19.521  0.00  0.00    +0.000 C 
ATOM     16  C   UNL     1       1.787   5.733  20.555  0.00  0.00    +0.000 C 
ENDBRANCH  14  16
ENDBRANCH  13  14
ENDBRANCH  12  13
ENDBRANCH  11  12
ENDBRANCH  10  11
ENDBRANCH   9  10
ENDBRANCH   8   9
ENDBRANCH   1   8
BRANCH   5  17
ATOM     17  C   UNL     1       8.119   9.393  17.612  0.00  0.00    +0.000 C 
BRANCH  17  18
ATOM     18  C   UNL     1       8.796  10.577  18.273  0.00  0.00    +0.000 C 
BRANCH  18  19
ATOM     19  C   UNL     1       9.415  10.132  19.590  0.00  0.00    +0.000 C 
BRANCH  19  20
ATOM     20  C   UNL     1       9.744  11.337  20.452  0.00  0.00    +0.000 C 
BRANCH  20  21
ATOM     21  C   UNL     1      11.188  11.765  20.235  0.00  0.00    +0.000 C 
BRANCH  21  22
ATOM     22  C   UNL     1      11.248  13.204  19.742  0.00  0.00    +0.000 C 
ATOM     23  C   UNL     1      10.309  14.083  20.543  0.00  0.00    +0.000 C 
ENDBRANCH  21  22
ENDBRANCH  20  21
ENDBRANCH  19  20
ENDBRANCH  18  19
ENDBRANCH  17  18
ENDBRANCH   5  17
TORSDOF 14
ENDMDL
MODEL 7
REMARK VINA RESULT:      -6.2      1.119      8.646
REMARK  Name = 
REMARK  16 active torsions:
REMARK  status: ('A' for Active; 'I' for Inactive)
REMARK    1  A    between atoms: C_1  and  C_2
REMARK    2  A    between atoms: C_2  and  C_3
REMARK    3  A    between atoms: C_3  and  C_4
REMARK    4  A    between atoms: C_4  and  C_5
REMARK    5  A    between atoms: C_5  and  C_6
REMARK    6  A    between atoms: C_6  and  C_7
REMARK    7  A    between atoms: C_7  and  C_8
REMARK    8  A    between atoms: C_8  and  C_9
REMARK    9  A    between atoms: C_9  and  N_10
REMARK   10  A    between atoms: N_14  and  C_15
REMARK   11  A    between atoms: C_15  and  C_16
REMARK   12  A    between atoms: C_16  and  C_17
REMARK   13  A    between atoms: C_17  and  C_18
REMARK   14  A    between atoms: C_18  and  C_19
REMARK   15  A    between atoms: C_19  and  C_20
REMARK   16  A    between atoms: C_20  and  C_21
REMARK                            x       y       z     vdW  Elec       q    Type
REMARK                         _______ _______ _______ _____ _____    ______ ____
ROOT
ATOM      1  N   UNL     1       6.535   6.140  17.335  0.00  0.00    +0.000 N 
ATOM      2  C   UNL     1       6.685   5.293  18.420  0.00  0.00    +0.000 A 
ATOM      3  C   UNL     1       5.799   4.343  18.761  0.00  0.00    +0.000 A 
ATOM      4  C   UNL     1       4.563   4.208  17.945  0.00  0.00    +0.000 A 
ATOM      5  N   UNL     1       3.762   3.232  18.223  0.00  0.00    +0.000 NA
ATOM      6  C   UNL     1       4.364   5.218  16.865  0.00  0.00    +0.000 A 
ATOM      7  C   UNL     1       5.361   6.071  16.609  0.00  0.00    +0.000 A 
ENDROOT
BRANCH   1   8
ATOM      8  C   UNL     1       7.620   7.030  16.911  0.00  0.00    +0.000 C 
BRANCH   8   9
ATOM      9  C   UNL     1       7.574   8.336  17.696  0.00  0.00    +0.000 C 
BRANCH   9  10
ATOM     10  C   UNL     1       8.641   8.341  18.776  0.00  0.00    +0.000 C 
BRANCH  10  11
ATOM     11  C   UNL     1       8.977   9.767  19.185  0.00  0.00    +0.000 C 
BRANCH  11  12
ATOM     12  C   UNL     1       9.142  10.642  17.954  0.00  0.00    +0.000 C 
BRANCH  12  13
ATOM     13  C   UNL     1       9.747  11.985  18.336  0.00  0.00    +0.000 C 
BRANCH  13  14
ATOM     14  C   UNL     1      11.077  12.186  17.624  0.00  0.00    +0.000 C 
BRANCH  14  16
ATOM     15  C   UNL     1      12.019  12.063  19.934  0.00  0.00    +0.000 C 
ATOM     16  C   UNL     1      12.122  12.742  18.582  0.00  0.00    +0.000 C 
ENDBRANCH  14  16
ENDBRANCH  13  14
ENDBRANCH  12  13
ENDBRANCH  11  12
ENDBRANCH  10  11
ENDBRANCH   9  10
ENDBRANCH   8   9
ENDBRANCH   1   8
BRANCH   5  17
ATOM     17  C   UNL     1       2.570   3.124  17.393  0.00  0.00    +0.000 C 
BRANCH  17  18
ATOM     18  C   UNL     1       1.372   2.897  18.292  0.00  0.00    +0.000 C 
BRANCH  18  19
ATOM     19  C   UNL     1       1.823   2.188  19.561  0.00  0.00    +0.000 C 
BRANCH  19  20
ATOM     20  C   UNL     1       1.242   2.875  20.784  0.00  0.00    +0.000 C 
BRANCH  20  21
ATOM     21  C   UNL     1       1.046   4.359  20.514  0.00  0.00    +0.000 C 
BRANCH  21  22
ATOM     22  C   UNL     1       2.309   5.135  20.864  0.00  0.00    +0.000 C 
ATOM     23  C   UNL     1       2.387   6.418  20.060  0.00  0.00    +0.000 C 
ENDBRANCH  21  22
ENDBRANCH  20  21
ENDBRANCH  19  20
ENDBRANCH  18  19
ENDBRANCH  17  18
ENDBRANCH   5  17
TORSDOF 14
ENDMDL
MODEL 8
REMARK VINA RESULT:      -6.2      3.991      6.214
REMARK  Name = 
REMARK  16 active torsions:
REMARK  status: ('A' for Active; 'I' for Inactive)
REMARK    1  A    between atoms: C_1  and  C_2
REMARK    2  A    between atoms: C_2  and  C_3
REMARK    3  A    between atoms: C_3  and  C_4
REMARK    4  A    between atoms: C_4  and  C_5
REMARK    5  A    between atoms: C_5  and  C_6
REMARK    6  A    between atoms: C_6  and  C_7
REMARK    7  A    between atoms: C_7  and  C_8
REMARK    8  A    between atoms: C_8  and  C_9
REMARK    9  A    between atoms: C_9  and  N_10
REMARK   10  A    between atoms: N_14  and  C_15
REMARK   11  A    between atoms: C_15  and  C_16
REMARK   12  A    between atoms: C_16  and  C_17
REMARK   13  A    between atoms: C_17  and  C_18
REMARK   14  A    between atoms: C_18  and  C_19
REMARK   15  A    between atoms: C_19  and  C_20
REMARK   16  A    between atoms: C_20  and  C_21
REMARK                            x       y       z     vdW  Elec       q    Type
REMARK                         _______ _______ _______ _____ _____    ______ ____
ROOT
ATOM      1  N   UNL     1       4.381   5.892  18.687  0.00  0.00    +0.000 N 
ATOM      2  C   UNL     1       4.645   6.568  17.507  0.00  0.00    +0.000 A 
ATOM      3  C   UNL     1       3.932   7.617  17.066  0.00  0.00    +0.000 A 
ATOM      4  C   UNL     1       2.767   8.066  17.874  0.00  0.00    +0.000 A 
ATOM      5  N   UNL     1       2.145   9.134  17.492  0.00  0.00    +0.000 NA
ATOM      6  C   UNL     1       2.427   7.240  19.069  0.00  0.00    +0.000 A 
ATOM      7  C   UNL     1       3.263   6.256  19.414  0.00  0.00    +0.000 A 
ENDROOT
BRANCH   1   8
ATOM      8  C   UNL     1       5.303   4.875  19.201  0.00  0.00    +0.000 C 
BRANCH   8   9
ATOM      9  C   UNL     1       5.072   3.543  18.496  0.00  0.00    +0.000 C 
BRANCH   9  10
ATOM     10  C   UNL     1       4.246   2.619  19.373  0.00  0.00    +0.000 C 
BRANCH  10  11
ATOM     11  C   UNL     1       3.312   1.772  18.521  0.00  0.00    +0.000 C 
BRANCH  11  12
ATOM     12  C   UNL     1       2.662   2.628  17.445  0.00  0.00    +0.000 C 
BRANCH  12  13
ATOM     13  C   UNL     1       1.510   3.429  18.033  0.00  0.00    +0.000 C 
BRANCH  13  14
ATOM     14  C   UNL     1       0.829   2.640  19.142  0.00  0.00    +0.000 C 
BRANCH  14  16
ATOM     15  C   UNL     1       1.424   2.744  21.565  0.00  0.00    +0.000 C 
ATOM     16  C   UNL     1       0.745   3.467  20.417  0.00  0.00    +0.000 C 
ENDBRANCH  14  16
ENDBRANCH  13  14
ENDBRANCH  12  13
ENDBRANCH  11  12
ENDBRANCH  10  11
ENDBRANCH   9  10
ENDBRANCH   8   9
ENDBRANCH   1   8
BRANCH   5  17
ATOM     17  C   UNL     1       1.019   9.550  18.316  0.00  0.00    +0.000 C 
BRANCH  17  18
ATOM     18  C   UNL     1       1.212  11.003  18.702  0.00  0.00    +0.000 C 
BRANCH  18  19
ATOM     19  C   UNL     1       1.176  11.129  20.218  0.00  0.00    +0.000 C 
BRANCH  19  20
ATOM     20  C   UNL     1       0.091  10.239  20.797  0.00  0.00    +0.000 C 
BRANCH  20  21
ATOM     21  C   UNL     1       0.614   9.488  22.012  0.00  0.00    +0.000 C 
BRANCH  21  22
ATOM     22  C   UNL     1      -0.411   9.516  23.137  0.00  0.00    +0.000 C 
ATOM     23  C   UNL     1      -1.185  10.819  23.122  0.00  0.00    +0.000 C 
ENDBRANCH  21  22
ENDBRANCH  20  21
ENDBRANCH  19  20
ENDBRANCH  18  19
ENDBRANCH  17  18
ENDBRANCH   5  17
TORSDOF 14
ENDMDL
MODEL 9
REMARK VINA RESULT:      -6.1      1.727      8.226
REMARK  Name = 
REMARK  16 active torsions:
REMARK  status: ('A' for Active; 'I' for Inactive)
REMARK    1  A    between atoms: C_1  and  C_2
REMARK    2  A    between atoms: C_2  and  C_3
REMARK    3  A    between atoms: C_3  and  C_4
REMARK    4  A    between atoms: C_4  and  C_5
REMARK    5  A    between atoms: C_5  and  C_6
REMARK    6  A    between atoms: C_6  and  C_7
REMARK    7  A    between atoms: C_7  and  C_8
REMARK    8  A    between atoms: C_8  and  C_9
REMARK    9  A    between atoms: C_9  and  N_10
REMARK   10  A    between atoms: N_14  and  C_15
REMARK   11  A    between atoms: C_15  and  C_16
REMARK   12  A    between atoms: C_16  and  C_17
REMARK   13  A    between atoms: C_17  and  C_18
REMARK   14  A    between atoms: C_18  and  C_19
REMARK   15  A    between atoms: C_19  and  C_20
REMARK   16  A    between atoms: C_20  and  C_21
REMARK                            x       y       z     vdW  Elec       q    Type
REMARK                         _______ _______ _______ _____ _____    ______ ____
ROOT
ATOM      1  N   UNL     1       6.149   5.860  16.921  0.00  0.00    +0.000 N 
ATOM      2  C   UNL     1       6.128   4.551  16.467  0.00  0.00    +0.000 A 
ATOM      3  C   UNL     1       5.057   3.745  16.547  0.00  0.00    +0.000 A 
ATOM      4  C   UNL     1       3.825   4.273  17.192  0.00  0.00    +0.000 A 
ATOM      5  N   UNL     1       2.771   3.523  17.181  0.00  0.00    +0.000 NA
ATOM      6  C   UNL     1       3.918   5.637  17.790  0.00  0.00    +0.000 A 
ATOM      7  C   UNL     1       5.034   6.341  17.581  0.00  0.00    +0.000 A 
ENDROOT
BRANCH   1   8
ATOM      8  C   UNL     1       7.286   6.742  16.640  0.00  0.00    +0.000 C 
BRANCH   8   9
ATOM      9  C   UNL     1       7.808   7.364  17.930  0.00  0.00    +0.000 C 
BRANCH   9  10
ATOM     10  C   UNL     1       7.850   8.876  17.807  0.00  0.00    +0.000 C 
BRANCH  10  11
ATOM     11  C   UNL     1       8.833   9.464  18.808  0.00  0.00    +0.000 C 
BRANCH  11  12
ATOM     12  C   UNL     1       9.472  10.722  18.241  0.00  0.00    +0.000 C 
BRANCH  12  13
ATOM     13  C   UNL     1       9.621  11.775  19.328  0.00  0.00    +0.000 C 
BRANCH  13  14
ATOM     14  C   UNL     1       9.374  11.159  20.698  0.00  0.00    +0.000 C 
BRANCH  14  16
ATOM     15  C   UNL     1       8.067  12.148  22.583  0.00  0.00    +0.000 C 
ATOM     16  C   UNL     1       9.348  12.235  21.775  0.00  0.00    +0.000 C 
ENDBRANCH  14  16
ENDBRANCH  13  14
ENDBRANCH  12  13
ENDBRANCH  11  12
ENDBRANCH  10  11
ENDBRANCH   9  10
ENDBRANCH   8   9
ENDBRANCH   1   8
BRANCH   5  17
ATOM     17  C   UNL     1       1.581   4.080  17.809  0.00  0.00    +0.000 C 
BRANCH  17  18
ATOM     18  C   UNL     1       0.858   2.972  18.547  0.00  0.00    +0.000 C 
BRANCH  18  19
ATOM     19  C   UNL     1       0.563   3.425  19.969  0.00  0.00    +0.000 C 
BRANCH  19  20
ATOM     20  C   UNL     1       1.553   4.491  20.400  0.00  0.00    +0.000 C 
BRANCH  20  21
ATOM     21  C   UNL     1       2.379   4.001  21.580  0.00  0.00    +0.000 C 
BRANCH  21  22
ATOM     22  C   UNL     1       2.866   2.580  21.335  0.00  0.00    +0.000 C 
ATOM     23  C   UNL     1       4.074   2.580  20.419  0.00  0.00    +0.000 C 
ENDBRANCH  21  22
ENDBRANCH  20  21
ENDBRANCH  19  20
ENDBRANCH  18  19
ENDBRANCH  17  18
ENDBRANCH   5  17
TORSDOF 14
ENDMDL
