MODEL 1
REMARK VINA RESULT:      -6.8      0.000      0.000
REMARK  Name = 
REMARK  4 active torsions:
REMARK  status: ('A' for Active; 'I' for Inactive)
REMARK    1  A    between atoms: C_1  and  N_2
REMARK    2  A    between atoms: C_4  and  C_5
REMARK    3  A    between atoms: C_7  and  C_8
REMARK    4  A    between atoms: C_8  and  O_9
REMARK                            x       y       z     vdW  Elec       q    Type
REMARK                         _______ _______ _______ _____ _____    ______ ____
ROOT
ATOM      1  C   UNK     1       1.934   7.479  19.966  0.00  0.00    +0.000 C 
ATOM      2  N   UNK     1       2.643   6.296  19.541  0.00  0.00    +0.000 N 
ATOM      3  N   UNK     1       3.783   6.425  18.841  0.00  0.00    +0.000 NA
ATOM      4  C   UNK     1       4.114   5.162  18.525  0.00  0.00    +0.000 A 
ATOM      5  C   UNK     1       3.196   4.222  19.075  0.00  0.00    +0.000 A 
ATOM      6  C   UNK     1       3.056   2.819  19.084  0.00  0.00    +0.000 A 
ATOM      7  C   UNK     1       1.985   2.244  19.777  0.00  0.00    +0.000 A 
ATOM      8  C   UNK     1       1.061   3.042  20.448  0.00  0.00    +0.000 A 
ATOM      9  C   UNK     1       1.173   4.437  20.445  0.00  0.00    +0.000 A 
ATOM     10  C   UNK     1       2.254   4.996  19.750  0.00  0.00    +0.000 A 
ENDROOT
BRANCH   4  11
ATOM     11  C   UNK     1       5.316   4.835  17.677  0.00  0.00    +0.000 A 
ATOM     12  N   UNK     1       5.302   4.795  16.350  0.00  0.00    +0.000 NA
ATOM     13  C   UNK     1       6.611   4.530  15.996  0.00  0.00    +0.000 A 
ATOM     14  C   UNK     1       7.366   4.373  17.131  0.00  0.00    +0.000 A 
ATOM     15  O   UNK     1       6.562   4.573  18.206  0.00  0.00    +0.000 OA
BRANCH  13  16
ATOM     16  C   UNK     1       7.023   4.476  14.571  0.00  0.00    +0.000 C 
BRANCH  16  17
ATOM     17  O   UNK     1       7.847   5.587  14.220  0.00  0.00    +0.000 OA
ATOM     18  H   UNK     1       8.635   5.510  14.795  0.00  0.00    +0.000 HD
ENDBRANCH  16  17
ENDBRANCH  13  16
ENDBRANCH   4  11
TORSDOF 3
ENDMDL
MODEL 2
REMARK VINA RESULT:      -6.8      2.492      3.854
REMARK  Name = 
REMARK  4 active torsions:
REMARK  status: ('A' for Active; 'I' for Inactive)
REMARK    1  A    between atoms: C_1  and  N_2
REMARK    2  A    between atoms: C_4  and  C_5
REMARK    3  A    between atoms: C_7  and  C_8
REMARK    4  A    between atoms: C_8  and  O_9
REMARK                            x       y       z     vdW  Elec       q    Type
REMARK                         _______ _______ _______ _____ _____    ______ ____
ROOT
ATOM      1  C   UNK     1       7.919   5.737  19.531  0.00  0.00    +0.000 C 
ATOM      2  N   UNK     1       7.090   5.305  18.431  0.00  0.00    +0.000 N 
ATOM      3  N   UNK     1       7.646   5.108  17.223  0.00  0.00    +0.000 NA
ATOM      4  C   UNK     1       6.601   4.822  16.429  0.00  0.00    +0.000 A 
ATOM      5  C   UNK     1       5.377   4.792  17.156  0.00  0.00    +0.000 A 
ATOM      6  C   UNK     1       4.021   4.542  16.861  0.00  0.00    +0.000 A 
ATOM      7  C   UNK     1       3.077   4.594  17.893  0.00  0.00    +0.000 A 
ATOM      8  C   UNK     1       3.463   4.894  19.197  0.00  0.00    +0.000 A 
ATOM      9  C   UNK     1       4.800   5.156  19.512  0.00  0.00    +0.000 A 
ATOM     10  C   UNK     1       5.734   5.095  18.469  0.00  0.00    +0.000 A 
ENDROOT
BRANCH   4  11
ATOM     11  C   UNK     1       6.759   4.584  14.949  0.00  0.00    +0.000 A 
ATOM     12  N   UNK     1       6.101   3.653  14.270  0.00  0.00    +0.000 NA
ATOM     13  C   UNK     1       6.497   3.835  12.958  0.00  0.00    +0.000 A 
ATOM     14  C   UNK     1       7.421   4.846  12.898  0.00  0.00    +0.000 A 
ATOM     15  O   UNK     1       7.593   5.339  14.151  0.00  0.00    +0.000 OA
BRANCH  13  16
ATOM     16  C   UNK     1       5.916   3.017  11.864  0.00  0.00    +0.000 C 
BRANCH  16  17
ATOM     17  O   UNK     1       6.683   1.837  11.627  0.00  0.00    +0.000 OA
ATOM     18  H   UNK     1       7.554   2.157  11.318  0.00  0.00    +0.000 HD
ENDBRANCH  16  17
ENDBRANCH  13  16
ENDBRANCH   4  11
TORSDOF 3
ENDMDL
MODEL 3
REMARK VINA RESULT:      -6.6      1.623      2.603
REMARK  Name = 
REMARK  4 active torsions:
REMARK  status: ('A' for Active; 'I' for Inactive)
REMARK    1  A    between atoms: C_1  and  N_2
REMARK    2  A    between atoms: C_4  and  C_5
REMARK    3  A    between atoms: C_7  and  C_8
REMARK    4  A    between atoms: C_8  and  O_9
REMARK                            x       y       z     vdW  Elec       q    Type
REMARK                         _______ _______ _______ _____ _____    ______ ____
ROOT
ATOM      1  C   UNK     1       2.712   2.355  21.370  0.00  0.00    +0.000 C 
ATOM      2  N   UNK     1       3.186   3.332  20.420  0.00  0.00    +0.000 N 
ATOM      3  N   UNK     1       4.204   3.018  19.601  0.00  0.00    +0.000 NA
ATOM      4  C   UNK     1       4.452   4.161  18.939  0.00  0.00    +0.000 A 
ATOM      5  C   UNK     1       3.545   5.194  19.311  0.00  0.00    +0.000 A 
ATOM      6  C   UNK     1       3.327   6.539  18.949  0.00  0.00    +0.000 A 
ATOM      7  C   UNK     1       2.283   7.248  19.552  0.00  0.00    +0.000 A 
ATOM      8  C   UNK     1       1.467   6.641  20.504  0.00  0.00    +0.000 A 
ATOM      9  C   UNK     1       1.669   5.311  20.887  0.00  0.00    +0.000 A 
ATOM     10  C   UNK     1       2.717   4.614  20.270  0.00  0.00    +0.000 A 
ENDROOT
BRANCH   4  11
ATOM     11  C   UNK     1       5.575   4.283  17.943  0.00  0.00    +0.000 A 
ATOM     12  N   UNK     1       5.407   4.285  16.626  0.00  0.00    +0.000 NA
ATOM     13  C   UNK     1       6.674   4.485  16.113  0.00  0.00    +0.000 A 
ATOM     14  C   UNK     1       7.577   4.551  17.144  0.00  0.00    +0.000 A 
ATOM     15  O   UNK     1       6.895   4.434  18.312  0.00  0.00    +0.000 OA
BRANCH  13  16
ATOM     16  C   UNK     1       6.896   4.619  14.652  0.00  0.00    +0.000 C 
BRANCH  16  17
ATOM     17  O   UNK     1       6.386   3.494  13.938  0.00  0.00    +0.000 OA
ATOM     18  H   UNK     1       6.884   2.726  14.284  0.00  0.00    +0.000 HD
ENDBRANCH  16  17
ENDBRANCH  13  16
ENDBRANCH   4  11
TORSDOF 3
ENDMDL
MODEL 4
REMARK VINA RESULT:      -6.6      2.913      5.987
REMARK  Name = 
REMARK  4 active torsions:
REMARK  status: ('A' for Active; 'I' for Inactive)
REMARK    1  A    between atoms: C_1  and  N_2
REMARK    2  A    between atoms: C_4  and  C_5
REMARK    3  A    between atoms: C_7  and  C_8
REMARK    4  A    between atoms: C_8  and  O_9
REMARK                            x       y       z     vdW  Elec       q    Type
REMARK                         _______ _______ _______ _____ _____    ______ ____
ROOT
ATOM      1  C   UNK     1       5.689   4.349  14.414  0.00  0.00    +0.000 C 
ATOM      2  N   UNK     1       5.343   4.250  15.813  0.00  0.00    +0.000 N 
ATOM      3  N   UNK     1       4.215   3.613  16.171  0.00  0.00    +0.000 NA
ATOM      4  C   UNK     1       4.148   3.796  17.500  0.00  0.00    +0.000 A 
ATOM      5  C   UNK     1       5.274   4.517  17.991  0.00  0.00    +0.000 A 
ATOM      6  C   UNK     1       5.727   4.967  19.248  0.00  0.00    +0.000 A 
ATOM      7  C   UNK     1       6.942   5.657  19.330  0.00  0.00    +0.000 A 
ATOM      8  C   UNK     1       7.697   5.905  18.186  0.00  0.00    +0.000 A 
ATOM      9  C   UNK     1       7.263   5.478  16.927  0.00  0.00    +0.000 A 
ATOM     10  C   UNK     1       6.047   4.784  16.863  0.00  0.00    +0.000 A 
ENDROOT
BRANCH   4  11
ATOM     11  C   UNK     1       2.992   3.290  18.322  0.00  0.00    +0.000 A 
ATOM     12  N   UNK     1       3.008   3.183  19.645  0.00  0.00    +0.000 NA
ATOM     13  C   UNK     1       1.737   2.751  19.975  0.00  0.00    +0.000 A 
ATOM     14  C   UNK     1       1.007   2.567  18.828  0.00  0.00    +0.000 A 
ATOM     15  O   UNK     1       1.785   2.913  17.771  0.00  0.00    +0.000 OA
BRANCH  13  16
ATOM     16  C   UNK     1       1.333   2.577  21.392  0.00  0.00    +0.000 C 
BRANCH  16  17
ATOM     17  O   UNK     1       2.176   3.318  22.274  0.00  0.00    +0.000 OA
ATOM     18  H   UNK     1       2.900   2.704  22.509  0.00  0.00    +0.000 HD
ENDBRANCH  16  17
ENDBRANCH  13  16
ENDBRANCH   4  11
TORSDOF 3
ENDMDL
MODEL 5
REMARK VINA RESULT:      -6.6      2.882      4.294
REMARK  Name = 
REMARK  4 active torsions:
REMARK  status: ('A' for Active; 'I' for Inactive)
REMARK    1  A    between atoms: C_1  and  N_2
REMARK    2  A    between atoms: C_4  and  C_5
REMARK    3  A    between atoms: C_7  and  C_8
REMARK    4  A    between atoms: C_8  and  O_9
REMARK                            x       y       z     vdW  Elec       q    Type
REMARK                         _______ _______ _______ _____ _____    ______ ____
ROOT
ATOM      1  C   UNK     1       7.698   7.546  18.034  0.00  0.00    +0.000 C 
ATOM      2  N   UNK     1       7.094   6.447  17.318  0.00  0.00    +0.000 N 
ATOM      3  N   UNK     1       7.463   6.202  16.049  0.00  0.00    +0.000 NA
ATOM      4  C   UNK     1       6.650   5.205  15.662  0.00  0.00    +0.000 A 
ATOM      5  C   UNK     1       5.791   4.784  16.717  0.00  0.00    +0.000 A 
ATOM      6  C   UNK     1       4.786   3.810  16.886  0.00  0.00    +0.000 A 
ATOM      7  C   UNK     1       4.155   3.688  18.130  0.00  0.00    +0.000 A 
ATOM      8  C   UNK     1       4.508   4.519  19.191  0.00  0.00    +0.000 A 
ATOM      9  C   UNK     1       5.494   5.499  19.044  0.00  0.00    +0.000 A 
ATOM     10  C   UNK     1       6.119   5.606  17.794  0.00  0.00    +0.000 A 
ENDROOT
BRANCH   4  11
ATOM     11  C   UNK     1       6.676   4.646  14.263  0.00  0.00    +0.000 A 
ATOM     12  N   UNK     1       5.886   3.668  13.836  0.00  0.00    +0.000 NA
ATOM     13  C   UNK     1       6.200   3.527  12.498  0.00  0.00    +0.000 A 
ATOM     14  C   UNK     1       7.207   4.399  12.172  0.00  0.00    +0.000 A 
ATOM     15  O   UNK     1       7.515   5.123  13.278  0.00  0.00    +0.000 OA
BRANCH  13  16
ATOM     16  C   UNK     1       5.467   2.564  11.639  0.00  0.00    +0.000 C 
BRANCH  16  17
ATOM     17  O   UNK     1       4.142   3.014  11.357  0.00  0.00    +0.000 OA
ATOM     18  H   UNK     1       4.020   2.860  10.399  0.00  0.00    +0.000 HD
ENDBRANCH  16  17
ENDBRANCH  13  16
ENDBRANCH   4  11
TORSDOF 3
ENDMDL
MODEL 6
REMARK VINA RESULT:      -6.5      2.544      5.872
REMARK  Name = 
REMARK  4 active torsions:
REMARK  status: ('A' for Active; 'I' for Inactive)
REMARK    1  A    between atoms: C_1  and  N_2
REMARK    2  A    between atoms: C_4  and  C_5
REMARK    3  A    between atoms: C_7  and  C_8
REMARK    4  A    between atoms: C_8  and  O_9
REMARK                            x       y       z     vdW  Elec       q    Type
REMARK                         _______ _______ _______ _____ _____    ______ ____
ROOT
ATOM      1  C   UNK     1       7.763   6.563  18.536  0.00  0.00    +0.000 C 
ATOM      2  N   UNK     1       6.616   5.830  18.055  0.00  0.00    +0.000 N 
ATOM      3  N   UNK     1       5.567   5.633  18.872  0.00  0.00    +0.000 NA
ATOM      4  C   UNK     1       4.744   4.846  18.158  0.00  0.00    +0.000 A 
ATOM      5  C   UNK     1       5.260   4.585  16.857  0.00  0.00    +0.000 A 
ATOM      6  C   UNK     1       4.840   3.867  15.719  0.00  0.00    +0.000 A 
ATOM      7  C   UNK     1       5.650   3.859  14.578  0.00  0.00    +0.000 A 
ATOM      8  C   UNK     1       6.861   4.546  14.561  0.00  0.00    +0.000 A 
ATOM      9  C   UNK     1       7.304   5.257  15.681  0.00  0.00    +0.000 A 
ATOM     10  C   UNK     1       6.479   5.258  16.814  0.00  0.00    +0.000 A 
ENDROOT
BRANCH   4  11
ATOM     11  C   UNK     1       3.449   4.321  18.722  0.00  0.00    +0.000 A 
ATOM     12  N   UNK     1       3.335   3.739  19.909  0.00  0.00    +0.000 NA
ATOM     13  C   UNK     1       1.984   3.482  20.042  0.00  0.00    +0.000 A 
ATOM     14  C   UNK     1       1.331   3.878  18.903  0.00  0.00    +0.000 A 
ATOM     15  O   UNK     1       2.245   4.421  18.058  0.00  0.00    +0.000 OA
BRANCH  13  16
ATOM     16  C   UNK     1       1.437   2.890  21.289  0.00  0.00    +0.000 C 
BRANCH  16  17
ATOM     17  O   UNK     1       2.474   2.555  22.210  0.00  0.00    +0.000 OA
ATOM     18  H   UNK     1       2.010   2.283  23.027  0.00  0.00    +0.000 HD
ENDBRANCH  16  17
ENDBRANCH  13  16
ENDBRANCH   4  11
TORSDOF 3
ENDMDL
MODEL 7
REMARK VINA RESULT:      -6.5      1.024      1.088
REMARK  Name = 
REMARK  4 active torsions:
REMARK  status: ('A' for Active; 'I' for Inactive)
REMARK    1  A    between atoms: C_1  and  N_2
REMARK    2  A    between atoms: C_4  and  C_5
REMARK    3  A    between atoms: C_7  and  C_8
REMARK    4  A    between atoms: C_8  and  O_9
REMARK                            x       y       z     vdW  Elec       q    Type
REMARK                         _______ _______ _______ _____ _____    ______ ____
ROOT
ATOM      1  C   UNK     1       2.236   7.199  19.794  0.00  0.00    +0.000 C 
ATOM      2  N   UNK     1       2.763   6.055  19.088  0.00  0.00    +0.000 N 
ATOM      3  N   UNK     1       3.843   6.203  18.303  0.00  0.00    +0.000 NA
ATOM      4  C   UNK     1       3.996   4.996  17.732  0.00  0.00    +0.000 A 
ATOM      5  C   UNK     1       3.028   4.064  18.201  0.00  0.00    +0.000 A 
ATOM      6  C   UNK     1       2.727   2.705  17.974  0.00  0.00    +0.000 A 
ATOM      7  C   UNK     1       1.662   2.116  18.665  0.00  0.00    +0.000 A 
ATOM      8  C   UNK     1       0.900   2.859  19.565  0.00  0.00    +0.000 A 
ATOM      9  C   UNK     1       1.173   4.210  19.799  0.00  0.00    +0.000 A 
ATOM     10  C   UNK     1       2.245   4.784  19.102  0.00  0.00    +0.000 A 
ENDROOT
BRANCH   4  11
ATOM     11  C   UNK     1       5.071   4.722  16.713  0.00  0.00    +0.000 A 
ATOM     12  N   UNK     1       4.841   4.237  15.499  0.00  0.00    +0.000 NA
ATOM     13  C   UNK     1       6.083   4.212  14.893  0.00  0.00    +0.000 A 
ATOM     14  C   UNK     1       7.033   4.641  15.784  0.00  0.00    +0.000 A 
ATOM     15  O   UNK     1       6.407   4.978  16.941  0.00  0.00    +0.000 OA
BRANCH  13  16
ATOM     16  C   UNK     1       6.235   3.790  13.478  0.00  0.00    +0.000 C 
BRANCH  16  17
ATOM     17  O   UNK     1       7.233   4.558  12.806  0.00  0.00    +0.000 OA
ATOM     18  H   UNK     1       7.235   5.425  13.260  0.00  0.00    +0.000 HD
ENDBRANCH  16  17
ENDBRANCH  13  16
ENDBRANCH   4  11
TORSDOF 3
ENDMDL
MODEL 8
REMARK VINA RESULT:      -6.5      2.689      5.893
REMARK  Name = 
REMARK  4 active torsions:
REMARK  status: ('A' for Active; 'I' for Inactive)
REMARK    1  A    between atoms: C_1  and  N_2
REMARK    2  A    between atoms: C_4  and  C_5
REMARK    3  A    between atoms: C_7  and  C_8
REMARK    4  A    between atoms: C_8  and  O_9
REMARK                            x       y       z     vdW  Elec       q    Type
REMARK                         _______ _______ _______ _____ _____    ______ ____
ROOT
ATOM      1  C   UNK     1       8.104   6.026  18.980  0.00  0.00    +0.000 C 
ATOM      2  N   UNK     1       6.987   5.310  18.409  0.00  0.00    +0.000 N 
ATOM      3  N   UNK     1       6.050   4.792  19.221  0.00  0.00    +0.000 NA
ATOM      4  C   UNK     1       5.236   4.121  18.388  0.00  0.00    +0.000 A 
ATOM      5  C   UNK     1       5.640   4.259  17.030  0.00  0.00    +0.000 A 
ATOM      6  C   UNK     1       5.176   3.808  15.777  0.00  0.00    +0.000 A 
ATOM      7  C   UNK     1       5.863   4.184  14.618  0.00  0.00    +0.000 A 
ATOM      8  C   UNK     1       6.997   4.989  14.693  0.00  0.00    +0.000 A 
ATOM      9  C   UNK     1       7.483   5.440  15.924  0.00  0.00    +0.000 A 
ATOM     10  C   UNK     1       6.780   5.059  17.075  0.00  0.00    +0.000 A 
ENDROOT
BRANCH   4  11
ATOM     11  C   UNK     1       4.060   3.323  18.887  0.00  0.00    +0.000 A 
ATOM     12  N   UNK     1       3.242   3.725  19.853  0.00  0.00    +0.000 NA
ATOM     13  C   UNK     1       2.285   2.732  19.935  0.00  0.00    +0.000 A 
ATOM     14  C   UNK     1       2.586   1.736  19.041  0.00  0.00    +0.000 A 
ATOM     15  O   UNK     1       3.703   2.100  18.362  0.00  0.00    +0.000 OA
BRANCH  13  16
ATOM     16  C   UNK     1       1.137   2.852  20.867  0.00  0.00    +0.000 C 
BRANCH  16  17
ATOM     17  O   UNK     1       0.276   3.931  20.505  0.00  0.00    +0.000 OA
ATOM     18  H   UNK     1       0.133   3.829  19.542  0.00  0.00    +0.000 HD
ENDBRANCH  16  17
ENDBRANCH  13  16
ENDBRANCH   4  11
TORSDOF 3
ENDMDL
MODEL 9
REMARK VINA RESULT:      -6.4      2.637      5.920
REMARK  Name = 
REMARK  4 active torsions:
REMARK  status: ('A' for Active; 'I' for Inactive)
REMARK    1  A    between atoms: C_1  and  N_2
REMARK    2  A    between atoms: C_4  and  C_5
REMARK    3  A    between atoms: C_7  and  C_8
REMARK    4  A    between atoms: C_8  and  O_9
REMARK                            x       y       z     vdW  Elec       q    Type
REMARK                         _______ _______ _______ _____ _____    ______ ____
ROOT
ATOM      1  C   UNK     1       8.298   6.041  19.084  0.00  0.00    +0.000 C 
ATOM      2  N   UNK     1       6.987   5.604  18.667  0.00  0.00    +0.000 N 
ATOM      3  N   UNK     1       5.984   5.574  19.562  0.00  0.00    +0.000 NA
ATOM      4  C   UNK     1       4.960   5.032  18.882  0.00  0.00    +0.000 A 
ATOM      5  C   UNK     1       5.308   4.762  17.528  0.00  0.00    +0.000 A 
ATOM      6  C   UNK     1       4.659   4.233  16.394  0.00  0.00    +0.000 A 
ATOM      7  C   UNK     1       5.361   4.137  15.187  0.00  0.00    +0.000 A 
ATOM      8  C   UNK     1       6.687   4.553  15.101  0.00  0.00    +0.000 A 
ATOM      9  C   UNK     1       7.356   5.071  16.214  0.00  0.00    +0.000 A 
ATOM     10  C   UNK     1       6.637   5.165  17.414  0.00  0.00    +0.000 A 
ENDROOT
BRANCH   4  11
ATOM     11  C   UNK     1       3.627   4.753  19.527  0.00  0.00    +0.000 A 
ATOM     12  N   UNK     1       3.198   3.540  19.854  0.00  0.00    +0.000 NA
ATOM     13  C   UNK     1       1.980   3.757  20.471  0.00  0.00    +0.000 A 
ATOM     14  C   UNK     1       1.694   5.098  20.454  0.00  0.00    +0.000 A 
ATOM     15  O   UNK     1       2.733   5.745  19.867  0.00  0.00    +0.000 OA
BRANCH  13  16
ATOM     16  C   UNK     1       1.206   2.631  21.051  0.00  0.00    +0.000 C 
BRANCH  16  17
ATOM     17  O   UNK     1       1.448   2.493  22.451  0.00  0.00    +0.000 OA
ATOM     18  H   UNK     1       0.722   1.926  22.779  0.00  0.00    +0.000 HD
ENDBRANCH  16  17
ENDBRANCH  13  16
ENDBRANCH   4  11
TORSDOF 3
ENDMDL
