MODEL 1
REMARK VINA RESULT:      -8.5      0.000      0.000
REMARK  Name = 
REMARK  4 active torsions:
REMARK  status: ('A' for Active; 'I' for Inactive)
REMARK    1  A    between atoms: C_2  and  C_3
REMARK    2  A    between atoms: C_2  and  C_17
REMARK    3  A    between atoms: C_6  and  O_7
REMARK    4  A    between atoms: O_7  and  C_8
REMARK                            x       y       z     vdW  Elec       q    Type
REMARK                         _______ _______ _______ _____ _____    ______ ____
ROOT
ATOM      1  C   UNL     1       1.096   9.305  19.600  0.00  0.00    +0.000 A 
ATOM      2  C   UNL     1       1.107   8.524  20.761  0.00  0.00    +0.000 A 
ATOM      3  C   UNL     1       1.785   7.298  20.773  0.00  0.00    +0.000 A 
ATOM      4  C   UNL     1       2.460   6.851  19.632  0.00  0.00    +0.000 A 
ATOM      5  C   UNL     1       2.483   7.652  18.489  0.00  0.00    +0.000 A 
ATOM      6  C   UNL     1       1.793   8.863  18.467  0.00  0.00    +0.000 A 
ENDROOT
BRANCH   1   8
ATOM      7  O   UNL     1       0.920  11.547  20.276  0.00  0.00    +0.000 OA
ATOM      8  C   UNL     1       0.431  10.642  19.607  0.00  0.00    +0.000 C 
BRANCH   8   9
ATOM      9  C   UNL     1      -0.712  10.843  18.739  0.00  0.00    +0.000 A 
ATOM     10  N   UNL     1      -1.843  11.417  19.106  0.00  0.00    +0.000 NA
ATOM     11  C   UNL     1      -2.679  11.287  18.038  0.00  0.00    +0.000 A 
ATOM     12  N   UNL     1      -3.965  11.695  18.006  0.00  0.00    +0.000 NA
ATOM     13  C   UNL     1      -4.613  11.393  16.864  0.00  0.00    +0.000 A 
ATOM     14  C   UNL     1      -4.070  10.711  15.778  0.00  0.00    +0.000 A 
ATOM     15  C   UNL     1      -2.736  10.302  15.817  0.00  0.00    +0.000 A 
ATOM     16  C   UNL     1      -2.057  10.623  16.986  0.00  0.00    +0.000 A 
ATOM     17  N   UNL     1      -0.778  10.421  17.432  0.00  0.00    +0.000 N 
ATOM     18  H   UNL     1      -0.027   9.955  16.941  0.00  0.00    +0.000 HD
ENDBRANCH   8   9
ENDBRANCH   1   8
BRANCH   4  19
ATOM     19  O   UNL     1       3.139   5.658  19.750  0.00  0.00    +0.000 OA
BRANCH  19  20
ATOM     20  C   UNL     1       2.478   4.485  19.410  0.00  0.00    +0.000 A 
ATOM     21  N   UNL     1       1.515   4.019  20.249  0.00  0.00    +0.000 NA
ATOM     22  C   UNL     1       0.863   2.899  19.878  0.00  0.00    +0.000 A 
ATOM     23  C   UNL     1       1.143   2.198  18.717  0.00  0.00    +0.000 A 
ATOM     24  C   UNL     1       2.164   2.663  17.893  0.00  0.00    +0.000 A 
ATOM     25  C   UNL     1       2.854   3.824  18.244  0.00  0.00    +0.000 A 
ATOM     26 BR   UNL     1       4.242   4.444  17.119  0.00  0.00    +0.000 Br
ENDBRANCH  19  20
ENDBRANCH   4  19
TORSDOF 4
ENDMDL
MODEL 2
REMARK VINA RESULT:      -8.3      1.065      1.215
REMARK  Name = 
REMARK  4 active torsions:
REMARK  status: ('A' for Active; 'I' for Inactive)
REMARK    1  A    between atoms: C_2  and  C_3
REMARK    2  A    between atoms: C_2  and  C_17
REMARK    3  A    between atoms: C_6  and  O_7
REMARK    4  A    between atoms: O_7  and  C_8
REMARK                            x       y       z     vdW  Elec       q    Type
REMARK                         _______ _______ _______ _____ _____    ______ ____
ROOT
ATOM      1  C   UNL     1       1.451   9.281  19.003  0.00  0.00    +0.000 A 
ATOM      2  C   UNL     1       1.206   8.802  20.295  0.00  0.00    +0.000 A 
ATOM      3  C   UNL     1       1.652   7.526  20.664  0.00  0.00    +0.000 A 
ATOM      4  C   UNL     1       2.347   6.728  19.751  0.00  0.00    +0.000 A 
ATOM      5  C   UNL     1       2.626   7.224  18.476  0.00  0.00    +0.000 A 
ATOM      6  C   UNL     1       2.168   8.485  18.099  0.00  0.00    +0.000 A 
ENDROOT
BRANCH   1   8
ATOM      7  O   UNL     1       1.902  11.509  18.413  0.00  0.00    +0.000 OA
ATOM      8  C   UNL     1       1.036  10.666  18.630  0.00  0.00    +0.000 C 
BRANCH   8   9
ATOM      9  C   UNL     1      -0.376  10.931  18.442  0.00  0.00    +0.000 A 
ATOM     10  N   UNL     1      -1.105  11.711  19.218  0.00  0.00    +0.000 NA
ATOM     11  C   UNL     1      -2.384  11.581  18.766  0.00  0.00    +0.000 A 
ATOM     12  N   UNL     1      -3.465  12.173  19.316  0.00  0.00    +0.000 NA
ATOM     13  C   UNL     1      -4.634  11.835  18.738  0.00  0.00    +0.000 A 
ATOM     14  C   UNL     1      -4.788  10.951  17.673  0.00  0.00    +0.000 A 
ATOM     15  C   UNL     1      -3.663  10.351  17.105  0.00  0.00    +0.000 A 
ATOM     16  C   UNL     1      -2.452  10.706  17.687  0.00  0.00    +0.000 A 
ATOM     17  N   UNL     1      -1.146  10.367  17.452  0.00  0.00    +0.000 N 
ATOM     18  H   UNL     1      -0.797   9.735  16.743  0.00  0.00    +0.000 HD
ENDBRANCH   8   9
ENDBRANCH   1   8
BRANCH   4  19
ATOM     19  O   UNL     1       2.789   5.507  20.215  0.00  0.00    +0.000 OA
BRANCH  19  20
ATOM     20  C   UNL     1       2.659   4.399  19.387  0.00  0.00    +0.000 A 
ATOM     21  N   UNL     1       1.436   3.818  19.273  0.00  0.00    +0.000 NA
ATOM     22  C   UNL     1       1.328   2.767  18.436  0.00  0.00    +0.000 A 
ATOM     23  C   UNL     1       2.393   2.243  17.722  0.00  0.00    +0.000 A 
ATOM     24  C   UNL     1       3.648   2.822  17.887  0.00  0.00    +0.000 A 
ATOM     25  C   UNL     1       3.793   3.916  18.740  0.00  0.00    +0.000 A 
ATOM     26 BR   UNL     1       5.504   4.691  18.960  0.00  0.00    +0.000 Br
ENDBRANCH  19  20
ENDBRANCH   4  19
TORSDOF 4
ENDMDL
MODEL 3
REMARK VINA RESULT:      -8.3      4.537      8.800
REMARK  Name = 
REMARK  4 active torsions:
REMARK  status: ('A' for Active; 'I' for Inactive)
REMARK    1  A    between atoms: C_2  and  C_3
REMARK    2  A    between atoms: C_2  and  C_17
REMARK    3  A    between atoms: C_6  and  O_7
REMARK    4  A    between atoms: O_7  and  C_8
REMARK                            x       y       z     vdW  Elec       q    Type
REMARK                         _______ _______ _______ _____ _____    ______ ____
ROOT
ATOM      1  C   UNL     1       4.560   6.010  18.203  0.00  0.00    +0.000 A 
ATOM      2  C   UNL     1       3.677   5.789  19.267  0.00  0.00    +0.000 A 
ATOM      3  C   UNL     1       2.554   6.611  19.427  0.00  0.00    +0.000 A 
ATOM      4  C   UNL     1       2.303   7.650  18.525  0.00  0.00    +0.000 A 
ATOM      5  C   UNL     1       3.162   7.842  17.441  0.00  0.00    +0.000 A 
ATOM      6  C   UNL     1       4.291   7.039  17.290  0.00  0.00    +0.000 A 
ENDROOT
BRANCH   1   8
ATOM      7  O   UNL     1       6.195   4.504  18.960  0.00  0.00    +0.000 OA
ATOM      8  C   UNL     1       5.719   5.094  17.994  0.00  0.00    +0.000 C 
BRANCH   8   9
ATOM      9  C   UNL     1       6.172   4.860  16.637  0.00  0.00    +0.000 A 
ATOM     10  N   UNL     1       7.146   5.525  16.044  0.00  0.00    +0.000 NA
ATOM     11  C   UNL     1       7.156   5.081  14.756  0.00  0.00    +0.000 A 
ATOM     12  N   UNL     1       7.971   5.541  13.784  0.00  0.00    +0.000 NA
ATOM     13  C   UNL     1       7.747   4.999  12.570  0.00  0.00    +0.000 A 
ATOM     14  C   UNL     1       6.769   4.053  12.273  0.00  0.00    +0.000 A 
ATOM     15  C   UNL     1       5.938   3.576  13.286  0.00  0.00    +0.000 A 
ATOM     16  C   UNL     1       6.173   4.120  14.543  0.00  0.00    +0.000 A 
ATOM     17  N   UNL     1       5.612   3.942  15.780  0.00  0.00    +0.000 N 
ATOM     18  H   UNL     1       4.850   3.322  16.021  0.00  0.00    +0.000 HD
ENDBRANCH   8   9
ENDBRANCH   1   8
BRANCH   4  19
ATOM     19  O   UNL     1       1.150   8.376  18.732  0.00  0.00    +0.000 OA
BRANCH  19  20
ATOM     20  C   UNL     1       1.268   9.706  19.116  0.00  0.00    +0.000 A 
ATOM     21  N   UNL     1       1.803  10.589  18.232  0.00  0.00    +0.000 NA
ATOM     22  C   UNL     1       1.872  11.880  18.615  0.00  0.00    +0.000 A 
ATOM     23  C   UNL     1       1.458  12.335  19.856  0.00  0.00    +0.000 A 
ATOM     24  C   UNL     1       0.956  11.408  20.766  0.00  0.00    +0.000 A 
ATOM     25  C   UNL     1       0.864  10.066  20.399  0.00  0.00    +0.000 A 
ATOM     26 BR   UNL     1       0.185   8.816  21.645  0.00  0.00    +0.000 Br
ENDBRANCH  19  20
ENDBRANCH   4  19
TORSDOF 4
ENDMDL
MODEL 4
REMARK VINA RESULT:      -8.3      3.261      8.334
REMARK  Name = 
REMARK  4 active torsions:
REMARK  status: ('A' for Active; 'I' for Inactive)
REMARK    1  A    between atoms: C_2  and  C_3
REMARK    2  A    between atoms: C_2  and  C_17
REMARK    3  A    between atoms: C_6  and  O_7
REMARK    4  A    between atoms: O_7  and  C_8
REMARK                            x       y       z     vdW  Elec       q    Type
REMARK                         _______ _______ _______ _____ _____    ______ ____
ROOT
ATOM      1  C   UNL     1       2.187   7.158  19.751  0.00  0.00    +0.000 A 
ATOM      2  C   UNL     1       1.408   7.811  20.712  0.00  0.00    +0.000 A 
ATOM      3  C   UNL     1       0.844   9.061  20.423  0.00  0.00    +0.000 A 
ATOM      4  C   UNL     1       1.050   9.659  19.176  0.00  0.00    +0.000 A 
ATOM      5  C   UNL     1       1.793   8.986  18.204  0.00  0.00    +0.000 A 
ATOM      6  C   UNL     1       2.372   7.752  18.494  0.00  0.00    +0.000 A 
ENDROOT
BRANCH   1   8
ATOM      7  O   UNL     1       2.164   5.087  20.858  0.00  0.00    +0.000 OA
ATOM      8  C   UNL     1       2.732   5.797  20.033  0.00  0.00    +0.000 C 
BRANCH   8   9
ATOM      9  C   UNL     1       3.854   5.330  19.243  0.00  0.00    +0.000 A 
ATOM     10  N   UNL     1       5.112   5.344  19.641  0.00  0.00    +0.000 NA
ATOM     11  C   UNL     1       5.840   4.944  18.561  0.00  0.00    +0.000 A 
ATOM     12  N   UNL     1       7.187   4.868  18.519  0.00  0.00    +0.000 NA
ATOM     13  C   UNL     1       7.683   4.515  17.316  0.00  0.00    +0.000 A 
ATOM     14  C   UNL     1       6.932   4.252  16.174  0.00  0.00    +0.000 A 
ATOM     15  C   UNL     1       5.540   4.323  16.230  0.00  0.00    +0.000 A 
ATOM     16  C   UNL     1       5.020   4.673  17.471  0.00  0.00    +0.000 A 
ATOM     17  N   UNL     1       3.752   4.852  17.958  0.00  0.00    +0.000 N 
ATOM     18  H   UNL     1       2.883   4.753  17.449  0.00  0.00    +0.000 HD
ENDBRANCH   8   9
ENDBRANCH   1   8
BRANCH   4  19
ATOM     19  O   UNL     1       0.418  10.866  18.963  0.00  0.00    +0.000 OA
BRANCH  19  20
ATOM     20  C   UNL     1      -0.905  10.853  18.541  0.00  0.00    +0.000 A 
ATOM     21  N   UNL     1      -1.262   9.982  17.559  0.00  0.00    +0.000 NA
ATOM     22  C   UNL     1      -2.559   9.964  17.192  0.00  0.00    +0.000 A 
ATOM     23  C   UNL     1      -3.522  10.795  17.739  0.00  0.00    +0.000 A 
ATOM     24  C   UNL     1      -3.130  11.713  18.710  0.00  0.00    +0.000 A 
ATOM     25  C   UNL     1      -1.796  11.753  19.117  0.00  0.00    +0.000 A 
ATOM     26 BR   UNL     1      -1.274  13.007  20.433  0.00  0.00    +0.000 Br
ENDBRANCH  19  20
ENDBRANCH   4  19
TORSDOF 4
ENDMDL
MODEL 5
REMARK VINA RESULT:      -8.2      1.510      1.987
REMARK  Name = 
REMARK  4 active torsions:
REMARK  status: ('A' for Active; 'I' for Inactive)
REMARK    1  A    between atoms: C_2  and  C_3
REMARK    2  A    between atoms: C_2  and  C_17
REMARK    3  A    between atoms: C_6  and  O_7
REMARK    4  A    between atoms: O_7  and  C_8
REMARK                            x       y       z     vdW  Elec       q    Type
REMARK                         _______ _______ _______ _____ _____    ______ ____
ROOT
ATOM      1  C   UNL     1       1.098   9.347  19.615  0.00  0.00    +0.000 A 
ATOM      2  C   UNL     1       1.051   8.577  20.784  0.00  0.00    +0.000 A 
ATOM      3  C   UNL     1       1.691   7.332  20.827  0.00  0.00    +0.000 A 
ATOM      4  C   UNL     1       2.385   6.853  19.710  0.00  0.00    +0.000 A 
ATOM      5  C   UNL     1       2.465   7.641  18.561  0.00  0.00    +0.000 A 
ATOM      6  C   UNL     1       1.813   8.872  18.507  0.00  0.00    +0.000 A 
ENDROOT
BRANCH   1   8
ATOM      7  O   UNL     1       1.013  11.618  20.205  0.00  0.00    +0.000 OA
ATOM      8  C   UNL     1       0.473  10.702  19.591  0.00  0.00    +0.000 C 
BRANCH   8   9
ATOM      9  C   UNL     1      -0.694  10.905  18.755  0.00  0.00    +0.000 A 
ATOM     10  N   UNL     1      -1.836  11.420  19.171  0.00  0.00    +0.000 NA
ATOM     11  C   UNL     1      -2.689  11.312  18.114  0.00  0.00    +0.000 A 
ATOM     12  N   UNL     1      -3.989  11.675  18.127  0.00  0.00    +0.000 NA
ATOM     13  C   UNL     1      -4.650  11.405  16.984  0.00  0.00    +0.000 A 
ATOM     14  C   UNL     1      -4.105  10.796  15.856  0.00  0.00    +0.000 A 
ATOM     15  C   UNL     1      -2.758  10.433  15.849  0.00  0.00    +0.000 A 
ATOM     16  C   UNL     1      -2.067  10.721  17.020  0.00  0.00    +0.000 A 
ATOM     17  N   UNL     1      -0.772  10.543  17.431  0.00  0.00    +0.000 N 
ATOM     18  H   UNL     1      -0.016  10.128  16.904  0.00  0.00    +0.000 HD
ENDBRANCH   8   9
ENDBRANCH   1   8
BRANCH   4  19
ATOM     19  O   UNL     1       3.024   5.641  19.859  0.00  0.00    +0.000 OA
BRANCH  19  20
ATOM     20  C   UNL     1       3.860   5.206  18.838  0.00  0.00    +0.000 A 
ATOM     21  N   UNL     1       5.158   5.611  18.848  0.00  0.00    +0.000 NA
ATOM     22  C   UNL     1       5.956   5.145  17.867  0.00  0.00    +0.000 A 
ATOM     23  C   UNL     1       5.517   4.313  16.851  0.00  0.00    +0.000 A 
ATOM     24  C   UNL     1       4.174   3.947  16.830  0.00  0.00    +0.000 A 
ATOM     25  C   UNL     1       3.322   4.405  17.835  0.00  0.00    +0.000 A 
ATOM     26 BR   UNL     1       1.499   3.905  17.793  0.00  0.00    +0.000 Br
ENDBRANCH  19  20
ENDBRANCH   4  19
TORSDOF 4
ENDMDL
MODEL 6
REMARK VINA RESULT:      -8.2      0.795      1.382
REMARK  Name = 
REMARK  4 active torsions:
REMARK  status: ('A' for Active; 'I' for Inactive)
REMARK    1  A    between atoms: C_2  and  C_3
REMARK    2  A    between atoms: C_2  and  C_17
REMARK    3  A    between atoms: C_6  and  O_7
REMARK    4  A    between atoms: O_7  and  C_8
REMARK                            x       y       z     vdW  Elec       q    Type
REMARK                         _______ _______ _______ _____ _____    ______ ____
ROOT
ATOM      1  C   UNL     1       1.149   9.572  19.065  0.00  0.00    +0.000 A 
ATOM      2  C   UNL     1       1.169   8.951  20.319  0.00  0.00    +0.000 A 
ATOM      3  C   UNL     1       1.798   7.709  20.475  0.00  0.00    +0.000 A 
ATOM      4  C   UNL     1       2.415   7.086  19.385  0.00  0.00    +0.000 A 
ATOM      5  C   UNL     1       2.430   7.727  18.145  0.00  0.00    +0.000 A 
ATOM      6  C   UNL     1       1.788   8.954  17.981  0.00  0.00    +0.000 A 
ENDROOT
BRANCH   1   8
ATOM      7  O   UNL     1       1.264  11.915  18.951  0.00  0.00    +0.000 OA
ATOM      8  C   UNL     1       0.538  10.925  18.913  0.00  0.00    +0.000 C 
BRANCH   8   9
ATOM      9  C   UNL     1      -0.880  11.009  18.625  0.00  0.00    +0.000 A 
ATOM     10  N   UNL     1      -1.444  10.607  17.502  0.00  0.00    +0.000 NA
ATOM     11  C   UNL     1      -2.751  10.981  17.598  0.00  0.00    +0.000 A 
ATOM     12  N   UNL     1      -3.680  10.807  16.634  0.00  0.00    +0.000 NA
ATOM     13  C   UNL     1      -4.888  11.324  16.931  0.00  0.00    +0.000 A 
ATOM     14  C   UNL     1      -5.215  12.003  18.102  0.00  0.00    +0.000 A 
ATOM     15  C   UNL     1      -4.251  12.169  19.096  0.00  0.00    +0.000 A 
ATOM     16  C   UNL     1      -3.005  11.625  18.803  0.00  0.00    +0.000 A 
ATOM     17  N   UNL     1      -1.812  11.559  19.473  0.00  0.00    +0.000 N 
ATOM     18  H   UNL     1      -1.605  11.933  20.389  0.00  0.00    +0.000 HD
ENDBRANCH   8   9
ENDBRANCH   1   8
BRANCH   4  19
ATOM     19  O   UNL     1       3.051   5.890  19.641  0.00  0.00    +0.000 OA
BRANCH  19  20
ATOM     20  C   UNL     1       2.384   4.710  19.338  0.00  0.00    +0.000 A 
ATOM     21  N   UNL     1       1.370   4.313  20.152  0.00  0.00    +0.000 NA
ATOM     22  C   UNL     1       0.716   3.183  19.815  0.00  0.00    +0.000 A 
ATOM     23  C   UNL     1       1.040   2.408  18.715  0.00  0.00    +0.000 A 
ATOM     24  C   UNL     1       2.112   2.805  17.919  0.00  0.00    +0.000 A 
ATOM     25  C   UNL     1       2.806   3.972  18.235  0.00  0.00    +0.000 A 
ATOM     26 BR   UNL     1       4.262   4.499  17.149  0.00  0.00    +0.000 Br
ENDBRANCH  19  20
ENDBRANCH   4  19
TORSDOF 4
ENDMDL
MODEL 7
REMARK VINA RESULT:      -8.1      1.300      1.536
REMARK  Name = 
REMARK  4 active torsions:
REMARK  status: ('A' for Active; 'I' for Inactive)
REMARK    1  A    between atoms: C_2  and  C_3
REMARK    2  A    between atoms: C_2  and  C_17
REMARK    3  A    between atoms: C_6  and  O_7
REMARK    4  A    between atoms: O_7  and  C_8
REMARK                            x       y       z     vdW  Elec       q    Type
REMARK                         _______ _______ _______ _____ _____    ______ ____
ROOT
ATOM      1  C   UNL     1       1.108   9.106  19.676  0.00  0.00    +0.000 A 
ATOM      2  C   UNL     1       1.097   8.338  20.846  0.00  0.00    +0.000 A 
ATOM      3  C   UNL     1       1.798   7.126  20.893  0.00  0.00    +0.000 A 
ATOM      4  C   UNL     1       2.517   6.680  19.780  0.00  0.00    +0.000 A 
ATOM      5  C   UNL     1       2.561   7.469  18.628  0.00  0.00    +0.000 A 
ATOM      6  C   UNL     1       1.849   8.666  18.570  0.00  0.00    +0.000 A 
ENDROOT
BRANCH   1   8
ATOM      7  O   UNL     1       0.845  11.341  20.350  0.00  0.00    +0.000 OA
ATOM      8  C   UNL     1       0.417  10.429  19.647  0.00  0.00    +0.000 C 
BRANCH   8   9
ATOM      9  C   UNL     1      -0.673  10.613  18.709  0.00  0.00    +0.000 A 
ATOM     10  N   UNL     1      -1.776  11.292  18.963  0.00  0.00    +0.000 NA
ATOM     11  C   UNL     1      -2.574  11.107  17.874  0.00  0.00    +0.000 A 
ATOM     12  N   UNL     1      -3.827  11.590  17.740  0.00  0.00    +0.000 NA
ATOM     13  C   UNL     1      -4.446  11.214  16.603  0.00  0.00    +0.000 A 
ATOM     14  C   UNL     1      -3.905  10.393  15.618  0.00  0.00    +0.000 A 
ATOM     15  C   UNL     1      -2.606   9.906  15.761  0.00  0.00    +0.000 A 
ATOM     16  C   UNL     1      -1.956  10.301  16.924  0.00  0.00    +0.000 A 
ATOM     17  N   UNL     1      -0.713  10.065  17.449  0.00  0.00    +0.000 N 
ATOM     18  H   UNL     1       0.025   9.504  17.043  0.00  0.00    +0.000 HD
ENDBRANCH   8   9
ENDBRANCH   1   8
BRANCH   4  19
ATOM     19  O   UNL     1       3.216   5.502  19.932  0.00  0.00    +0.000 OA
BRANCH  19  20
ATOM     20  C   UNL     1       2.956   4.461  19.049  0.00  0.00    +0.000 A 
ATOM     21  N   UNL     1       3.457   4.544  17.788  0.00  0.00    +0.000 NA
ATOM     22  C   UNL     1       3.222   3.505  16.962  0.00  0.00    +0.000 A 
ATOM     23  C   UNL     1       2.483   2.391  17.322  0.00  0.00    +0.000 A 
ATOM     24  C   UNL     1       1.938   2.344  18.603  0.00  0.00    +0.000 A 
ATOM     25  C   UNL     1       2.169   3.400  19.485  0.00  0.00    +0.000 A 
ATOM     26 BR   UNL     1       1.420   3.328  21.220  0.00  0.00    +0.000 Br
ENDBRANCH  19  20
ENDBRANCH   4  19
TORSDOF 4
ENDMDL
MODEL 8
REMARK VINA RESULT:      -8.1      3.223      8.468
REMARK  Name = 
REMARK  4 active torsions:
REMARK  status: ('A' for Active; 'I' for Inactive)
REMARK    1  A    between atoms: C_2  and  C_3
REMARK    2  A    between atoms: C_2  and  C_17
REMARK    3  A    between atoms: C_6  and  O_7
REMARK    4  A    between atoms: O_7  and  C_8
REMARK                            x       y       z     vdW  Elec       q    Type
REMARK                         _______ _______ _______ _____ _____    ______ ____
ROOT
ATOM      1  C   UNL     1       2.105   7.144  19.695  0.00  0.00    +0.000 A 
ATOM      2  C   UNL     1       2.301   7.718  18.433  0.00  0.00    +0.000 A 
ATOM      3  C   UNL     1       1.810   9.003  18.166  0.00  0.00    +0.000 A 
ATOM      4  C   UNL     1       1.131   9.721  19.155  0.00  0.00    +0.000 A 
ATOM      5  C   UNL     1       0.973   9.163  20.425  0.00  0.00    +0.000 A 
ATOM      6  C   UNL     1       1.443   7.877  20.689  0.00  0.00    +0.000 A 
ENDROOT
BRANCH   1   8
ATOM      7  O   UNL     1       2.147   5.102  20.853  0.00  0.00    +0.000 OA
ATOM      8  C   UNL     1       2.685   5.803  20.001  0.00  0.00    +0.000 C 
BRANCH   8   9
ATOM      9  C   UNL     1       3.805   5.342  19.205  0.00  0.00    +0.000 A 
ATOM     10  N   UNL     1       5.061   5.325  19.612  0.00  0.00    +0.000 NA
ATOM     11  C   UNL     1       5.789   4.945  18.525  0.00  0.00    +0.000 A 
ATOM     12  N   UNL     1       7.135   4.848  18.489  0.00  0.00    +0.000 NA
ATOM     13  C   UNL     1       7.634   4.524  17.279  0.00  0.00    +0.000 A 
ATOM     14  C   UNL     1       6.886   4.306  16.125  0.00  0.00    +0.000 A 
ATOM     15  C   UNL     1       5.495   4.398  16.175  0.00  0.00    +0.000 A 
ATOM     16  C   UNL     1       4.973   4.719  17.422  0.00  0.00    +0.000 A 
ATOM     17  N   UNL     1       3.704   4.904  17.906  0.00  0.00    +0.000 N 
ATOM     18  H   UNL     1       2.838   4.834  17.389  0.00  0.00    +0.000 HD
ENDBRANCH   8   9
ENDBRANCH   1   8
BRANCH   4  19
ATOM     19  O   UNL     1       0.726  10.995  18.819  0.00  0.00    +0.000 OA
BRANCH  19  20
ATOM     20  C   UNL     1      -0.634  11.274  18.807  0.00  0.00    +0.000 A 
ATOM     21  N   UNL     1      -1.391  10.759  17.802  0.00  0.00    +0.000 NA
ATOM     22  C   UNL     1      -2.714  11.015  17.833  0.00  0.00    +0.000 A 
ATOM     23  C   UNL     1      -3.323  11.787  18.808  0.00  0.00    +0.000 A 
ATOM     24  C   UNL     1      -2.526  12.346  19.803  0.00  0.00    +0.000 A 
ATOM     25  C   UNL     1      -1.154  12.095  19.804  0.00  0.00    +0.000 A 
ATOM     26 BR   UNL     1      -0.080  12.863  21.158  0.00  0.00    +0.000 Br
ENDBRANCH  19  20
ENDBRANCH   4  19
TORSDOF 4
ENDMDL
MODEL 9
REMARK VINA RESULT:      -8.1      0.267      1.001
REMARK  Name = 
REMARK  4 active torsions:
REMARK  status: ('A' for Active; 'I' for Inactive)
REMARK    1  A    between atoms: C_2  and  C_3
REMARK    2  A    between atoms: C_2  and  C_17
REMARK    3  A    between atoms: C_6  and  O_7
REMARK    4  A    between atoms: O_7  and  C_8
REMARK                            x       y       z     vdW  Elec       q    Type
REMARK                         _______ _______ _______ _____ _____    ______ ____
ROOT
ATOM      1  C   UNL     1       1.144   9.324  19.616  0.00  0.00    +0.000 A 
ATOM      2  C   UNL     1       1.815   8.991  18.433  0.00  0.00    +0.000 A 
ATOM      3  C   UNL     1       2.525   7.786  18.347  0.00  0.00    +0.000 A 
ATOM      4  C   UNL     1       2.562   6.907  19.435  0.00  0.00    +0.000 A 
ATOM      5  C   UNL     1       1.858   7.222  20.598  0.00  0.00    +0.000 A 
ATOM      6  C   UNL     1       1.167   8.429  20.695  0.00  0.00    +0.000 A 
ENDROOT
BRANCH   1   8
ATOM      7  O   UNL     1       0.663  11.456  20.474  0.00  0.00    +0.000 OA
ATOM      8  C   UNL     1       0.333  10.575  19.686  0.00  0.00    +0.000 C 
BRANCH   8   9
ATOM      9  C   UNL     1      -0.756  10.739  18.743  0.00  0.00    +0.000 A 
ATOM     10  N   UNL     1      -1.882  11.379  18.999  0.00  0.00    +0.000 NA
ATOM     11  C   UNL     1      -2.666  11.187  17.902  0.00  0.00    +0.000 A 
ATOM     12  N   UNL     1      -3.933  11.633  17.766  0.00  0.00    +0.000 NA
ATOM     13  C   UNL     1      -4.532  11.256  16.619  0.00  0.00    +0.000 A 
ATOM     14  C   UNL     1      -3.958  10.468  15.625  0.00  0.00    +0.000 A 
ATOM     15  C   UNL     1      -2.645  10.020  15.770  0.00  0.00    +0.000 A 
ATOM     16  C   UNL     1      -2.016  10.416  16.944  0.00  0.00    +0.000 A 
ATOM     17  N   UNL     1      -0.770  10.211  17.474  0.00  0.00    +0.000 N 
ATOM     18  H   UNL     1      -0.012   9.680  17.065  0.00  0.00    +0.000 HD
ENDBRANCH   8   9
ENDBRANCH   1   8
BRANCH   4  19
ATOM     19  O   UNL     1       3.243   5.724  19.244  0.00  0.00    +0.000 OA
BRANCH  19  20
ATOM     20  C   UNL     1       2.508   4.554  19.103  0.00  0.00    +0.000 A 
ATOM     21  N   UNL     1       1.501   4.313  19.984  0.00  0.00    +0.000 NA
ATOM     22  C   UNL     1       0.780   3.189  19.803  0.00  0.00    +0.000 A 
ATOM     23  C   UNL     1       1.030   2.270  18.798  0.00  0.00    +0.000 A 
ATOM     24  C   UNL     1       2.095   2.510  17.933  0.00  0.00    +0.000 A 
ATOM     25  C   UNL     1       2.858   3.668  18.088  0.00  0.00    +0.000 A 
ATOM     26 BR   UNL     1       4.304   3.980  16.911  0.00  0.00    +0.000 Br
ENDBRANCH  19  20
ENDBRANCH   4  19
TORSDOF 4
ENDMDL
