MODEL 1
REMARK VINA RESULT:      -8.2      0.000      0.000
REMARK  Name = 
REMARK  10 active torsions:
REMARK  status: ('A' for Active; 'I' for Inactive)
REMARK    1  A    between atoms: N_3  and  C_4
REMARK    2  A    between atoms: C_4  and  C_5
REMARK    3  A    between atoms: C_5  and  C_6
REMARK    4  A    between atoms: C_6  and  C_7
REMARK    5  A    between atoms: N_12  and  C_13
REMARK    6  A    between atoms: C_13  and  C_14
REMARK    7  A    between atoms: C_14  and  C_15
REMARK    8  A    between atoms: C_15  and  C_16
REMARK    9  A    between atoms: C_16  and  C_17
REMARK   10  A    between atoms: C_16  and  C_23
REMARK                            x       y       z     vdW  Elec       q    Type
REMARK                         _______ _______ _______ _____ _____    ______ ____
ROOT
ATOM      1  N   UNL     1       6.064   7.507  16.527  0.00  0.00    +0.000 NA
ATOM      2  C   UNL     1       6.949   7.161  17.389  0.00  0.00    +0.000 C 
ATOM      3  N   UNL     1       7.971   7.924  17.838  0.00  0.00    +0.000 N 
ATOM      4  N   UNL     1       7.013   5.933  17.944  0.00  0.00    +0.000 N 
ATOM      5  H   UNL     1       6.246   8.458  16.220  0.00  0.00    +0.000 HD
ATOM      6  H   UNL     1       8.676   7.431  18.368  0.00  0.00    +0.000 HD
ATOM      7  H   UNL     1       7.121   5.914  18.949  0.00  0.00    +0.000 HD
ENDROOT
BRANCH   3   8
ATOM      8  C   UNL     1       8.026   9.364  17.915  0.00  0.00    +0.000 C 
BRANCH   8   9
ATOM      9  C   UNL     1       9.150   9.784  18.855  0.00  0.00    +0.000 C 
BRANCH   9  10
ATOM     10  C   UNL     1       9.200  11.303  18.999  0.00  0.00    +0.000 C 
BRANCH  10  11
ATOM     11  C   UNL     1      10.356  11.891  18.274  0.00  0.00    +0.000 A 
ATOM     12  C   UNL     1      11.699  11.619  18.415  0.00  0.00    +0.000 A 
ATOM     13  N   UNL     1      12.327  12.428  17.509  0.00  0.00    +0.000 N 
ATOM     14  C   UNL     1      11.363  13.147  16.864  0.00  0.00    +0.000 A 
ATOM     15  N   UNL     1      10.163  12.843  17.301  0.00  0.00    +0.000 NA
ATOM     16  H   UNL     1      13.322  12.486  17.343  0.00  0.00    +0.000 HD
ENDBRANCH  10  11
ENDBRANCH   9  10
ENDBRANCH   8   9
ENDBRANCH   3   8
BRANCH   4  17
ATOM     17  C   UNL     1       6.396   4.748  17.375  0.00  0.00    +0.000 C 
BRANCH  17  18
ATOM     18  C   UNL     1       5.185   4.364  18.235  0.00  0.00    +0.000 C 
BRANCH  18  19
ATOM     19  C   UNL     1       4.008   5.324  17.992  0.00  0.00    +0.000 C 
BRANCH  19  20
ATOM     20  C   UNL     1       3.341   5.888  19.268  0.00  0.00    +0.000 C 
BRANCH  20  21
ATOM     21  C   UNL     1       2.608   7.222  19.114  0.00  0.00    +0.000 A 
ATOM     22  C   UNL     1       1.830   7.793  20.135  0.00  0.00    +0.000 A 
ATOM     23  C   UNL     1       1.158   9.002  19.938  0.00  0.00    +0.000 A 
ATOM     24  C   UNL     1       1.266   9.672  18.722  0.00  0.00    +0.000 A 
ATOM     25  C   UNL     1       2.046   9.134  17.703  0.00  0.00    +0.000 A 
ATOM     26  C   UNL     1       2.712   7.920  17.897  0.00  0.00    +0.000 A 
ENDBRANCH  20  21
BRANCH  20  27
ATOM     27  C   UNL     1       2.486   4.766  19.869  0.00  0.00    +0.000 A 
ATOM     28  C   UNL     1       1.541   4.062  19.121  0.00  0.00    +0.000 A 
ATOM     29  C   UNL     1       0.869   2.987  19.706  0.00  0.00    +0.000 A 
ATOM     30  C   UNL     1       1.161   2.629  21.014  0.00  0.00    +0.000 A 
ATOM     31  C   UNL     1       2.119   3.364  21.688  0.00  0.00    +0.000 A 
ATOM     32  N   UNL     1       2.781   4.414  21.150  0.00  0.00    +0.000 NA
ENDBRANCH  20  27
ENDBRANCH  19  20
ENDBRANCH  18  19
ENDBRANCH  17  18
ENDBRANCH   4  17
TORSDOF 10
ENDMDL
MODEL 2
REMARK VINA RESULT:      -7.8      5.215      9.616
REMARK  Name = 
REMARK  10 active torsions:
REMARK  status: ('A' for Active; 'I' for Inactive)
REMARK    1  A    between atoms: N_3  and  C_4
REMARK    2  A    between atoms: C_4  and  C_5
REMARK    3  A    between atoms: C_5  and  C_6
REMARK    4  A    between atoms: C_6  and  C_7
REMARK    5  A    between atoms: N_12  and  C_13
REMARK    6  A    between atoms: C_13  and  C_14
REMARK    7  A    between atoms: C_14  and  C_15
REMARK    8  A    between atoms: C_15  and  C_16
REMARK    9  A    between atoms: C_16  and  C_17
REMARK   10  A    between atoms: C_16  and  C_23
REMARK                            x       y       z     vdW  Elec       q    Type
REMARK                         _______ _______ _______ _____ _____    ______ ____
ROOT
ATOM      1  N   UNL     1      -0.081   9.742  19.589  0.00  0.00    +0.000 NA
ATOM      2  C   UNL     1       0.009  10.240  18.410  0.00  0.00    +0.000 C 
ATOM      3  N   UNL     1      -1.014  10.696  17.653  0.00  0.00    +0.000 N 
ATOM      4  N   UNL     1       1.166  10.331  17.723  0.00  0.00    +0.000 N 
ATOM      5  H   UNL     1      -1.055   9.737  19.879  0.00  0.00    +0.000 HD
ATOM      6  H   UNL     1      -0.787  10.876  16.685  0.00  0.00    +0.000 HD
ATOM      7  H   UNL     1       1.348  11.228  17.294  0.00  0.00    +0.000 HD
ENDROOT
BRANCH   3   8
ATOM      8  C   UNL     1      -2.274  11.233  18.108  0.00  0.00    +0.000 C 
BRANCH   8   9
ATOM      9  C   UNL     1      -3.408  10.302  17.694  0.00  0.00    +0.000 C 
BRANCH   9  10
ATOM     10  C   UNL     1      -4.343  10.990  16.703  0.00  0.00    +0.000 C 
BRANCH  10  11
ATOM     11  C   UNL     1      -5.559  11.525  17.368  0.00  0.00    +0.000 A 
ATOM     12  C   UNL     1      -6.337  10.949  18.349  0.00  0.00    +0.000 A 
ATOM     13  N   UNL     1      -7.323  11.860  18.607  0.00  0.00    +0.000 N 
ATOM     14  C   UNL     1      -7.113  12.934  17.791  0.00  0.00    +0.000 A 
ATOM     15  N   UNL     1      -6.055  12.763  17.034  0.00  0.00    +0.000 NA
ATOM     16  H   UNL     1      -8.072  11.761  19.277  0.00  0.00    +0.000 HD
ENDBRANCH  10  11
ENDBRANCH   9  10
ENDBRANCH   8   9
ENDBRANCH   3   8
BRANCH   4  17
ATOM     17  C   UNL     1       2.350   9.542  18.011  0.00  0.00    +0.000 C 
BRANCH  17  18
ATOM     18  C   UNL     1       2.095   8.095  17.568  0.00  0.00    +0.000 C 
BRANCH  18  19
ATOM     19  C   UNL     1       2.866   7.102  18.454  0.00  0.00    +0.000 C 
BRANCH  19  20
ATOM     20  C   UNL     1       3.105   5.708  17.830  0.00  0.00    +0.000 C 
BRANCH  20  21
ATOM     21  C   UNL     1       4.563   5.331  17.558  0.00  0.00    +0.000 A 
ATOM     22  C   UNL     1       5.600   5.564  18.477  0.00  0.00    +0.000 A 
ATOM     23  C   UNL     1       6.921   5.225  18.173  0.00  0.00    +0.000 A 
ATOM     24  C   UNL     1       7.228   4.631  16.952  0.00  0.00    +0.000 A 
ATOM     25  C   UNL     1       6.213   4.374  16.034  0.00  0.00    +0.000 A 
ATOM     26  C   UNL     1       4.892   4.721  16.335  0.00  0.00    +0.000 A 
ENDBRANCH  20  21
BRANCH  20  27
ATOM     27  C   UNL     1       2.340   4.689  18.684  0.00  0.00    +0.000 A 
ATOM     28  C   UNL     1       2.040   4.914  20.028  0.00  0.00    +0.000 A 
ATOM     29  C   UNL     1       1.255   3.987  20.717  0.00  0.00    +0.000 A 
ATOM     30  C   UNL     1       0.776   2.868  20.051  0.00  0.00    +0.000 A 
ATOM     31  C   UNL     1       1.104   2.720  18.716  0.00  0.00    +0.000 A 
ATOM     32  N   UNL     1       1.867   3.596  18.024  0.00  0.00    +0.000 NA
ENDBRANCH  20  27
ENDBRANCH  19  20
ENDBRANCH  18  19
ENDBRANCH  17  18
ENDBRANCH   4  17
TORSDOF 10
ENDMDL
MODEL 3
REMARK VINA RESULT:      -7.8      1.527      3.721
REMARK  Name = 
REMARK  10 active torsions:
REMARK  status: ('A' for Active; 'I' for Inactive)
REMARK    1  A    between atoms: N_3  and  C_4
REMARK    2  A    between atoms: C_4  and  C_5
REMARK    3  A    between atoms: C_5  and  C_6
REMARK    4  A    between atoms: C_6  and  C_7
REMARK    5  A    between atoms: N_12  and  C_13
REMARK    6  A    between atoms: C_13  and  C_14
REMARK    7  A    between atoms: C_14  and  C_15
REMARK    8  A    between atoms: C_15  and  C_16
REMARK    9  A    between atoms: C_16  and  C_17
REMARK   10  A    between atoms: C_16  and  C_23
REMARK                            x       y       z     vdW  Elec       q    Type
REMARK                         _______ _______ _______ _____ _____    ______ ____
ROOT
ATOM      1  N   UNL     1       7.976   6.787  18.962  0.00  0.00    +0.000 NA
ATOM      2  C   UNL     1       7.889   7.594  17.969  0.00  0.00    +0.000 C 
ATOM      3  N   UNL     1       8.186   8.913  17.980  0.00  0.00    +0.000 N 
ATOM      4  N   UNL     1       7.425   7.237  16.753  0.00  0.00    +0.000 N 
ATOM      5  H   UNL     1       8.306   7.293  19.779  0.00  0.00    +0.000 HD
ATOM      6  H   UNL     1       7.881   9.430  17.167  0.00  0.00    +0.000 HD
ATOM      7  H   UNL     1       7.989   7.532  15.968  0.00  0.00    +0.000 HD
ENDROOT
BRANCH   3   8
ATOM      8  C   UNL     1       9.124   9.596  18.838  0.00  0.00    +0.000 C 
BRANCH   8   9
ATOM      9  C   UNL     1       9.092  11.091  18.545  0.00  0.00    +0.000 C 
BRANCH   9  10
ATOM     10  C   UNL     1      10.323  11.518  17.751  0.00  0.00    +0.000 C 
BRANCH  10  11
ATOM     11  C   UNL     1      10.969  12.723  18.333  0.00  0.00    +0.000 A 
ATOM     12  C   UNL     1      10.954  13.172  19.635  0.00  0.00    +0.000 A 
ATOM     13  N   UNL     1      11.704  14.315  19.630  0.00  0.00    +0.000 N 
ATOM     14  C   UNL     1      12.138  14.515  18.351  0.00  0.00    +0.000 A 
ATOM     15  N   UNL     1      11.713  13.569  17.546  0.00  0.00    +0.000 NA
ATOM     16  H   UNL     1      11.903  14.907  20.424  0.00  0.00    +0.000 HD
ENDBRANCH  10  11
ENDBRANCH   9  10
ENDBRANCH   8   9
ENDBRANCH   3   8
BRANCH   4  17
ATOM     17  C   UNL     1       6.600   6.069  16.506  0.00  0.00    +0.000 C 
BRANCH  17  18
ATOM     18  C   UNL     1       5.155   6.529  16.272  0.00  0.00    +0.000 C 
BRANCH  18  19
ATOM     19  C   UNL     1       4.473   6.907  17.599  0.00  0.00    +0.000 C 
BRANCH  19  20
ATOM     20  C   UNL     1       2.993   6.481  17.725  0.00  0.00    +0.000 C 
BRANCH  20  21
ATOM     21  C   UNL     1       2.741   5.042  18.180  0.00  0.00    +0.000 A 
ATOM     22  C   UNL     1       1.566   4.334  17.872  0.00  0.00    +0.000 A 
ATOM     23  C   UNL     1       1.371   3.029  18.333  0.00  0.00    +0.000 A 
ATOM     24  C   UNL     1       2.353   2.401  19.093  0.00  0.00    +0.000 A 
ATOM     25  C   UNL     1       3.532   3.077  19.393  0.00  0.00    +0.000 A 
ATOM     26  C   UNL     1       3.725   4.385  18.940  0.00  0.00    +0.000 A 
ENDBRANCH  20  21
BRANCH  20  27
ATOM     27  C   UNL     1       2.284   7.543  18.575  0.00  0.00    +0.000 A 
ATOM     28  C   UNL     1       1.702   8.682  18.017  0.00  0.00    +0.000 A 
ATOM     29  C   UNL     1       0.988   9.556  18.839  0.00  0.00    +0.000 A 
ATOM     30  C   UNL     1       0.856   9.270  20.190  0.00  0.00    +0.000 A 
ATOM     31  C   UNL     1       1.448   8.116  20.668  0.00  0.00    +0.000 A 
ATOM     32  N   UNL     1       2.152   7.254  19.898  0.00  0.00    +0.000 NA
ENDBRANCH  20  27
ENDBRANCH  19  20
ENDBRANCH  18  19
ENDBRANCH  17  18
ENDBRANCH   4  17
TORSDOF 10
ENDMDL
MODEL 4
REMARK VINA RESULT:      -7.8      1.626      3.899
REMARK  Name = 
REMARK  10 active torsions:
REMARK  status: ('A' for Active; 'I' for Inactive)
REMARK    1  A    between atoms: N_3  and  C_4
REMARK    2  A    between atoms: C_4  and  C_5
REMARK    3  A    between atoms: C_5  and  C_6
REMARK    4  A    between atoms: C_6  and  C_7
REMARK    5  A    between atoms: N_12  and  C_13
REMARK    6  A    between atoms: C_13  and  C_14
REMARK    7  A    between atoms: C_14  and  C_15
REMARK    8  A    between atoms: C_15  and  C_16
REMARK    9  A    between atoms: C_16  and  C_17
REMARK   10  A    between atoms: C_16  and  C_23
REMARK                            x       y       z     vdW  Elec       q    Type
REMARK                         _______ _______ _______ _____ _____    ______ ____
ROOT
ATOM      1  N   UNL     1       8.233   6.872  18.983  0.00  0.00    +0.000 NA
ATOM      2  C   UNL     1       7.984   7.694  18.030  0.00  0.00    +0.000 C 
ATOM      3  N   UNL     1       8.172   9.032  18.058  0.00  0.00    +0.000 N 
ATOM      4  N   UNL     1       7.435   7.330  16.853  0.00  0.00    +0.000 N 
ATOM      5  H   UNL     1       8.598   7.382  19.782  0.00  0.00    +0.000 HD
ATOM      6  H   UNL     1       7.747   9.542  17.296  0.00  0.00    +0.000 HD
ATOM      7  H   UNL     1       7.894   7.692  16.028  0.00  0.00    +0.000 HD
ENDROOT
BRANCH   3   8
ATOM      8  C   UNL     1       9.130   9.771  18.846  0.00  0.00    +0.000 C 
BRANCH   8   9
ATOM      9  C   UNL     1       9.413  11.113  18.182  0.00  0.00    +0.000 C 
BRANCH   9  10
ATOM     10  C   UNL     1      10.464  11.896  18.965  0.00  0.00    +0.000 C 
BRANCH  10  11
ATOM     11  C   UNL     1      11.075  12.975  18.146  0.00  0.00    +0.000 A 
ATOM     12  C   UNL     1      11.099  13.117  16.776  0.00  0.00    +0.000 A 
ATOM     13  N   UNL     1      11.781  14.280  16.547  0.00  0.00    +0.000 N 
ATOM     14  C   UNL     1      12.138  14.792  17.761  0.00  0.00    +0.000 A 
ATOM     15  N   UNL     1      11.724  14.028  18.746  0.00  0.00    +0.000 NA
ATOM     16  H   UNL     1      11.984  14.690  15.647  0.00  0.00    +0.000 HD
ENDBRANCH  10  11
ENDBRANCH   9  10
ENDBRANCH   8   9
ENDBRANCH   3   8
BRANCH   4  17
ATOM     17  C   UNL     1       6.688   6.103  16.646  0.00  0.00    +0.000 C 
BRANCH  17  18
ATOM     18  C   UNL     1       5.201   6.451  16.498  0.00  0.00    +0.000 C 
BRANCH  18  19
ATOM     19  C   UNL     1       4.469   6.333  17.846  0.00  0.00    +0.000 C 
BRANCH  19  20
ATOM     20  C   UNL     1       2.945   6.094  17.750  0.00  0.00    +0.000 C 
BRANCH  20  21
ATOM     21  C   UNL     1       2.456   4.696  18.131  0.00  0.00    +0.000 A 
ATOM     22  C   UNL     1       2.766   3.545  17.386  0.00  0.00    +0.000 A 
ATOM     23  C   UNL     1       2.273   2.291  17.760  0.00  0.00    +0.000 A 
ATOM     24  C   UNL     1       1.478   2.162  18.894  0.00  0.00    +0.000 A 
ATOM     25  C   UNL     1       1.174   3.286  19.657  0.00  0.00    +0.000 A 
ATOM     26  C   UNL     1       1.659   4.541  19.279  0.00  0.00    +0.000 A 
ENDBRANCH  20  21
BRANCH  20  27
ATOM     27  C   UNL     1       2.257   7.232  18.515  0.00  0.00    +0.000 A 
ATOM     28  C   UNL     1       2.142   7.237  19.906  0.00  0.00    +0.000 A 
ATOM     29  C   UNL     1       1.592   8.352  20.542  0.00  0.00    +0.000 A 
ATOM     30  C   UNL     1       1.183   9.439  19.783  0.00  0.00    +0.000 A 
ATOM     31  C   UNL     1       1.340   9.367  18.412  0.00  0.00    +0.000 A 
ATOM     32  N   UNL     1       1.862   8.298  17.767  0.00  0.00    +0.000 NA
ENDBRANCH  20  27
ENDBRANCH  19  20
ENDBRANCH  18  19
ENDBRANCH  17  18
ENDBRANCH   4  17
TORSDOF 10
ENDMDL
MODEL 5
REMARK VINA RESULT:      -7.7      5.073      9.544
REMARK  Name = 
REMARK  10 active torsions:
REMARK  status: ('A' for Active; 'I' for Inactive)
REMARK    1  A    between atoms: N_3  and  C_4
REMARK    2  A    between atoms: C_4  and  C_5
REMARK    3  A    between atoms: C_5  and  C_6
REMARK    4  A    between atoms: C_6  and  C_7
REMARK    5  A    between atoms: N_12  and  C_13
REMARK    6  A    between atoms: C_13  and  C_14
REMARK    7  A    between atoms: C_14  and  C_15
REMARK    8  A    between atoms: C_15  and  C_16
REMARK    9  A    between atoms: C_16  and  C_17
REMARK   10  A    between atoms: C_16  and  C_23
REMARK                            x       y       z     vdW  Elec       q    Type
REMARK                         _______ _______ _______ _____ _____    ______ ____
ROOT
ATOM      1  N   UNL     1      -1.327  10.138  17.318  0.00  0.00    +0.000 NA
ATOM      2  C   UNL     1      -0.727  10.521  18.386  0.00  0.00    +0.000 C 
ATOM      3  N   UNL     1      -1.132  11.501  19.224  0.00  0.00    +0.000 N 
ATOM      4  N   UNL     1       0.454  10.017  18.803  0.00  0.00    +0.000 N 
ATOM      5  H   UNL     1      -2.169  10.691  17.188  0.00  0.00    +0.000 HD
ATOM      6  H   UNL     1      -0.446  11.796  19.905  0.00  0.00    +0.000 HD
ATOM      7  H   UNL     1       0.496   9.759  19.779  0.00  0.00    +0.000 HD
ENDROOT
BRANCH   3   8
ATOM      8  C   UNL     1      -2.481  11.954  19.462  0.00  0.00    +0.000 C 
BRANCH   8   9
ATOM      9  C   UNL     1      -2.482  13.004  20.567  0.00  0.00    +0.000 C 
BRANCH   9  10
ATOM     10  C   UNL     1      -2.384  12.348  21.941  0.00  0.00    +0.000 C 
BRANCH  10  11
ATOM     11  C   UNL     1      -3.582  12.624  22.774  0.00  0.00    +0.000 A 
ATOM     12  C   UNL     1      -3.656  12.936  24.115  0.00  0.00    +0.000 A 
ATOM     13  N   UNL     1      -4.988  13.095  24.375  0.00  0.00    +0.000 N 
ATOM     14  C   UNL     1      -5.662  12.878  23.208  0.00  0.00    +0.000 A 
ATOM     15  N   UNL     1      -4.842  12.594  22.223  0.00  0.00    +0.000 NA
ATOM     16  H   UNL     1      -5.403  13.330  25.265  0.00  0.00    +0.000 HD
ENDBRANCH  10  11
ENDBRANCH   9  10
ENDBRANCH   8   9
ENDBRANCH   3   8
BRANCH   4  17
ATOM     17  C   UNL     1       1.388   9.312  17.944  0.00  0.00    +0.000 C 
BRANCH  17  18
ATOM     18  C   UNL     1       2.123   8.257  18.780  0.00  0.00    +0.000 C 
BRANCH  18  19
ATOM     19  C   UNL     1       3.016   7.372  17.892  0.00  0.00    +0.000 C 
BRANCH  19  20
ATOM     20  C   UNL     1       3.610   6.126  18.587  0.00  0.00    +0.000 C 
BRANCH  20  21
ATOM     21  C   UNL     1       2.616   5.024  18.961  0.00  0.00    +0.000 A 
ATOM     22  C   UNL     1       2.170   4.051  18.050  0.00  0.00    +0.000 A 
ATOM     23  C   UNL     1       1.241   3.079  18.432  0.00  0.00    +0.000 A 
ATOM     24  C   UNL     1       0.754   3.051  19.736  0.00  0.00    +0.000 A 
ATOM     25  C   UNL     1       1.196   3.994  20.659  0.00  0.00    +0.000 A 
ATOM     26  C   UNL     1       2.119   4.972  20.276  0.00  0.00    +0.000 A 
ENDBRANCH  20  21
BRANCH  20  27
ATOM     27  C   UNL     1       4.789   5.646  17.732  0.00  0.00    +0.000 A 
ATOM     28  C   UNL     1       4.875   5.901  16.363  0.00  0.00    +0.000 A 
ATOM     29  C   UNL     1       6.024   5.520  15.667  0.00  0.00    +0.000 A 
ATOM     30  C   UNL     1       7.065   4.909  16.351  0.00  0.00    +0.000 A 
ATOM     31  C   UNL     1       6.914   4.701  17.709  0.00  0.00    +0.000 A 
ATOM     32  N   UNL     1       5.811   5.052  18.408  0.00  0.00    +0.000 NA
ENDBRANCH  20  27
ENDBRANCH  19  20
ENDBRANCH  18  19
ENDBRANCH  17  18
ENDBRANCH   4  17
TORSDOF 10
ENDMDL
MODEL 6
REMARK VINA RESULT:      -7.7      4.612      8.077
REMARK  Name = 
REMARK  10 active torsions:
REMARK  status: ('A' for Active; 'I' for Inactive)
REMARK    1  A    between atoms: N_3  and  C_4
REMARK    2  A    between atoms: C_4  and  C_5
REMARK    3  A    between atoms: C_5  and  C_6
REMARK    4  A    between atoms: C_6  and  C_7
REMARK    5  A    between atoms: N_12  and  C_13
REMARK    6  A    between atoms: C_13  and  C_14
REMARK    7  A    between atoms: C_14  and  C_15
REMARK    8  A    between atoms: C_15  and  C_16
REMARK    9  A    between atoms: C_16  and  C_17
REMARK   10  A    between atoms: C_16  and  C_23
REMARK                            x       y       z     vdW  Elec       q    Type
REMARK                         _______ _______ _______ _____ _____    ______ ____
ROOT
ATOM      1  N   UNL     1      -1.042  10.550  18.129  0.00  0.00    +0.000 NA
ATOM      2  C   UNL     1       0.108  11.096  18.292  0.00  0.00    +0.000 C 
ATOM      3  N   UNL     1       0.348  12.409  18.504  0.00  0.00    +0.000 N 
ATOM      4  N   UNL     1       1.274  10.420  18.220  0.00  0.00    +0.000 N 
ATOM      5  H   UNL     1      -1.763  11.264  18.181  0.00  0.00    +0.000 HD
ATOM      6  H   UNL     1       1.316  12.688  18.421  0.00  0.00    +0.000 HD
ATOM      7  H   UNL     1       1.926  10.596  18.971  0.00  0.00    +0.000 HD
ENDROOT
BRANCH   3   8
ATOM      8  C   UNL     1      -0.530  13.377  19.116  0.00  0.00    +0.000 C 
BRANCH   8   9
ATOM      9  C   UNL     1      -0.352  13.346  20.629  0.00  0.00    +0.000 C 
BRANCH   9  10
ATOM     10  C   UNL     1      -1.450  12.518  21.290  0.00  0.00    +0.000 C 
BRANCH  10  11
ATOM     11  C   UNL     1      -0.907  11.301  21.948  0.00  0.00    +0.000 A 
ATOM     12  C   UNL     1      -1.229  10.759  23.173  0.00  0.00    +0.000 A 
ATOM     13  N   UNL     1      -0.446   9.645  23.291  0.00  0.00    +0.000 N 
ATOM     14  C   UNL     1       0.308   9.552  22.156  0.00  0.00    +0.000 A 
ATOM     15  N   UNL     1       0.051  10.536  21.326  0.00  0.00    +0.000 NA
ATOM     16  H   UNL     1      -0.425   9.004  24.071  0.00  0.00    +0.000 HD
ENDBRANCH  10  11
ENDBRANCH   9  10
ENDBRANCH   8   9
ENDBRANCH   3   8
BRANCH   4  17
ATOM     17  C   UNL     1       1.432   9.135  17.563  0.00  0.00    +0.000 C 
BRANCH  17  18
ATOM     18  C   UNL     1       2.156   8.180  18.522  0.00  0.00    +0.000 C 
BRANCH  18  19
ATOM     19  C   UNL     1       3.348   7.499  17.828  0.00  0.00    +0.000 C 
BRANCH  19  20
ATOM     20  C   UNL     1       3.906   6.250  18.548  0.00  0.00    +0.000 C 
BRANCH  20  21
ATOM     21  C   UNL     1       2.878   5.195  18.962  0.00  0.00    +0.000 A 
ATOM     22  C   UNL     1       2.501   4.974  20.297  0.00  0.00    +0.000 A 
ATOM     23  C   UNL     1       1.576   3.980  20.629  0.00  0.00    +0.000 A 
ATOM     24  C   UNL     1       0.998   3.201  19.631  0.00  0.00    +0.000 A 
ATOM     25  C   UNL     1       1.343   3.416  18.299  0.00  0.00    +0.000 A 
ATOM     26  C   UNL     1       2.275   4.404  17.968  0.00  0.00    +0.000 A 
ENDBRANCH  20  21
BRANCH  20  27
ATOM     27  C   UNL     1       5.056   5.706  17.691  0.00  0.00    +0.000 A 
ATOM     28  C   UNL     1       6.136   5.013  18.241  0.00  0.00    +0.000 A 
ATOM     29  C   UNL     1       7.097   4.461  17.391  0.00  0.00    +0.000 A 
ATOM     30  C   UNL     1       6.954   4.597  16.018  0.00  0.00    +0.000 A 
ATOM     31  C   UNL     1       5.851   5.284  15.547  0.00  0.00    +0.000 A 
ATOM     32  N   UNL     1       4.908   5.837  16.345  0.00  0.00    +0.000 NA
ENDBRANCH  20  27
ENDBRANCH  19  20
ENDBRANCH  18  19
ENDBRANCH  17  18
ENDBRANCH   4  17
TORSDOF 10
ENDMDL
MODEL 7
REMARK VINA RESULT:      -7.6      4.354      8.187
REMARK  Name = 
REMARK  10 active torsions:
REMARK  status: ('A' for Active; 'I' for Inactive)
REMARK    1  A    between atoms: N_3  and  C_4
REMARK    2  A    between atoms: C_4  and  C_5
REMARK    3  A    between atoms: C_5  and  C_6
REMARK    4  A    between atoms: C_6  and  C_7
REMARK    5  A    between atoms: N_12  and  C_13
REMARK    6  A    between atoms: C_13  and  C_14
REMARK    7  A    between atoms: C_14  and  C_15
REMARK    8  A    between atoms: C_15  and  C_16
REMARK    9  A    between atoms: C_16  and  C_17
REMARK   10  A    between atoms: C_16  and  C_23
REMARK                            x       y       z     vdW  Elec       q    Type
REMARK                         _______ _______ _______ _____ _____    ______ ____
ROOT
ATOM      1  N   UNL     1       1.605   9.726  22.554  0.00  0.00    +0.000 NA
ATOM      2  C   UNL     1       0.614   9.668  21.741  0.00  0.00    +0.000 C 
ATOM      3  N   UNL     1      -0.662  10.026  22.009  0.00  0.00    +0.000 N 
ATOM      4  N   UNL     1       0.702   9.179  20.487  0.00  0.00    +0.000 N 
ATOM      5  H   UNL     1       1.286  10.085  23.449  0.00  0.00    +0.000 HD
ATOM      6  H   UNL     1      -1.343   9.738  21.320  0.00  0.00    +0.000 HD
ATOM      7  H   UNL     1       0.281   9.750  19.767  0.00  0.00    +0.000 HD
ENDROOT
BRANCH   3   8
ATOM      8  C   UNL     1      -1.121  11.000  22.970  0.00  0.00    +0.000 C 
BRANCH   8   9
ATOM      9  C   UNL     1      -1.161  12.379  22.322  0.00  0.00    +0.000 C 
BRANCH   9  10
ATOM     10  C   UNL     1      -2.232  12.438  21.235  0.00  0.00    +0.000 C 
BRANCH  10  11
ATOM     11  C   UNL     1      -1.644  12.666  19.890  0.00  0.00    +0.000 A 
ATOM     12  C   UNL     1      -1.981  12.088  18.685  0.00  0.00    +0.000 A 
ATOM     13  N   UNL     1      -1.138  12.650  17.768  0.00  0.00    +0.000 N 
ATOM     14  C   UNL     1      -0.336  13.531  18.434  0.00  0.00    +0.000 A 
ATOM     15  N   UNL     1      -0.619  13.566  19.715  0.00  0.00    +0.000 NA
ATOM     16  H   UNL     1      -1.110  12.454  16.777  0.00  0.00    +0.000 HD
ENDBRANCH  10  11
ENDBRANCH   9  10
ENDBRANCH   8   9
ENDBRANCH   3   8
BRANCH   4  17
ATOM     17  C   UNL     1       1.761   8.300  20.027  0.00  0.00    +0.000 C 
BRANCH  17  18
ATOM     18  C   UNL     1       1.999   8.557  18.533  0.00  0.00    +0.000 C 
BRANCH  18  19
ATOM     19  C   UNL     1       2.498   7.285  17.826  0.00  0.00    +0.000 C 
BRANCH  19  20
ATOM     20  C   UNL     1       3.168   6.239  18.745  0.00  0.00    +0.000 C 
BRANCH  20  21
ATOM     21  C   UNL     1       2.345   4.985  19.052  0.00  0.00    +0.000 A 
ATOM     22  C   UNL     1       1.954   4.064  18.065  0.00  0.00    +0.000 A 
ATOM     23  C   UNL     1       1.180   2.946  18.391  0.00  0.00    +0.000 A 
ATOM     24  C   UNL     1       0.799   2.719  19.710  0.00  0.00    +0.000 A 
ATOM     25  C   UNL     1       1.193   3.609  20.706  0.00  0.00    +0.000 A 
ATOM     26  C   UNL     1       1.959   4.731  20.380  0.00  0.00    +0.000 A 
ENDBRANCH  20  21
BRANCH  20  27
ATOM     27  C   UNL     1       4.561   5.952  18.171  0.00  0.00    +0.000 A 
ATOM     28  C   UNL     1       5.557   5.311  18.908  0.00  0.00    +0.000 A 
ATOM     29  C   UNL     1       6.768   4.994  18.289  0.00  0.00    +0.000 A 
ATOM     30  C   UNL     1       6.954   5.309  16.951  0.00  0.00    +0.000 A 
ATOM     31  C   UNL     1       5.917   5.932  16.282  0.00  0.00    +0.000 A 
ATOM     32  N   UNL     1       4.736   6.258  16.856  0.00  0.00    +0.000 NA
ENDBRANCH  20  27
ENDBRANCH  19  20
ENDBRANCH  18  19
ENDBRANCH  17  18
ENDBRANCH   4  17
TORSDOF 10
ENDMDL
MODEL 8
REMARK VINA RESULT:      -7.6      4.601      7.820
REMARK  Name = 
REMARK  10 active torsions:
REMARK  status: ('A' for Active; 'I' for Inactive)
REMARK    1  A    between atoms: N_3  and  C_4
REMARK    2  A    between atoms: C_4  and  C_5
REMARK    3  A    between atoms: C_5  and  C_6
REMARK    4  A    between atoms: C_6  and  C_7
REMARK    5  A    between atoms: N_12  and  C_13
REMARK    6  A    between atoms: C_13  and  C_14
REMARK    7  A    between atoms: C_14  and  C_15
REMARK    8  A    between atoms: C_15  and  C_16
REMARK    9  A    between atoms: C_16  and  C_17
REMARK   10  A    between atoms: C_16  and  C_23
REMARK                            x       y       z     vdW  Elec       q    Type
REMARK                         _______ _______ _______ _____ _____    ______ ____
ROOT
ATOM      1  N   UNL     1       1.759   9.340  22.699  0.00  0.00    +0.000 NA
ATOM      2  C   UNL     1       0.761   9.294  21.893  0.00  0.00    +0.000 C 
ATOM      3  N   UNL     1      -0.506   9.680  22.165  0.00  0.00    +0.000 N 
ATOM      4  N   UNL     1       0.832   8.790  20.644  0.00  0.00    +0.000 N 
ATOM      5  H   UNL     1       1.453   9.715  23.592  0.00  0.00    +0.000 HD
ATOM      6  H   UNL     1      -1.197   9.398  21.483  0.00  0.00    +0.000 HD
ATOM      7  H   UNL     1       0.419   9.361  19.920  0.00  0.00    +0.000 HD
ENDROOT
BRANCH   3   8
ATOM      8  C   UNL     1      -0.938  10.674  23.117  0.00  0.00    +0.000 C 
BRANCH   8   9
ATOM      9  C   UNL     1      -0.876  12.056  22.480  0.00  0.00    +0.000 C 
BRANCH   9  10
ATOM     10  C   UNL     1      -1.609  12.072  21.141  0.00  0.00    +0.000 C 
BRANCH  10  11
ATOM     11  C   UNL     1      -0.681  12.302  20.003  0.00  0.00    +0.000 A 
ATOM     12  C   UNL     1      -0.940  12.863  18.772  0.00  0.00    +0.000 A 
ATOM     13  N   UNL     1       0.255  12.841  18.108  0.00  0.00    +0.000 N 
ATOM     14  C   UNL     1       1.177  12.279  18.943  0.00  0.00    +0.000 A 
ATOM     15  N   UNL     1       0.643  11.946  20.096  0.00  0.00    +0.000 NA
ATOM     16  H   UNL     1       0.429  13.177  17.172  0.00  0.00    +0.000 HD
ENDBRANCH  10  11
ENDBRANCH   9  10
ENDBRANCH   8   9
ENDBRANCH   3   8
BRANCH   4  17
ATOM     17  C   UNL     1       1.870   7.884  20.187  0.00  0.00    +0.000 C 
BRANCH  17  18
ATOM     18  C   UNL     1       2.197   8.209  18.723  0.00  0.00    +0.000 C 
BRANCH  18  19
ATOM     19  C   UNL     1       2.326   6.924  17.888  0.00  0.00    +0.000 C 
BRANCH  19  20
ATOM     20  C   UNL     1       3.235   5.831  18.494  0.00  0.00    +0.000 C 
BRANCH  20  21
ATOM     21  C   UNL     1       2.522   4.666  19.184  0.00  0.00    +0.000 A 
ATOM     22  C   UNL     1       1.504   3.917  18.570  0.00  0.00    +0.000 A 
ATOM     23  C   UNL     1       0.863   2.878  19.250  0.00  0.00    +0.000 A 
ATOM     24  C   UNL     1       1.240   2.557  20.551  0.00  0.00    +0.000 A 
ATOM     25  C   UNL     1       2.259   3.274  21.173  0.00  0.00    +0.000 A 
ATOM     26  C   UNL     1       2.894   4.319  20.495  0.00  0.00    +0.000 A 
ENDBRANCH  20  21
BRANCH  20  27
ATOM     27  C   UNL     1       4.226   5.404  17.403  0.00  0.00    +0.000 A 
ATOM     28  C   UNL     1       4.607   4.075  17.216  0.00  0.00    +0.000 A 
ATOM     29  C   UNL     1       5.435   3.747  16.141  0.00  0.00    +0.000 A 
ATOM     30  C   UNL     1       5.852   4.743  15.271  0.00  0.00    +0.000 A 
ATOM     31  C   UNL     1       5.423   6.035  15.512  0.00  0.00    +0.000 A 
ATOM     32  N   UNL     1       4.627   6.385  16.549  0.00  0.00    +0.000 NA
ENDBRANCH  20  27
ENDBRANCH  19  20
ENDBRANCH  18  19
ENDBRANCH  17  18
ENDBRANCH   4  17
TORSDOF 10
ENDMDL
MODEL 9
REMARK VINA RESULT:      -7.6      5.158      9.856
REMARK  Name = 
REMARK  10 active torsions:
REMARK  status: ('A' for Active; 'I' for Inactive)
REMARK    1  A    between atoms: N_3  and  C_4
REMARK    2  A    between atoms: C_4  and  C_5
REMARK    3  A    between atoms: C_5  and  C_6
REMARK    4  A    between atoms: C_6  and  C_7
REMARK    5  A    between atoms: N_12  and  C_13
REMARK    6  A    between atoms: C_13  and  C_14
REMARK    7  A    between atoms: C_14  and  C_15
REMARK    8  A    between atoms: C_15  and  C_16
REMARK    9  A    between atoms: C_16  and  C_17
REMARK   10  A    between atoms: C_16  and  C_23
REMARK                            x       y       z     vdW  Elec       q    Type
REMARK                         _______ _______ _______ _____ _____    ______ ____
ROOT
ATOM      1  N   UNL     1      -0.449  10.792  19.428  0.00  0.00    +0.000 NA
ATOM      2  C   UNL     1      -0.391  10.412  18.204  0.00  0.00    +0.000 C 
ATOM      3  N   UNL     1      -1.393  10.471  17.299  0.00  0.00    +0.000 N 
ATOM      4  N   UNL     1       0.696   9.834  17.651  0.00  0.00    +0.000 N 
ATOM      5  H   UNL     1      -1.378  11.152  19.625  0.00  0.00    +0.000 HD
ATOM      6  H   UNL     1      -1.231   9.957  16.444  0.00  0.00    +0.000 HD
ATOM      7  H   UNL     1       0.981  10.209  16.756  0.00  0.00    +0.000 HD
ENDROOT
BRANCH   3   8
ATOM      8  C   UNL     1      -2.500  11.396  17.270  0.00  0.00    +0.000 C 
BRANCH   8   9
ATOM      9  C   UNL     1      -3.704  10.777  17.969  0.00  0.00    +0.000 C 
BRANCH   9  10
ATOM     10  C   UNL     1      -4.681  11.855  18.429  0.00  0.00    +0.000 C 
BRANCH  10  11
ATOM     11  C   UNL     1      -5.862  11.275  19.119  0.00  0.00    +0.000 A 
ATOM     12  C   UNL     1      -6.675  10.235  18.724  0.00  0.00    +0.000 A 
ATOM     13  N   UNL     1      -7.603  10.106  19.719  0.00  0.00    +0.000 N 
ATOM     14  C   UNL     1      -7.327  11.052  20.663  0.00  0.00    +0.000 A 
ATOM     15  N   UNL     1      -6.280  11.772  20.332  0.00  0.00    +0.000 NA
ATOM     16  H   UNL     1      -8.357   9.434  19.755  0.00  0.00    +0.000 HD
ENDBRANCH  10  11
ENDBRANCH   9  10
ENDBRANCH   8   9
ENDBRANCH   3   8
BRANCH   4  17
ATOM     17  C   UNL     1       1.758   9.199  18.411  0.00  0.00    +0.000 C 
BRANCH  17  18
ATOM     18  C   UNL     1       1.670   7.681  18.203  0.00  0.00    +0.000 C 
BRANCH  18  19
ATOM     19  C   UNL     1       3.054   7.023  18.342  0.00  0.00    +0.000 C 
BRANCH  19  20
ATOM     20  C   UNL     1       3.223   5.679  17.598  0.00  0.00    +0.000 C 
BRANCH  20  21
ATOM     21  C   UNL     1       4.632   5.360  17.093  0.00  0.00    +0.000 A 
ATOM     22  C   UNL     1       5.756   6.143  17.409  0.00  0.00    +0.000 A 
ATOM     23  C   UNL     1       7.019   5.826  16.901  0.00  0.00    +0.000 A 
ATOM     24  C   UNL     1       7.185   4.712  16.084  0.00  0.00    +0.000 A 
ATOM     25  C   UNL     1       6.089   3.912  15.773  0.00  0.00    +0.000 A 
ATOM     26  C   UNL     1       4.824   4.234  16.273  0.00  0.00    +0.000 A 
ENDBRANCH  20  21
BRANCH  20  27
ATOM     27  C   UNL     1       2.611   4.587  18.485  0.00  0.00    +0.000 A 
ATOM     28  C   UNL     1       1.500   3.839  18.093  0.00  0.00    +0.000 A 
ATOM     29  C   UNL     1       1.057   2.795  18.907  0.00  0.00    +0.000 A 
ATOM     30  C   UNL     1       1.737   2.510  20.083  0.00  0.00    +0.000 A 
ATOM     31  C   UNL     1       2.837   3.286  20.399  0.00  0.00    +0.000 A 
ATOM     32  N   UNL     1       3.285   4.308  19.634  0.00  0.00    +0.000 NA
ENDBRANCH  20  27
ENDBRANCH  19  20
ENDBRANCH  18  19
ENDBRANCH  17  18
ENDBRANCH   4  17
TORSDOF 10
ENDMDL
