MODEL 1
REMARK VINA RESULT:      -6.9      0.000      0.000
REMARK  Name = 
REMARK  12 active torsions:
REMARK  status: ('A' for Active; 'I' for Inactive)
REMARK    1  A    between atoms: C_1  and  O_2
REMARK    2  A    between atoms: O_2  and  C_3
REMARK    3  A    between atoms: C_5  and  C_6
REMARK    4  A    between atoms: C_6  and  N_7
REMARK    5  A    between atoms: N_7  and  C_8
REMARK    6  A    between atoms: C_8  and  C_9
REMARK    7  A    between atoms: C_8  and  C_10
REMARK    8  A    between atoms: C_8  and  C_11
REMARK    9  A    between atoms: C_11  and  O_12
REMARK   10  A    between atoms: C_16  and  O_17
REMARK   11  A    between atoms: O_17  and  C_18
REMARK   12  A    between atoms: C_18  and  C_19
REMARK                            x       y       z     vdW  Elec       q    Type
REMARK                         _______ _______ _______ _____ _____    ______ ____
ROOT
ATOM      1  C   UNL     1       5.868   6.451  17.222  0.00  0.00    +0.000 A 
ATOM      2  C   UNL     1       6.567   5.874  16.160  0.00  0.00    +0.000 A 
ATOM      3  C   UNL     1       6.096   4.725  15.513  0.00  0.00    +0.000 A 
ATOM      4  C   UNL     1       4.929   4.120  15.982  0.00  0.00    +0.000 A 
ATOM      5  C   UNL     1       4.202   4.706  17.027  0.00  0.00    +0.000 A 
ATOM      6 BR   UNL     1       2.587   3.846  17.556  0.00  0.00    +0.000 Br
ATOM      7  C   UNL     1       4.640   5.898  17.637  0.00  0.00    +0.000 A 
ENDROOT
BRANCH   1   9
ATOM      8  C   UNL     1       7.671   7.973  17.513  0.00  0.00    +0.000 C 
ATOM      9  O   UNL     1       6.326   7.605  17.797  0.00  0.00    +0.000 OA
ENDBRANCH   1   9
BRANCH   3  10
ATOM     10  C   UNL     1       6.902   4.160  14.368  0.00  0.00    +0.000 C 
BRANCH  10  11
ATOM     11  N   UNL     1       6.165   3.139  13.625  0.00  0.00    +0.000 NA
ATOM     12  H   UNL     1       5.198   3.169  13.951  0.00  0.00    +0.000 HD
BRANCH  11  13
ATOM     13  C   UNL     1       6.156   3.324  12.152  0.00  0.00    +0.000 C 
ATOM     14  C   UNL     1       4.717   3.490  11.628  0.00  0.00    +0.000 C 
ATOM     15  C   UNL     1       7.012   4.527  11.716  0.00  0.00    +0.000 C 
BRANCH  13  16
ATOM     16  C   UNL     1       6.780   2.044  11.526  0.00  0.00    +0.000 C 
BRANCH  16  17
ATOM     17  O   UNL     1       5.851   0.961  11.517  0.00  0.00    +0.000 OA
ATOM     18  H   UNL     1       6.174   0.342  10.839  0.00  0.00    +0.000 HD
ENDBRANCH  16  17
ENDBRANCH  13  16
ENDBRANCH  11  13
ENDBRANCH  10  11
ENDBRANCH   3  10
BRANCH   7  19
ATOM     19  O   UNL     1       3.805   6.411  18.604  0.00  0.00    +0.000 OA
BRANCH  19  20
ATOM     20  C   UNL     1       2.867   7.398  18.171  0.00  0.00    +0.000 C 
BRANCH  20  21
ATOM     21  C   UNL     1       2.044   7.964  19.303  0.00  0.00    +0.000 A 
ATOM     22  C   UNL     1       1.757   7.194  20.443  0.00  0.00    +0.000 A 
ATOM     23  C   UNL     1       0.936   7.704  21.449  0.00  0.00    +0.000 A 
ATOM     24  C   UNL     1       0.389   8.979  21.321  0.00  0.00    +0.000 A 
ATOM     25 CL   UNL     1      -0.625   9.603  22.560  0.00  0.00    +0.000 Cl
ATOM     26  C   UNL     1       0.651   9.751  20.195  0.00  0.00    +0.000 A 
ATOM     27  C   UNL     1       1.467   9.240  19.184  0.00  0.00    +0.000 A 
ATOM     28 CL   UNL     1       1.708  10.228  17.784  0.00  0.00    +0.000 Cl
ENDBRANCH  20  21
ENDBRANCH  19  20
ENDBRANCH   7  19
TORSDOF 9
ENDMDL
MODEL 2
REMARK VINA RESULT:      -6.6      2.646      4.196
REMARK  Name = 
REMARK  12 active torsions:
REMARK  status: ('A' for Active; 'I' for Inactive)
REMARK    1  A    between atoms: C_1  and  O_2
REMARK    2  A    between atoms: O_2  and  C_3
REMARK    3  A    between atoms: C_5  and  C_6
REMARK    4  A    between atoms: C_6  and  N_7
REMARK    5  A    between atoms: N_7  and  C_8
REMARK    6  A    between atoms: C_8  and  C_9
REMARK    7  A    between atoms: C_8  and  C_10
REMARK    8  A    between atoms: C_8  and  C_11
REMARK    9  A    between atoms: C_11  and  O_12
REMARK   10  A    between atoms: C_16  and  O_17
REMARK   11  A    between atoms: O_17  and  C_18
REMARK   12  A    between atoms: C_18  and  C_19
REMARK                            x       y       z     vdW  Elec       q    Type
REMARK                         _______ _______ _______ _____ _____    ______ ____
ROOT
ATOM      1  C   UNL     1       2.542   5.233  20.327  0.00  0.00    +0.000 A 
ATOM      2  C   UNL     1       3.493   4.491  19.622  0.00  0.00    +0.000 A 
ATOM      3  C   UNL     1       4.034   4.953  18.417  0.00  0.00    +0.000 A 
ATOM      4  C   UNL     1       3.568   6.158  17.888  0.00  0.00    +0.000 A 
ATOM      5  C   UNL     1       2.638   6.926  18.600  0.00  0.00    +0.000 A 
ATOM      6 BR   UNL     1       2.109   8.588  17.833  0.00  0.00    +0.000 Br
ATOM      7  C   UNL     1       2.139   6.495  19.845  0.00  0.00    +0.000 A 
ENDROOT
BRANCH   1   9
ATOM      8  C   UNL     1       2.057   3.370  21.721  0.00  0.00    +0.000 C 
ATOM      9  O   UNL     1       2.072   4.780  21.529  0.00  0.00    +0.000 OA
ENDBRANCH   1   9
BRANCH   3  10
ATOM     10  C   UNL     1       5.062   4.099  17.714  0.00  0.00    +0.000 C 
BRANCH  10  11
ATOM     11  N   UNL     1       4.817   4.015  16.274  0.00  0.00    +0.000 NA
ATOM     12  H   UNL     1       3.911   4.449  16.097  0.00  0.00    +0.000 HD
BRANCH  11  13
ATOM     13  C   UNL     1       5.826   4.704  15.429  0.00  0.00    +0.000 C 
ATOM     14  C   UNL     1       6.161   3.865  14.181  0.00  0.00    +0.000 C 
ATOM     15  C   UNL     1       5.361   6.108  15.005  0.00  0.00    +0.000 C 
BRANCH  13  16
ATOM     16  C   UNL     1       7.109   4.868  16.292  0.00  0.00    +0.000 C 
BRANCH  16  17
ATOM     17  O   UNL     1       7.567   6.220  16.296  0.00  0.00    +0.000 OA
ATOM     18  H   UNL     1       7.198   6.625  15.492  0.00  0.00    +0.000 HD
ENDBRANCH  16  17
ENDBRANCH  13  16
ENDBRANCH  11  13
ENDBRANCH  10  11
ENDBRANCH   3  10
BRANCH   7  19
ATOM     19  O   UNL     1       1.283   7.369  20.477  0.00  0.00    +0.000 OA
BRANCH  19  20
ATOM     20  C   UNL     1       1.866   8.574  20.975  0.00  0.00    +0.000 C 
BRANCH  20  21
ATOM     21  C   UNL     1       0.852   9.501  21.603  0.00  0.00    +0.000 A 
ATOM     22  C   UNL     1       0.116   9.108  22.733  0.00  0.00    +0.000 A 
ATOM     23  C   UNL     1      -0.869   9.945  23.259  0.00  0.00    +0.000 A 
ATOM     24  C   UNL     1      -1.131  11.174  22.656  0.00  0.00    +0.000 A 
ATOM     25 CL   UNL     1      -2.346  12.201  23.304  0.00  0.00    +0.000 Cl
ATOM     26  C   UNL     1      -0.422  11.575  21.530  0.00  0.00    +0.000 A 
ATOM     27  C   UNL     1       0.558  10.736  20.998  0.00  0.00    +0.000 A 
ATOM     28 CL   UNL     1       1.365  11.269  19.563  0.00  0.00    +0.000 Cl
ENDBRANCH  20  21
ENDBRANCH  19  20
ENDBRANCH   7  19
TORSDOF 9
ENDMDL
MODEL 3
REMARK VINA RESULT:      -6.5      4.133      9.242
REMARK  Name = 
REMARK  12 active torsions:
REMARK  status: ('A' for Active; 'I' for Inactive)
REMARK    1  A    between atoms: C_1  and  O_2
REMARK    2  A    between atoms: O_2  and  C_3
REMARK    3  A    between atoms: C_5  and  C_6
REMARK    4  A    between atoms: C_6  and  N_7
REMARK    5  A    between atoms: N_7  and  C_8
REMARK    6  A    between atoms: C_8  and  C_9
REMARK    7  A    between atoms: C_8  and  C_10
REMARK    8  A    between atoms: C_8  and  C_11
REMARK    9  A    between atoms: C_11  and  O_12
REMARK   10  A    between atoms: C_16  and  O_17
REMARK   11  A    between atoms: O_17  and  C_18
REMARK   12  A    between atoms: C_18  and  C_19
REMARK                            x       y       z     vdW  Elec       q    Type
REMARK                         _______ _______ _______ _____ _____    ______ ____
ROOT
ATOM      1  C   UNL     1       2.069   4.679  19.943  0.00  0.00    +0.000 A 
ATOM      2  C   UNL     1       1.483   5.600  20.815  0.00  0.00    +0.000 A 
ATOM      3  C   UNL     1       1.581   6.979  20.595  0.00  0.00    +0.000 A 
ATOM      4  C   UNL     1       2.328   7.435  19.507  0.00  0.00    +0.000 A 
ATOM      5  C   UNL     1       2.893   6.521  18.608  0.00  0.00    +0.000 A 
ATOM      6 BR   UNL     1       3.838   7.235  17.117  0.00  0.00    +0.000 Br
ATOM      7  C   UNL     1       2.742   5.133  18.792  0.00  0.00    +0.000 A 
ENDROOT
BRANCH   1   9
ATOM      8  C   UNL     1       1.860   2.903  21.511  0.00  0.00    +0.000 C 
ATOM      9  O   UNL     1       1.909   3.336  20.156  0.00  0.00    +0.000 OA
ENDBRANCH   1   9
BRANCH   3  10
ATOM     10  C   UNL     1       0.918   7.914  21.577  0.00  0.00    +0.000 C 
BRANCH  10  11
ATOM     11  N   UNL     1       1.422   9.283  21.462  0.00  0.00    +0.000 NA
ATOM     12  H   UNL     1       2.060   9.302  20.665  0.00  0.00    +0.000 HD
BRANCH  11  13
ATOM     13  C   UNL     1       0.378  10.314  21.235  0.00  0.00    +0.000 C 
ATOM     14  C   UNL     1       1.017  11.684  20.936  0.00  0.00    +0.000 C 
ATOM     15  C   UNL     1      -0.579   9.925  20.094  0.00  0.00    +0.000 C 
BRANCH  13  16
ATOM     16  C   UNL     1      -0.456  10.416  22.543  0.00  0.00    +0.000 C 
BRANCH  16  17
ATOM     17  O   UNL     1      -0.513  11.759  23.023  0.00  0.00    +0.000 OA
ATOM     18  H   UNL     1      -0.812  11.696  23.947  0.00  0.00    +0.000 HD
ENDBRANCH  16  17
ENDBRANCH  13  16
ENDBRANCH  11  13
ENDBRANCH  10  11
ENDBRANCH   3  10
BRANCH   7  19
ATOM     19  O   UNL     1       3.286   4.341  17.805  0.00  0.00    +0.000 OA
BRANCH  19  20
ATOM     20  C   UNL     1       4.674   4.031  17.936  0.00  0.00    +0.000 C 
BRANCH  20  21
ATOM     21  C   UNL     1       5.469   4.363  16.696  0.00  0.00    +0.000 A 
ATOM     22  C   UNL     1       4.986   4.036  15.418  0.00  0.00    +0.000 A 
ATOM     23  C   UNL     1       5.764   4.284  14.286  0.00  0.00    +0.000 A 
ATOM     24  C   UNL     1       7.030   4.849  14.423  0.00  0.00    +0.000 A 
ATOM     25 CL   UNL     1       7.986   5.150  13.027  0.00  0.00    +0.000 Cl
ATOM     26  C   UNL     1       7.530   5.169  15.679  0.00  0.00    +0.000 A 
ATOM     27  C   UNL     1       6.757   4.916  16.813  0.00  0.00    +0.000 A 
ATOM     28 CL   UNL     1       7.460   5.283  18.352  0.00  0.00    +0.000 Cl
ENDBRANCH  20  21
ENDBRANCH  19  20
ENDBRANCH   7  19
TORSDOF 9
ENDMDL
MODEL 4
REMARK VINA RESULT:      -6.3      4.171      9.023
REMARK  Name = 
REMARK  12 active torsions:
REMARK  status: ('A' for Active; 'I' for Inactive)
REMARK    1  A    between atoms: C_1  and  O_2
REMARK    2  A    between atoms: O_2  and  C_3
REMARK    3  A    between atoms: C_5  and  C_6
REMARK    4  A    between atoms: C_6  and  N_7
REMARK    5  A    between atoms: N_7  and  C_8
REMARK    6  A    between atoms: C_8  and  C_9
REMARK    7  A    between atoms: C_8  and  C_10
REMARK    8  A    between atoms: C_8  and  C_11
REMARK    9  A    between atoms: C_11  and  O_12
REMARK   10  A    between atoms: C_16  and  O_17
REMARK   11  A    between atoms: O_17  and  C_18
REMARK   12  A    between atoms: C_18  and  C_19
REMARK                            x       y       z     vdW  Elec       q    Type
REMARK                         _______ _______ _______ _____ _____    ______ ____
ROOT
ATOM      1  C   UNL     1       2.137   4.712  20.013  0.00  0.00    +0.000 A 
ATOM      2  C   UNL     1       1.533   5.617  20.888  0.00  0.00    +0.000 A 
ATOM      3  C   UNL     1       1.574   6.998  20.655  0.00  0.00    +0.000 A 
ATOM      4  C   UNL     1       2.283   7.472  19.551  0.00  0.00    +0.000 A 
ATOM      5  C   UNL     1       2.866   6.573  18.648  0.00  0.00    +0.000 A 
ATOM      6 BR   UNL     1       3.756   7.310  17.134  0.00  0.00    +0.000 Br
ATOM      7  C   UNL     1       2.771   5.182  18.845  0.00  0.00    +0.000 A 
ENDROOT
BRANCH   1   9
ATOM      8  C   UNL     1       1.726   2.962  21.568  0.00  0.00    +0.000 C 
ATOM      9  O   UNL     1       2.033   3.366  20.239  0.00  0.00    +0.000 OA
ENDBRANCH   1   9
BRANCH   3  10
ATOM     10  C   UNL     1       0.894   7.915  21.642  0.00  0.00    +0.000 C 
BRANCH  10  11
ATOM     11  N   UNL     1       1.407   9.283  21.567  0.00  0.00    +0.000 NA
ATOM     12  H   UNL     1       2.064   9.316  20.786  0.00  0.00    +0.000 HD
BRANCH  11  13
ATOM     13  C   UNL     1       0.373  10.325  21.338  0.00  0.00    +0.000 C 
ATOM     14  C   UNL     1      -0.488  10.529  22.600  0.00  0.00    +0.000 C 
ATOM     15  C   UNL     1       0.991  11.666  20.905  0.00  0.00    +0.000 C 
BRANCH  13  16
ATOM     16  C   UNL     1      -0.533   9.822  20.180  0.00  0.00    +0.000 C 
BRANCH  16  17
ATOM     17  O   UNL     1      -0.282  10.539  18.971  0.00  0.00    +0.000 OA
ATOM     18  H   UNL     1      -0.459   9.909  18.250  0.00  0.00    +0.000 HD
ENDBRANCH  16  17
ENDBRANCH  13  16
ENDBRANCH  11  13
ENDBRANCH  10  11
ENDBRANCH   3  10
BRANCH   7  19
ATOM     19  O   UNL     1       3.326   4.402  17.854  0.00  0.00    +0.000 OA
BRANCH  19  20
ATOM     20  C   UNL     1       4.724   4.134  17.971  0.00  0.00    +0.000 C 
BRANCH  20  21
ATOM     21  C   UNL     1       5.485   4.420  16.698  0.00  0.00    +0.000 A 
ATOM     22  C   UNL     1       4.924   4.137  15.441  0.00  0.00    +0.000 A 
ATOM     23  C   UNL     1       5.666   4.339  14.277  0.00  0.00    +0.000 A 
ATOM     24  C   UNL     1       6.973   4.815  14.359  0.00  0.00    +0.000 A 
ATOM     25 CL   UNL     1       7.885   5.060  12.924  0.00  0.00    +0.000 Cl
ATOM     26  C   UNL     1       7.549   5.090  15.593  0.00  0.00    +0.000 A 
ATOM     27  C   UNL     1       6.812   4.882  16.760  0.00  0.00    +0.000 A 
ATOM     28 CL   UNL     1       7.606   5.188  18.267  0.00  0.00    +0.000 Cl
ENDBRANCH  20  21
ENDBRANCH  19  20
ENDBRANCH   7  19
TORSDOF 9
ENDMDL
MODEL 5
REMARK VINA RESULT:      -6.3      1.049      1.788
REMARK  Name = 
REMARK  12 active torsions:
REMARK  status: ('A' for Active; 'I' for Inactive)
REMARK    1  A    between atoms: C_1  and  O_2
REMARK    2  A    between atoms: O_2  and  C_3
REMARK    3  A    between atoms: C_5  and  C_6
REMARK    4  A    between atoms: C_6  and  N_7
REMARK    5  A    between atoms: N_7  and  C_8
REMARK    6  A    between atoms: C_8  and  C_9
REMARK    7  A    between atoms: C_8  and  C_10
REMARK    8  A    between atoms: C_8  and  C_11
REMARK    9  A    between atoms: C_11  and  O_12
REMARK   10  A    between atoms: C_16  and  O_17
REMARK   11  A    between atoms: O_17  and  C_18
REMARK   12  A    between atoms: C_18  and  C_19
REMARK                            x       y       z     vdW  Elec       q    Type
REMARK                         _______ _______ _______ _____ _____    ______ ____
ROOT
ATOM      1  C   UNL     1       5.902   6.468  17.264  0.00  0.00    +0.000 A 
ATOM      2  C   UNL     1       6.577   6.002  16.134  0.00  0.00    +0.000 A 
ATOM      3  C   UNL     1       6.173   4.837  15.469  0.00  0.00    +0.000 A 
ATOM      4  C   UNL     1       5.105   4.104  15.987  0.00  0.00    +0.000 A 
ATOM      5  C   UNL     1       4.400   4.576  17.102  0.00  0.00    +0.000 A 
ATOM      6 BR   UNL     1       2.915   3.543  17.698  0.00  0.00    +0.000 Br
ATOM      7  C   UNL     1       4.764   5.782  17.734  0.00  0.00    +0.000 A 
ENDROOT
BRANCH   1   9
ATOM      8  C   UNL     1       7.625   8.065  17.627  0.00  0.00    +0.000 C 
ATOM      9  O   UNL     1       6.287   7.638  17.859  0.00  0.00    +0.000 OA
ENDBRANCH   1   9
BRANCH   3  10
ATOM     10  C   UNL     1       6.948   4.398  14.250  0.00  0.00    +0.000 C 
BRANCH  10  11
ATOM     11  N   UNL     1       6.358   3.219  13.617  0.00  0.00    +0.000 NA
ATOM     12  H   UNL     1       5.415   3.116  13.994  0.00  0.00    +0.000 HD
BRANCH  11  13
ATOM     13  C   UNL     1       6.252   3.294  12.137  0.00  0.00    +0.000 C 
ATOM     14  C   UNL     1       4.780   3.413  11.698  0.00  0.00    +0.000 C 
ATOM     15  C   UNL     1       7.066   4.465  11.559  0.00  0.00    +0.000 C 
BRANCH  13  16
ATOM     16  C   UNL     1       6.847   1.974  11.569  0.00  0.00    +0.000 C 
BRANCH  16  17
ATOM     17  O   UNL     1       5.852   0.956  11.462  0.00  0.00    +0.000 OA
ATOM     18  H   UNL     1       6.269   0.144  11.798  0.00  0.00    +0.000 HD
ENDBRANCH  16  17
ENDBRANCH  13  16
ENDBRANCH  11  13
ENDBRANCH  10  11
ENDBRANCH   3  10
BRANCH   7  19
ATOM     19  O   UNL     1       3.953   6.174  18.776  0.00  0.00    +0.000 OA
BRANCH  19  20
ATOM     20  C   UNL     1       2.569   6.350  18.468  0.00  0.00    +0.000 C 
BRANCH  20  21
ATOM     21  C   UNL     1       2.105   7.775  18.648  0.00  0.00    +0.000 A 
ATOM     22  C   UNL     1       2.349   8.745  17.661  0.00  0.00    +0.000 A 
ATOM     23  C   UNL     1       1.978  10.074  17.872  0.00  0.00    +0.000 A 
ATOM     24  C   UNL     1       1.371  10.445  19.070  0.00  0.00    +0.000 A 
ATOM     25 CL   UNL     1       0.919  12.082  19.328  0.00  0.00    +0.000 Cl
ATOM     26  C   UNL     1       1.132   9.502  20.063  0.00  0.00    +0.000 A 
ATOM     27  C   UNL     1       1.508   8.174  19.857  0.00  0.00    +0.000 A 
ATOM     28 CL   UNL     1       1.236   7.062  21.154  0.00  0.00    +0.000 Cl
ENDBRANCH  20  21
ENDBRANCH  19  20
ENDBRANCH   7  19
TORSDOF 9
ENDMDL
MODEL 6
REMARK VINA RESULT:      -6.3      3.099      4.864
REMARK  Name = 
REMARK  12 active torsions:
REMARK  status: ('A' for Active; 'I' for Inactive)
REMARK    1  A    between atoms: C_1  and  O_2
REMARK    2  A    between atoms: O_2  and  C_3
REMARK    3  A    between atoms: C_5  and  C_6
REMARK    4  A    between atoms: C_6  and  N_7
REMARK    5  A    between atoms: N_7  and  C_8
REMARK    6  A    between atoms: C_8  and  C_9
REMARK    7  A    between atoms: C_8  and  C_10
REMARK    8  A    between atoms: C_8  and  C_11
REMARK    9  A    between atoms: C_11  and  O_12
REMARK   10  A    between atoms: C_16  and  O_17
REMARK   11  A    between atoms: O_17  and  C_18
REMARK   12  A    between atoms: C_18  and  C_19
REMARK                            x       y       z     vdW  Elec       q    Type
REMARK                         _______ _______ _______ _____ _____    ______ ____
ROOT
ATOM      1  C   UNL     1       2.273   6.093  20.021  0.00  0.00    +0.000 A 
ATOM      2  C   UNL     1       2.919   5.314  19.058  0.00  0.00    +0.000 A 
ATOM      3  C   UNL     1       3.344   5.860  17.841  0.00  0.00    +0.000 A 
ATOM      4  C   UNL     1       3.062   7.200  17.570  0.00  0.00    +0.000 A 
ATOM      5  C   UNL     1       2.442   7.999  18.540  0.00  0.00    +0.000 A 
ATOM      6 BR   UNL     1       2.158   9.832  18.108  0.00  0.00    +0.000 Br
ATOM      7  C   UNL     1       2.072   7.469  19.791  0.00  0.00    +0.000 A 
ENDROOT
BRANCH   1   9
ATOM      8  C   UNL     1       2.162   4.150  21.387  0.00  0.00    +0.000 C 
ATOM      9  O   UNL     1       1.920   5.543  21.223  0.00  0.00    +0.000 OA
ENDBRANCH   1   9
BRANCH   3  10
ATOM     10  C   UNL     1       4.041   4.958  16.851  0.00  0.00    +0.000 C 
BRANCH  10  11
ATOM     11  N   UNL     1       5.129   5.643  16.153  0.00  0.00    +0.000 NA
ATOM     12  H   UNL     1       4.946   6.645  16.219  0.00  0.00    +0.000 HD
BRANCH  11  13
ATOM     13  C   UNL     1       6.483   5.389  16.708  0.00  0.00    +0.000 C 
ATOM     14  C   UNL     1       7.185   6.713  17.068  0.00  0.00    +0.000 C 
ATOM     15  C   UNL     1       6.437   4.471  17.942  0.00  0.00    +0.000 C 
BRANCH  13  16
ATOM     16  C   UNL     1       7.302   4.663  15.604  0.00  0.00    +0.000 C 
BRANCH  16  17
ATOM     17  O   UNL     1       7.732   5.572  14.590  0.00  0.00    +0.000 OA
ATOM     18  H   UNL     1       7.990   5.018  13.832  0.00  0.00    +0.000 HD
ENDBRANCH  16  17
ENDBRANCH  13  16
ENDBRANCH  11  13
ENDBRANCH  10  11
ENDBRANCH   3  10
BRANCH   7  19
ATOM     19  O   UNL     1       1.533   8.370  20.683  0.00  0.00    +0.000 OA
BRANCH  19  20
ATOM     20  C   UNL     1       0.109   8.382  20.785  0.00  0.00    +0.000 C 
BRANCH  20  21
ATOM     21  C   UNL     1      -0.453   9.769  20.985  0.00  0.00    +0.000 A 
ATOM     22  C   UNL     1      -0.866  10.547  19.890  0.00  0.00    +0.000 A 
ATOM     23  C   UNL     1      -1.316  11.853  20.083  0.00  0.00    +0.000 A 
ATOM     24  C   UNL     1      -1.348  12.395  21.367  0.00  0.00    +0.000 A 
ATOM     25 CL   UNL     1      -1.899  14.005  21.601  0.00  0.00    +0.000 Cl
ATOM     26  C   UNL     1      -0.933  11.646  22.461  0.00  0.00    +0.000 A 
ATOM     27  C   UNL     1      -0.476  10.341  22.270  0.00  0.00    +0.000 A 
ATOM     28 CL   UNL     1       0.081   9.482  23.665  0.00  0.00    +0.000 Cl
ENDBRANCH  20  21
ENDBRANCH  19  20
ENDBRANCH   7  19
TORSDOF 9
ENDMDL
MODEL 7
REMARK VINA RESULT:      -6.3      3.629      5.289
REMARK  Name = 
REMARK  12 active torsions:
REMARK  status: ('A' for Active; 'I' for Inactive)
REMARK    1  A    between atoms: C_1  and  O_2
REMARK    2  A    between atoms: O_2  and  C_3
REMARK    3  A    between atoms: C_5  and  C_6
REMARK    4  A    between atoms: C_6  and  N_7
REMARK    5  A    between atoms: N_7  and  C_8
REMARK    6  A    between atoms: C_8  and  C_9
REMARK    7  A    between atoms: C_8  and  C_10
REMARK    8  A    between atoms: C_8  and  C_11
REMARK    9  A    between atoms: C_11  and  O_12
REMARK   10  A    between atoms: C_16  and  O_17
REMARK   11  A    between atoms: O_17  and  C_18
REMARK   12  A    between atoms: C_18  and  C_19
REMARK                            x       y       z     vdW  Elec       q    Type
REMARK                         _______ _______ _______ _____ _____    ______ ____
ROOT
ATOM      1  C   UNL     1       2.214   6.895  19.933  0.00  0.00    +0.000 A 
ATOM      2  C   UNL     1       3.182   6.492  19.011  0.00  0.00    +0.000 A 
ATOM      3  C   UNL     1       3.453   7.243  17.860  0.00  0.00    +0.000 A 
ATOM      4  C   UNL     1       2.695   8.388  17.610  0.00  0.00    +0.000 A 
ATOM      5  C   UNL     1       1.742   8.819  18.542  0.00  0.00    +0.000 A 
ATOM      6 BR   UNL     1       0.802  10.428  18.149  0.00  0.00    +0.000 Br
ATOM      7  C   UNL     1       1.513   8.102  19.733  0.00  0.00    +0.000 A 
ENDROOT
BRANCH   1   9
ATOM      8  C   UNL     1       1.732   4.783  20.913  0.00  0.00    +0.000 C 
ATOM      9  O   UNL     1       2.011   6.170  21.075  0.00  0.00    +0.000 OA
ENDBRANCH   1   9
BRANCH   3  10
ATOM     10  C   UNL     1       4.518   6.748  16.912  0.00  0.00    +0.000 C 
BRANCH  10  11
ATOM     11  N   UNL     1       5.166   5.529  17.397  0.00  0.00    +0.000 NA
ATOM     12  H   UNL     1       5.101   4.837  16.649  0.00  0.00    +0.000 HD
BRANCH  11  13
ATOM     13  C   UNL     1       6.599   5.685  17.752  0.00  0.00    +0.000 C 
ATOM     14  C   UNL     1       7.115   7.080  17.352  0.00  0.00    +0.000 C 
ATOM     15  C   UNL     1       6.850   5.446  19.252  0.00  0.00    +0.000 C 
BRANCH  13  16
ATOM     16  C   UNL     1       7.387   4.604  16.959  0.00  0.00    +0.000 C 
BRANCH  16  17
ATOM     17  O   UNL     1       8.385   3.984  17.771  0.00  0.00    +0.000 OA
ATOM     18  H   UNL     1       9.022   3.591  17.150  0.00  0.00    +0.000 HD
ENDBRANCH  16  17
ENDBRANCH  13  16
ENDBRANCH  11  13
ENDBRANCH  10  11
ENDBRANCH   3  10
BRANCH   7  19
ATOM     19  O   UNL     1       0.601   8.663  20.599  0.00  0.00    +0.000 OA
BRANCH  19  20
ATOM     20  C   UNL     1       1.141   9.437  21.670  0.00  0.00    +0.000 C 
BRANCH  20  21
ATOM     21  C   UNL     1       0.207  10.529  22.135  0.00  0.00    +0.000 A 
ATOM     22  C   UNL     1      -0.906  10.233  22.940  0.00  0.00    +0.000 A 
ATOM     23  C   UNL     1      -1.801  11.241  23.302  0.00  0.00    +0.000 A 
ATOM     24  C   UNL     1      -1.596  12.546  22.857  0.00  0.00    +0.000 A 
ATOM     25 CL   UNL     1      -2.701  13.783  23.302  0.00  0.00    +0.000 Cl
ATOM     26  C   UNL     1      -0.507  12.855  22.051  0.00  0.00    +0.000 A 
ATOM     27  C   UNL     1       0.385  11.848  21.681  0.00  0.00    +0.000 A 
ATOM     28 CL   UNL     1       1.687  12.287  20.630  0.00  0.00    +0.000 Cl
ENDBRANCH  20  21
ENDBRANCH  19  20
ENDBRANCH   7  19
TORSDOF 9
ENDMDL
MODEL 8
REMARK VINA RESULT:      -6.3      4.094      8.803
REMARK  Name = 
REMARK  12 active torsions:
REMARK  status: ('A' for Active; 'I' for Inactive)
REMARK    1  A    between atoms: C_1  and  O_2
REMARK    2  A    between atoms: O_2  and  C_3
REMARK    3  A    between atoms: C_5  and  C_6
REMARK    4  A    between atoms: C_6  and  N_7
REMARK    5  A    between atoms: N_7  and  C_8
REMARK    6  A    between atoms: C_8  and  C_9
REMARK    7  A    between atoms: C_8  and  C_10
REMARK    8  A    between atoms: C_8  and  C_11
REMARK    9  A    between atoms: C_11  and  O_12
REMARK   10  A    between atoms: C_16  and  O_17
REMARK   11  A    between atoms: O_17  and  C_18
REMARK   12  A    between atoms: C_18  and  C_19
REMARK                            x       y       z     vdW  Elec       q    Type
REMARK                         _______ _______ _______ _____ _____    ______ ____
ROOT
ATOM      1  C   UNL     1       2.888   6.259  18.538  0.00  0.00    +0.000 A 
ATOM      2  C   UNL     1       2.318   7.351  19.195  0.00  0.00    +0.000 A 
ATOM      3  C   UNL     1       1.735   7.220  20.461  0.00  0.00    +0.000 A 
ATOM      4  C   UNL     1       1.680   5.955  21.048  0.00  0.00    +0.000 A 
ATOM      5  C   UNL     1       2.276   4.857  20.414  0.00  0.00    +0.000 A 
ATOM      6 BR   UNL     1       2.210   3.184  21.320  0.00  0.00    +0.000 Br
ATOM      7  C   UNL     1       2.920   4.999  19.169  0.00  0.00    +0.000 A 
ENDROOT
BRANCH   1   9
ATOM      8  C   UNL     1       4.302   7.595  17.171  0.00  0.00    +0.000 C 
ATOM      9  O   UNL     1       3.498   6.431  17.325  0.00  0.00    +0.000 OA
ENDBRANCH   1   9
BRANCH   3  10
ATOM     10  C   UNL     1       1.143   8.447  21.112  0.00  0.00    +0.000 C 
BRANCH  10  11
ATOM     11  N   UNL     1       0.905   9.522  20.150  0.00  0.00    +0.000 NA
ATOM     12  H   UNL     1       0.398   9.115  19.363  0.00  0.00    +0.000 HD
BRANCH  11  13
ATOM     13  C   UNL     1       0.104  10.659  20.670  0.00  0.00    +0.000 C 
ATOM     14  C   UNL     1      -1.027  11.026  19.690  0.00  0.00    +0.000 C 
ATOM     15  C   UNL     1      -0.487  10.360  22.059  0.00  0.00    +0.000 C 
BRANCH  13  16
ATOM     16  C   UNL     1       1.067  11.870  20.813  0.00  0.00    +0.000 C 
BRANCH  16  17
ATOM     17  O   UNL     1       0.437  13.089  20.417  0.00  0.00    +0.000 OA
ATOM     18  H   UNL     1       0.106  13.493  21.238  0.00  0.00    +0.000 HD
ENDBRANCH  16  17
ENDBRANCH  13  16
ENDBRANCH  11  13
ENDBRANCH  10  11
ENDBRANCH   3  10
BRANCH   7  19
ATOM     19  O   UNL     1       3.526   3.863  18.680  0.00  0.00    +0.000 OA
BRANCH  19  20
ATOM     20  C   UNL     1       4.953   3.838  18.726  0.00  0.00    +0.000 C 
BRANCH  20  21
ATOM     21  C   UNL     1       5.589   4.202  17.406  0.00  0.00    +0.000 A 
ATOM     22  C   UNL     1       5.064   3.723  16.194  0.00  0.00    +0.000 A 
ATOM     23  C   UNL     1       5.704   4.008  14.987  0.00  0.00    +0.000 A 
ATOM     24  C   UNL     1       6.875   4.764  14.982  0.00  0.00    +0.000 A 
ATOM     25 CL   UNL     1       7.662   5.110  13.495  0.00  0.00    +0.000 Cl
ATOM     26  C   UNL     1       7.416   5.237  16.172  0.00  0.00    +0.000 A 
ATOM     27  C   UNL     1       6.782   4.947  17.381  0.00  0.00    +0.000 A 
ATOM     28 CL   UNL     1       7.537   5.516  18.830  0.00  0.00    +0.000 Cl
ENDBRANCH  20  21
ENDBRANCH  19  20
ENDBRANCH   7  19
TORSDOF 9
ENDMDL
MODEL 9
REMARK VINA RESULT:      -6.2      5.583      8.974
REMARK  Name = 
REMARK  12 active torsions:
REMARK  status: ('A' for Active; 'I' for Inactive)
REMARK    1  A    between atoms: C_1  and  O_2
REMARK    2  A    between atoms: O_2  and  C_3
REMARK    3  A    between atoms: C_5  and  C_6
REMARK    4  A    between atoms: C_6  and  N_7
REMARK    5  A    between atoms: N_7  and  C_8
REMARK    6  A    between atoms: C_8  and  C_9
REMARK    7  A    between atoms: C_8  and  C_10
REMARK    8  A    between atoms: C_8  and  C_11
REMARK    9  A    between atoms: C_11  and  O_12
REMARK   10  A    between atoms: C_16  and  O_17
REMARK   11  A    between atoms: O_17  and  C_18
REMARK   12  A    between atoms: C_18  and  C_19
REMARK                            x       y       z     vdW  Elec       q    Type
REMARK                         _______ _______ _______ _____ _____    ______ ____
ROOT
ATOM      1  C   UNL     1       0.371   9.099  20.833  0.00  0.00    +0.000 A 
ATOM      2  C   UNL     1      -0.387  10.129  20.273  0.00  0.00    +0.000 A 
ATOM      3  C   UNL     1      -0.172  10.565  18.960  0.00  0.00    +0.000 A 
ATOM      4  C   UNL     1       0.862   9.989  18.221  0.00  0.00    +0.000 A 
ATOM      5  C   UNL     1       1.610   8.934  18.760  0.00  0.00    +0.000 A 
ATOM      6 BR   UNL     1       2.956   8.165  17.654  0.00  0.00    +0.000 Br
ATOM      7  C   UNL     1       1.353   8.449  20.057  0.00  0.00    +0.000 A 
ENDROOT
BRANCH   1   9
ATOM      8  C   UNL     1      -0.192   9.652  23.075  0.00  0.00    +0.000 C 
ATOM      9  O   UNL     1       0.100   8.658  22.099  0.00  0.00    +0.000 OA
ENDBRANCH   1   9
BRANCH   3  10
ATOM     10  C   UNL     1      -1.035  11.680  18.421  0.00  0.00    +0.000 C 
BRANCH  10  11
ATOM     11  N   UNL     1      -2.447  11.496  18.755  0.00  0.00    +0.000 NA
ATOM     12  H   UNL     1      -2.813  12.407  19.033  0.00  0.00    +0.000 HD
BRANCH  11  13
ATOM     13  C   UNL     1      -3.290  10.987  17.643  0.00  0.00    +0.000 C 
ATOM     14  C   UNL     1      -3.433   9.455  17.720  0.00  0.00    +0.000 C 
ATOM     15  C   UNL     1      -4.683  11.641  17.628  0.00  0.00    +0.000 C 
BRANCH  13  16
ATOM     16  C   UNL     1      -2.572  11.365  16.316  0.00  0.00    +0.000 C 
BRANCH  16  17
ATOM     17  O   UNL     1      -2.579  10.277  15.391  0.00  0.00    +0.000 OA
ATOM     18  H   UNL     1      -1.774   9.765  15.581  0.00  0.00    +0.000 HD
ENDBRANCH  16  17
ENDBRANCH  13  16
ENDBRANCH  11  13
ENDBRANCH  10  11
ENDBRANCH   3  10
BRANCH   7  19
ATOM     19  O   UNL     1       2.109   7.366  20.447  0.00  0.00    +0.000 OA
BRANCH  19  20
ATOM     20  C   UNL     1       1.412   6.128  20.590  0.00  0.00    +0.000 C 
BRANCH  20  21
ATOM     21  C   UNL     1       2.041   5.005  19.802  0.00  0.00    +0.000 A 
ATOM     22  C   UNL     1       2.195   5.098  18.408  0.00  0.00    +0.000 A 
ATOM     23  C   UNL     1       2.712   4.024  17.683  0.00  0.00    +0.000 A 
ATOM     24  C   UNL     1       3.070   2.848  18.341  0.00  0.00    +0.000 A 
ATOM     25 CL   UNL     1       3.703   1.527  17.444  0.00  0.00    +0.000 Cl
ATOM     26  C   UNL     1       2.914   2.733  19.717  0.00  0.00    +0.000 A 
ATOM     27  C   UNL     1       2.391   3.803  20.443  0.00  0.00    +0.000 A 
ATOM     28 CL   UNL     1       2.169   3.575  22.145  0.00  0.00    +0.000 Cl
ENDBRANCH  20  21
ENDBRANCH  19  20
ENDBRANCH   7  19
TORSDOF 9
ENDMDL
