MODEL 1
REMARK VINA RESULT:      -7.6      0.000      0.000
REMARK  Name = 
REMARK  6 active torsions:
REMARK  status: ('A' for Active; 'I' for Inactive)
REMARK    1  A    between atoms: C_1  and  N_2
REMARK    2  A    between atoms: N_2  and  C_3
REMARK    3  A    between atoms: C_10  and  O_11
REMARK    4  A    between atoms: C_12  and  C_13
REMARK    5  A    between atoms: N_15  and  C_16
REMARK    6  A    between atoms: C_16  and  C_17
REMARK                            x       y       z     vdW  Elec       q    Type
REMARK                         _______ _______ _______ _____ _____    ______ ____
ROOT
ATOM      1  C   UNL     1      -1.847  11.483  18.651  0.00  0.00    +0.000 A 
ATOM      2  C   UNL     1      -2.589  12.503  19.116  0.00  0.00    +0.000 A 
ATOM      3  C   UNL     1      -2.521  12.931  20.485  0.00  0.00    +0.000 A 
ATOM      4  C   UNL     1      -1.727  12.290  21.344  0.00  0.00    +0.000 A 
ATOM      5  N   UNL     1      -0.906  11.244  20.942  0.00  0.00    +0.000 N 
ATOM      6  C   UNL     1      -0.106  10.638  21.886  0.00  0.00    +0.000 A 
ATOM      7  O   UNL     1      -0.105  10.881  23.096  0.00  0.00    +0.000 OA
ATOM      8  C   UNL     1       0.859   9.630  21.395  0.00  0.00    +0.000 A 
ATOM      9  C   UNL     1       0.846   9.339  20.085  0.00  0.00    +0.000 A 
ATOM     10  N   UNL     1      -0.043   9.896  19.177  0.00  0.00    +0.000 NA
ATOM     11  C   UNL     1      -0.866  10.813  19.620  0.00  0.00    +0.000 A 
ENDROOT
BRANCH   9  12
ATOM     12  C   UNL     1       1.895   8.363  19.564  0.00  0.00    +0.000 C 
ATOM     13  O   UNL     1       2.517   8.502  18.518  0.00  0.00    +0.000 OA
ATOM     14  N   UNL     1       2.074   7.265  20.377  0.00  0.00    +0.000 N 
ATOM     15  H   UNL     1       1.532   7.222  21.229  0.00  0.00    +0.000 HD
BRANCH  14  16
ATOM     16  C   UNL     1       2.986   6.198  20.032  0.00  0.00    +0.000 C 
BRANCH  16  17
ATOM     17  C   UNL     1       2.238   4.955  19.627  0.00  0.00    +0.000 A 
ATOM     18  C   UNL     1       1.665   4.116  20.598  0.00  0.00    +0.000 A 
ATOM     19  C   UNL     1       1.007   2.946  20.217  0.00  0.00    +0.000 A 
ATOM     20  C   UNL     1       0.922   2.612  18.871  0.00  0.00    +0.000 A 
ATOM     21  F   UNL     1       0.300   1.481  18.511  0.00  0.00    +0.000 F 
ATOM     22  C   UNL     1       1.474   3.432  17.894  0.00  0.00    +0.000 A 
ATOM     23  C   UNL     1       2.135   4.602  18.272  0.00  0.00    +0.000 A 
ENDBRANCH  16  17
ENDBRANCH  14  16
ENDBRANCH   9  12
BRANCH   1  25
ATOM     24  C   UNL     1      -2.841   9.977  16.897  0.00  0.00    +0.000 C 
ATOM     25  N   UNL     1      -1.901  10.974  17.360  0.00  0.00    +0.000 N 
ATOM     26  H   UNL     1      -1.662  11.692  16.675  0.00  0.00    +0.000 HD
ENDBRANCH   1  25
BRANCH   8  27
ATOM     27  O   UNL     1       1.715   9.095  22.342  0.00  0.00    +0.000 OA
ATOM     28  H   UNL     1       1.249   9.181  23.202  0.00  0.00    +0.000 HD
ENDBRANCH   8  27
TORSDOF 5
ENDMDL
MODEL 2
REMARK VINA RESULT:      -7.6      0.652      1.162
REMARK  Name = 
REMARK  6 active torsions:
REMARK  status: ('A' for Active; 'I' for Inactive)
REMARK    1  A    between atoms: C_1  and  N_2
REMARK    2  A    between atoms: N_2  and  C_3
REMARK    3  A    between atoms: C_10  and  O_11
REMARK    4  A    between atoms: C_12  and  C_13
REMARK    5  A    between atoms: N_15  and  C_16
REMARK    6  A    between atoms: C_16  and  C_17
REMARK                            x       y       z     vdW  Elec       q    Type
REMARK                         _______ _______ _______ _____ _____    ______ ____
ROOT
ATOM      1  C   UNL     1      -2.543  11.726  18.979  0.00  0.00    +0.000 A 
ATOM      2  C   UNL     1      -3.338  12.632  19.573  0.00  0.00    +0.000 A 
ATOM      3  C   UNL     1      -3.185  12.989  20.956  0.00  0.00    +0.000 A 
ATOM      4  C   UNL     1      -2.251  12.391  21.697  0.00  0.00    +0.000 A 
ATOM      5  N   UNL     1      -1.368  11.464  21.157  0.00  0.00    +0.000 N 
ATOM      6  C   UNL     1      -0.424  10.898  21.985  0.00  0.00    +0.000 A 
ATOM      7  O   UNL     1      -0.333  11.072  23.203  0.00  0.00    +0.000 OA
ATOM      8  C   UNL     1       0.589  10.029  21.346  0.00  0.00    +0.000 A 
ATOM      9  C   UNL     1       0.481   9.811  20.026  0.00  0.00    +0.000 A 
ATOM     10  N   UNL     1      -0.542  10.318  19.238  0.00  0.00    +0.000 NA
ATOM     11  C   UNL     1      -1.410  11.115  19.811  0.00  0.00    +0.000 A 
ENDROOT
BRANCH   9  12
ATOM     12  C   UNL     1       1.571   8.986  19.352  0.00  0.00    +0.000 C 
ATOM     13  O   UNL     1       2.141   9.299  18.313  0.00  0.00    +0.000 OA
ATOM     14  N   UNL     1       1.854   7.809  20.011  0.00  0.00    +0.000 N 
ATOM     15  H   UNL     1       1.351   7.621  20.866  0.00  0.00    +0.000 HD
BRANCH  14  16
ATOM     16  C   UNL     1       2.820   6.861  19.503  0.00  0.00    +0.000 C 
BRANCH  16  17
ATOM     17  C   UNL     1       2.190   5.510  19.283  0.00  0.00    +0.000 A 
ATOM     18  C   UNL     1       2.169   4.931  18.004  0.00  0.00    +0.000 A 
ATOM     19  C   UNL     1       1.549   3.697  17.801  0.00  0.00    +0.000 A 
ATOM     20  C   UNL     1       0.952   3.043  18.872  0.00  0.00    +0.000 A 
ATOM     21  F   UNL     1       0.347   1.864  18.669  0.00  0.00    +0.000 F 
ATOM     22  C   UNL     1       0.970   3.595  20.147  0.00  0.00    +0.000 A 
ATOM     23  C   UNL     1       1.586   4.830  20.353  0.00  0.00    +0.000 A 
ENDBRANCH  16  17
ENDBRANCH  14  16
ENDBRANCH   9  12
BRANCH   1  25
ATOM     24  C   UNL     1      -3.394  10.108  17.250  0.00  0.00    +0.000 C 
ATOM     25  N   UNL     1      -2.667  11.286  17.668  0.00  0.00    +0.000 N 
ATOM     26  H   UNL     1      -2.716  12.075  17.022  0.00  0.00    +0.000 HD
ENDBRANCH   1  25
BRANCH   8  27
ATOM     27  O   UNL     1       1.581   9.539  22.177  0.00  0.00    +0.000 OA
ATOM     28  H   UNL     1       1.126   9.247  22.995  0.00  0.00    +0.000 HD
ENDBRANCH   8  27
TORSDOF 5
ENDMDL
MODEL 3
REMARK VINA RESULT:      -7.5      4.193      8.407
REMARK  Name = 
REMARK  6 active torsions:
REMARK  status: ('A' for Active; 'I' for Inactive)
REMARK    1  A    between atoms: C_1  and  N_2
REMARK    2  A    between atoms: N_2  and  C_3
REMARK    3  A    between atoms: C_10  and  O_11
REMARK    4  A    between atoms: C_12  and  C_13
REMARK    5  A    between atoms: N_15  and  C_16
REMARK    6  A    between atoms: C_16  and  C_17
REMARK                            x       y       z     vdW  Elec       q    Type
REMARK                         _______ _______ _______ _____ _____    ______ ____
ROOT
ATOM      1  C   UNL     1       6.032   6.054  16.709  0.00  0.00    +0.000 A 
ATOM      2  C   UNL     1       6.585   5.508  15.612  0.00  0.00    +0.000 A 
ATOM      3  C   UNL     1       6.278   4.170  15.191  0.00  0.00    +0.000 A 
ATOM      4  C   UNL     1       5.447   3.419  15.915  0.00  0.00    +0.000 A 
ATOM      5  N   UNL     1       4.811   3.913  17.047  0.00  0.00    +0.000 N 
ATOM      6  C   UNL     1       3.958   3.079  17.736  0.00  0.00    +0.000 A 
ATOM      7  O   UNL     1       3.760   1.886  17.492  0.00  0.00    +0.000 OA
ATOM      8  C   UNL     1       3.187   3.682  18.847  0.00  0.00    +0.000 A 
ATOM      9  C   UNL     1       3.417   4.972  19.137  0.00  0.00    +0.000 A 
ATOM     10  N   UNL     1       4.357   5.758  18.485  0.00  0.00    +0.000 NA
ATOM     11  C   UNL     1       5.004   5.220  17.481  0.00  0.00    +0.000 A 
ENDROOT
BRANCH   9  12
ATOM     12  C   UNL     1       2.564   5.617  20.224  0.00  0.00    +0.000 C 
ATOM     13  O   UNL     1       2.067   5.017  21.168  0.00  0.00    +0.000 OA
ATOM     14  N   UNL     1       2.370   6.969  20.036  0.00  0.00    +0.000 N 
ATOM     15  H   UNL     1       2.818   7.399  19.240  0.00  0.00    +0.000 HD
BRANCH  14  16
ATOM     16  C   UNL     1       1.546   7.754  20.928  0.00  0.00    +0.000 C 
BRANCH  16  17
ATOM     17  C   UNL     1       0.996   8.970  20.230  0.00  0.00    +0.000 A 
ATOM     18  C   UNL     1       1.377   9.271  18.912  0.00  0.00    +0.000 A 
ATOM     19  C   UNL     1       0.894  10.421  18.285  0.00  0.00    +0.000 A 
ATOM     20  C   UNL     1       0.033  11.268  18.972  0.00  0.00    +0.000 A 
ATOM     21  F   UNL     1      -0.418  12.377  18.371  0.00  0.00    +0.000 F 
ATOM     22  C   UNL     1      -0.363  10.984  20.273  0.00  0.00    +0.000 A 
ATOM     23  C   UNL     1       0.120   9.837  20.904  0.00  0.00    +0.000 A 
ENDBRANCH  16  17
ENDBRANCH  14  16
ENDBRANCH   9  12
BRANCH   1  25
ATOM     24  C   UNL     1       7.645   7.793  17.550  0.00  0.00    +0.000 C 
ATOM     25  N   UNL     1       6.323   7.316  17.211  0.00  0.00    +0.000 N 
ATOM     26  H   UNL     1       5.700   8.020  16.812  0.00  0.00    +0.000 HD
ENDBRANCH   1  25
BRANCH   8  27
ATOM     27  O   UNL     1       2.271   2.854  19.471  0.00  0.00    +0.000 OA
ATOM     28  H   UNL     1       1.940   3.357  20.246  0.00  0.00    +0.000 HD
ENDBRANCH   8  27
TORSDOF 5
ENDMDL
MODEL 4
REMARK VINA RESULT:      -7.5      4.123      8.289
REMARK  Name = 
REMARK  6 active torsions:
REMARK  status: ('A' for Active; 'I' for Inactive)
REMARK    1  A    between atoms: C_1  and  N_2
REMARK    2  A    between atoms: N_2  and  C_3
REMARK    3  A    between atoms: C_10  and  O_11
REMARK    4  A    between atoms: C_12  and  C_13
REMARK    5  A    between atoms: N_15  and  C_16
REMARK    6  A    between atoms: C_16  and  C_17
REMARK                            x       y       z     vdW  Elec       q    Type
REMARK                         _______ _______ _______ _____ _____    ______ ____
ROOT
ATOM      1  C   UNL     1       6.150   6.104  17.003  0.00  0.00    +0.000 A 
ATOM      2  C   UNL     1       6.778   5.580  15.937  0.00  0.00    +0.000 A 
ATOM      3  C   UNL     1       6.467   4.268  15.440  0.00  0.00    +0.000 A 
ATOM      4  C   UNL     1       5.554   3.521  16.062  0.00  0.00    +0.000 A 
ATOM      5  N   UNL     1       4.838   3.996  17.153  0.00  0.00    +0.000 N 
ATOM      6  C   UNL     1       3.903   3.168  17.735  0.00  0.00    +0.000 A 
ATOM      7  O   UNL     1       3.690   1.991  17.429  0.00  0.00    +0.000 OA
ATOM      8  C   UNL     1       3.059   3.757  18.798  0.00  0.00    +0.000 A 
ATOM      9  C   UNL     1       3.302   5.027  19.156  0.00  0.00    +0.000 A 
ATOM     10  N   UNL     1       4.319   5.803  18.618  0.00  0.00    +0.000 NA
ATOM     11  C   UNL     1       5.034   5.279  17.653  0.00  0.00    +0.000 A 
ENDROOT
BRANCH   9  12
ATOM     12  C   UNL     1       2.380   5.662  20.191  0.00  0.00    +0.000 C 
ATOM     13  O   UNL     1       1.647   5.037  20.948  0.00  0.00    +0.000 OA
ATOM     14  N   UNL     1       2.418   7.039  20.186  0.00  0.00    +0.000 N 
ATOM     15  H   UNL     1       3.052   7.486  19.540  0.00  0.00    +0.000 HD
BRANCH  14  16
ATOM     16  C   UNL     1       1.576   7.830  21.056  0.00  0.00    +0.000 C 
BRANCH  16  17
ATOM     17  C   UNL     1       0.905   8.944  20.295  0.00  0.00    +0.000 A 
ATOM     18  C   UNL     1      -0.136   9.684  20.879  0.00  0.00    +0.000 A 
ATOM     19  C   UNL     1      -0.780  10.688  20.154  0.00  0.00    +0.000 A 
ATOM     20  C   UNL     1      -0.385  10.952  18.848  0.00  0.00    +0.000 A 
ATOM     21  F   UNL     1      -1.014  11.909  18.151  0.00  0.00    +0.000 F 
ATOM     22  C   UNL     1       0.649  10.239  18.254  0.00  0.00    +0.000 A 
ATOM     23  C   UNL     1       1.292   9.232  18.976  0.00  0.00    +0.000 A 
ENDBRANCH  16  17
ENDBRANCH  14  16
ENDBRANCH   9  12
BRANCH   1  25
ATOM     24  C   UNL     1       7.721   7.997  17.534  0.00  0.00    +0.000 C 
ATOM     25  N   UNL     1       6.435   7.337  17.576  0.00  0.00    +0.000 N 
ATOM     26  H   UNL     1       5.628   7.960  17.522  0.00  0.00    +0.000 HD
ENDBRANCH   1  25
BRANCH   8  27
ATOM     27  O   UNL     1       2.067   2.939  19.310  0.00  0.00    +0.000 OA
ATOM     28  H   UNL     1       1.629   2.530  18.533  0.00  0.00    +0.000 HD
ENDBRANCH   8  27
TORSDOF 5
ENDMDL
MODEL 5
REMARK VINA RESULT:      -7.5      1.533      2.179
REMARK  Name = 
REMARK  6 active torsions:
REMARK  status: ('A' for Active; 'I' for Inactive)
REMARK    1  A    between atoms: C_1  and  N_2
REMARK    2  A    between atoms: N_2  and  C_3
REMARK    3  A    between atoms: C_10  and  O_11
REMARK    4  A    between atoms: C_12  and  C_13
REMARK    5  A    between atoms: N_15  and  C_16
REMARK    6  A    between atoms: C_16  and  C_17
REMARK                            x       y       z     vdW  Elec       q    Type
REMARK                         _______ _______ _______ _____ _____    ______ ____
ROOT
ATOM      1  C   UNL     1      -3.183  10.638  16.889  0.00  0.00    +0.000 A 
ATOM      2  C   UNL     1      -4.217  11.466  17.114  0.00  0.00    +0.000 A 
ATOM      3  C   UNL     1      -4.299  12.277  18.296  0.00  0.00    +0.000 A 
ATOM      4  C   UNL     1      -3.345  12.196  19.225  0.00  0.00    +0.000 A 
ATOM      5  N   UNL     1      -2.228  11.387  19.061  0.00  0.00    +0.000 N 
ATOM      6  C   UNL     1      -1.280  11.366  20.060  0.00  0.00    +0.000 A 
ATOM      7  O   UNL     1      -1.364  11.941  21.148  0.00  0.00    +0.000 OA
ATOM      8  C   UNL     1      -0.038  10.609  19.786  0.00  0.00    +0.000 A 
ATOM      9  C   UNL     1       0.050   9.957  18.617  0.00  0.00    +0.000 A 
ATOM     10  N   UNL     1      -0.965   9.918  17.672  0.00  0.00    +0.000 NA
ATOM     11  C   UNL     1      -2.043  10.622  17.913  0.00  0.00    +0.000 A 
ENDROOT
BRANCH   9  12
ATOM     12  C   UNL     1       1.362   9.248  18.298  0.00  0.00    +0.000 C 
ATOM     13  O   UNL     1       2.127   9.570  17.397  0.00  0.00    +0.000 OA
ATOM     14  N   UNL     1       1.611   8.164  19.112  0.00  0.00    +0.000 N 
ATOM     15  H   UNL     1       0.939   7.963  19.840  0.00  0.00    +0.000 HD
BRANCH  14  16
ATOM     16  C   UNL     1       2.776   7.327  18.937  0.00  0.00    +0.000 C 
BRANCH  16  17
ATOM     17  C   UNL     1       2.416   5.868  19.037  0.00  0.00    +0.000 A 
ATOM     18  C   UNL     1       2.271   5.086  17.880  0.00  0.00    +0.000 A 
ATOM     19  C   UNL     1       1.899   3.744  17.979  0.00  0.00    +0.000 A 
ATOM     20  C   UNL     1       1.671   3.185  19.230  0.00  0.00    +0.000 A 
ATOM     21  F   UNL     1       1.301   1.900  19.320  0.00  0.00    +0.000 F 
ATOM     22  C   UNL     1       1.817   3.939  20.388  0.00  0.00    +0.000 A 
ATOM     23  C   UNL     1       2.187   5.281  20.292  0.00  0.00    +0.000 A 
ENDBRANCH  16  17
ENDBRANCH  14  16
ENDBRANCH   9  12
BRANCH   1  25
ATOM     24  C   UNL     1      -3.225  10.165  14.417  0.00  0.00    +0.000 C 
ATOM     25  N   UNL     1      -3.062   9.782  15.802  0.00  0.00    +0.000 N 
ATOM     26  H   UNL     1      -2.345   9.075  15.972  0.00  0.00    +0.000 HD
ENDBRANCH   1  25
BRANCH   8  27
ATOM     27  O   UNL     1       0.939  10.670  20.764  0.00  0.00    +0.000 OA
ATOM     28  H   UNL     1       1.076  11.625  20.947  0.00  0.00    +0.000 HD
ENDBRANCH   8  27
TORSDOF 5
ENDMDL
MODEL 6
REMARK VINA RESULT:      -7.3      5.248      7.967
REMARK  Name = 
REMARK  6 active torsions:
REMARK  status: ('A' for Active; 'I' for Inactive)
REMARK    1  A    between atoms: C_1  and  N_2
REMARK    2  A    between atoms: N_2  and  C_3
REMARK    3  A    between atoms: C_10  and  O_11
REMARK    4  A    between atoms: C_12  and  C_13
REMARK    5  A    between atoms: N_15  and  C_16
REMARK    6  A    between atoms: C_16  and  C_17
REMARK                            x       y       z     vdW  Elec       q    Type
REMARK                         _______ _______ _______ _____ _____    ______ ____
ROOT
ATOM      1  C   UNL     1       3.700   2.856  20.241  0.00  0.00    +0.000 A 
ATOM      2  C   UNL     1       2.654   2.550  21.028  0.00  0.00    +0.000 A 
ATOM      3  C   UNL     1       1.595   3.485  21.283  0.00  0.00    +0.000 A 
ATOM      4  C   UNL     1       1.648   4.710  20.758  0.00  0.00    +0.000 A 
ATOM      5  N   UNL     1       2.678   5.100  19.911  0.00  0.00    +0.000 N 
ATOM      6  C   UNL     1       2.658   6.379  19.399  0.00  0.00    +0.000 A 
ATOM      7  O   UNL     1       1.844   7.260  19.688  0.00  0.00    +0.000 OA
ATOM      8  C   UNL     1       3.687   6.710  18.389  0.00  0.00    +0.000 A 
ATOM      9  C   UNL     1       4.594   5.767  18.090  0.00  0.00    +0.000 A 
ATOM     10  N   UNL     1       4.645   4.521  18.698  0.00  0.00    +0.000 NA
ATOM     11  C   UNL     1       3.706   4.230  19.563  0.00  0.00    +0.000 A 
ENDROOT
BRANCH   9  12
ATOM     12  C   UNL     1       5.602   6.077  16.989  0.00  0.00    +0.000 C 
ATOM     13  O   UNL     1       5.898   7.203  16.610  0.00  0.00    +0.000 OA
ATOM     14  N   UNL     1       6.151   4.949  16.416  0.00  0.00    +0.000 N 
ATOM     15  H   UNL     1       5.866   4.053  16.785  0.00  0.00    +0.000 HD
BRANCH  14  16
ATOM     16  C   UNL     1       7.088   5.028  15.319  0.00  0.00    +0.000 C 
BRANCH  16  17
ATOM     17  C   UNL     1       6.521   4.394  14.075  0.00  0.00    +0.000 A 
ATOM     18  C   UNL     1       5.196   3.929  14.049  0.00  0.00    +0.000 A 
ATOM     19  C   UNL     1       4.691   3.307  12.906  0.00  0.00    +0.000 A 
ATOM     20  C   UNL     1       5.506   3.149  11.792  0.00  0.00    +0.000 A 
ATOM     21  F   UNL     1       5.020   2.540  10.702  0.00  0.00    +0.000 F 
ATOM     22  C   UNL     1       6.817   3.609  11.794  0.00  0.00    +0.000 A 
ATOM     23  C   UNL     1       7.327   4.228  12.936  0.00  0.00    +0.000 A 
ENDBRANCH  16  17
ENDBRANCH  14  16
ENDBRANCH   9  12
BRANCH   1  25
ATOM     24  C   UNL     1       5.277   1.007  20.894  0.00  0.00    +0.000 C 
ATOM     25  N   UNL     1       4.788   2.029  19.995  0.00  0.00    +0.000 N 
ATOM     26  H   UNL     1       4.855   1.798  19.003  0.00  0.00    +0.000 HD
ENDBRANCH   1  25
BRANCH   8  27
ATOM     27  O   UNL     1       3.598   7.969  17.821  0.00  0.00    +0.000 OA
ATOM     28  H   UNL     1       4.292   8.509  18.257  0.00  0.00    +0.000 HD
ENDBRANCH   8  27
TORSDOF 5
ENDMDL
MODEL 7
REMARK VINA RESULT:      -7.3      2.993      7.997
REMARK  Name = 
REMARK  6 active torsions:
REMARK  status: ('A' for Active; 'I' for Inactive)
REMARK    1  A    between atoms: C_1  and  N_2
REMARK    2  A    between atoms: N_2  and  C_3
REMARK    3  A    between atoms: C_10  and  O_11
REMARK    4  A    between atoms: C_12  and  C_13
REMARK    5  A    between atoms: N_15  and  C_16
REMARK    6  A    between atoms: C_16  and  C_17
REMARK                            x       y       z     vdW  Elec       q    Type
REMARK                         _______ _______ _______ _____ _____    ______ ____
ROOT
ATOM      1  C   UNL     1       2.049   2.987  19.440  0.00  0.00    +0.000 A 
ATOM      2  C   UNL     1       2.708   1.955  18.884  0.00  0.00    +0.000 A 
ATOM      3  C   UNL     1       3.717   2.149  17.880  0.00  0.00    +0.000 A 
ATOM      4  C   UNL     1       3.999   3.380  17.450  0.00  0.00    +0.000 A 
ATOM      5  N   UNL     1       3.386   4.504  17.990  0.00  0.00    +0.000 N 
ATOM      6  C   UNL     1       3.739   5.742  17.501  0.00  0.00    +0.000 A 
ATOM      7  O   UNL     1       4.501   5.955  16.554  0.00  0.00    +0.000 OA
ATOM      8  C   UNL     1       3.176   6.920  18.198  0.00  0.00    +0.000 A 
ATOM      9  C   UNL     1       2.325   6.698  19.210  0.00  0.00    +0.000 A 
ATOM     10  N   UNL     1       1.913   5.436  19.614  0.00  0.00    +0.000 NA
ATOM     11  C   UNL     1       2.447   4.403  19.012  0.00  0.00    +0.000 A 
ENDROOT
BRANCH   9  12
ATOM     12  C   UNL     1       1.811   7.908  19.983  0.00  0.00    +0.000 C 
ATOM     13  O   UNL     1       1.798   8.001  21.204  0.00  0.00    +0.000 OA
ATOM     14  N   UNL     1       1.321   8.908  19.172  0.00  0.00    +0.000 N 
ATOM     15  H   UNL     1       1.372   8.766  18.173  0.00  0.00    +0.000 HD
BRANCH  14  16
ATOM     16  C   UNL     1       0.739  10.116  19.713  0.00  0.00    +0.000 C 
BRANCH  16  17
ATOM     17  C   UNL     1      -0.534  10.475  18.992  0.00  0.00    +0.000 A 
ATOM     18  C   UNL     1      -0.854   9.874  17.763  0.00  0.00    +0.000 A 
ATOM     19  C   UNL     1      -2.016  10.241  17.082  0.00  0.00    +0.000 A 
ATOM     20  C   UNL     1      -2.856  11.205  17.626  0.00  0.00    +0.000 A 
ATOM     21  F   UNL     1      -3.964  11.563  16.962  0.00  0.00    +0.000 F 
ATOM     22  C   UNL     1      -2.563  11.805  18.844  0.00  0.00    +0.000 A 
ATOM     23  C   UNL     1      -1.400  11.443  19.526  0.00  0.00    +0.000 A 
ENDBRANCH  16  17
ENDBRANCH  14  16
ENDBRANCH   9  12
BRANCH   1  25
ATOM     24  C   UNL     1       1.206   2.682  21.791  0.00  0.00    +0.000 C 
ATOM     25  N   UNL     1       1.024   2.876  20.370  0.00  0.00    +0.000 N 
ATOM     26  H   UNL     1       0.234   3.469  20.114  0.00  0.00    +0.000 HD
ENDBRANCH   1  25
BRANCH   8  27
ATOM     27  O   UNL     1       3.610   8.156  17.750  0.00  0.00    +0.000 OA
ATOM     28  H   UNL     1       4.104   8.554  18.498  0.00  0.00    +0.000 HD
ENDBRANCH   8  27
TORSDOF 5
ENDMDL
MODEL 8
REMARK VINA RESULT:      -7.3      2.844      7.799
REMARK  Name = 
REMARK  6 active torsions:
REMARK  status: ('A' for Active; 'I' for Inactive)
REMARK    1  A    between atoms: C_1  and  N_2
REMARK    2  A    between atoms: N_2  and  C_3
REMARK    3  A    between atoms: C_10  and  O_11
REMARK    4  A    between atoms: C_12  and  C_13
REMARK    5  A    between atoms: N_15  and  C_16
REMARK    6  A    between atoms: C_16  and  C_17
REMARK                            x       y       z     vdW  Elec       q    Type
REMARK                         _______ _______ _______ _____ _____    ______ ____
ROOT
ATOM      1  C   UNL     1       2.959   4.072  20.190  0.00  0.00    +0.000 A 
ATOM      2  C   UNL     1       3.852   3.178  19.732  0.00  0.00    +0.000 A 
ATOM      3  C   UNL     1       4.694   3.455  18.601  0.00  0.00    +0.000 A 
ATOM      4  C   UNL     1       4.576   4.615  17.954  0.00  0.00    +0.000 A 
ATOM      5  N   UNL     1       3.698   5.605  18.376  0.00  0.00    +0.000 N 
ATOM      6  C   UNL     1       3.642   6.781  17.661  0.00  0.00    +0.000 A 
ATOM      7  O   UNL     1       4.247   7.018  16.611  0.00  0.00    +0.000 OA
ATOM      8  C   UNL     1       2.807   7.866  18.222  0.00  0.00    +0.000 A 
ATOM      9  C   UNL     1       2.124   7.607  19.348  0.00  0.00    +0.000 A 
ATOM     10  N   UNL     1       2.125   6.377  19.990  0.00  0.00    +0.000 NA
ATOM     11  C   UNL     1       2.897   5.439  19.501  0.00  0.00    +0.000 A 
ENDROOT
BRANCH   9  12
ATOM     12  C   UNL     1       1.330   8.749  19.974  0.00  0.00    +0.000 C 
ATOM     13  O   UNL     1       1.264   8.975  21.176  0.00  0.00    +0.000 OA
ATOM     14  N   UNL     1       0.650   9.513  19.051  0.00  0.00    +0.000 N 
ATOM     15  H   UNL     1       0.759   9.273  18.076  0.00  0.00    +0.000 HD
BRANCH  14  16
ATOM     16  C   UNL     1      -0.203  10.611  19.447  0.00  0.00    +0.000 C 
BRANCH  16  17
ATOM     17  C   UNL     1      -1.402  10.719  18.542  0.00  0.00    +0.000 A 
ATOM     18  C   UNL     1      -2.486  11.545  18.886  0.00  0.00    +0.000 A 
ATOM     19  C   UNL     1      -3.610  11.610  18.061  0.00  0.00    +0.000 A 
ATOM     20  C   UNL     1      -3.654  10.852  16.897  0.00  0.00    +0.000 A 
ATOM     21  F   UNL     1      -4.741  10.908  16.116  0.00  0.00    +0.000 F 
ATOM     22  C   UNL     1      -2.590  10.036  16.534  0.00  0.00    +0.000 A 
ATOM     23  C   UNL     1      -1.465   9.967  17.358  0.00  0.00    +0.000 A 
ENDBRANCH  16  17
ENDBRANCH  14  16
ENDBRANCH   9  12
BRANCH   1  25
ATOM     24  C   UNL     1       1.475   2.582  21.573  0.00  0.00    +0.000 C 
ATOM     25  N   UNL     1       2.072   3.855  21.237  0.00  0.00    +0.000 N 
ATOM     26  H   UNL     1       2.299   4.449  22.036  0.00  0.00    +0.000 HD
ENDBRANCH   1  25
BRANCH   8  27
ATOM     27  O   UNL     1       2.831   9.068  17.539  0.00  0.00    +0.000 OA
ATOM     28  H   UNL     1       3.163   8.859  16.639  0.00  0.00    +0.000 HD
ENDBRANCH   8  27
TORSDOF 5
ENDMDL
MODEL 9
REMARK VINA RESULT:      -7.3      5.691      8.654
REMARK  Name = 
REMARK  6 active torsions:
REMARK  status: ('A' for Active; 'I' for Inactive)
REMARK    1  A    between atoms: C_1  and  N_2
REMARK    2  A    between atoms: N_2  and  C_3
REMARK    3  A    between atoms: C_10  and  O_11
REMARK    4  A    between atoms: C_12  and  C_13
REMARK    5  A    between atoms: N_15  and  C_16
REMARK    6  A    between atoms: C_16  and  C_17
REMARK                            x       y       z     vdW  Elec       q    Type
REMARK                         _______ _______ _______ _____ _____    ______ ____
ROOT
ATOM      1  C   UNL     1       3.956   3.465  19.655  0.00  0.00    +0.000 A 
ATOM      2  C   UNL     1       2.855   3.687  20.394  0.00  0.00    +0.000 A 
ATOM      3  C   UNL     1       2.065   4.877  20.243  0.00  0.00    +0.000 A 
ATOM      4  C   UNL     1       2.437   5.816  19.372  0.00  0.00    +0.000 A 
ATOM      5  N   UNL     1       3.545   5.656  18.550  0.00  0.00    +0.000 N 
ATOM      6  C   UNL     1       3.859   6.666  17.668  0.00  0.00    +0.000 A 
ATOM      7  O   UNL     1       3.291   7.759  17.589  0.00  0.00    +0.000 OA
ATOM      8  C   UNL     1       4.954   6.399  16.709  0.00  0.00    +0.000 A 
ATOM      9  C   UNL     1       5.595   5.224  16.805  0.00  0.00    +0.000 A 
ATOM     10  N   UNL     1       5.318   4.267  17.771  0.00  0.00    +0.000 NA
ATOM     11  C   UNL     1       4.323   4.503  18.589  0.00  0.00    +0.000 A 
ENDROOT
BRANCH   9  12
ATOM     12  C   UNL     1       6.666   4.913  15.765  0.00  0.00    +0.000 C 
ATOM     13  O   UNL     1       7.780   4.473  16.022  0.00  0.00    +0.000 OA
ATOM     14  N   UNL     1       6.276   5.202  14.475  0.00  0.00    +0.000 N 
ATOM     15  H   UNL     1       5.339   5.554  14.338  0.00  0.00    +0.000 HD
BRANCH  14  16
ATOM     16  C   UNL     1       7.167   5.028  13.350  0.00  0.00    +0.000 C 
BRANCH  16  17
ATOM     17  C   UNL     1       6.789   3.814  12.542  0.00  0.00    +0.000 A 
ATOM     18  C   UNL     1       5.449   3.407  12.446  0.00  0.00    +0.000 A 
ATOM     19  C   UNL     1       5.111   2.259  11.728  0.00  0.00    +0.000 A 
ATOM     20  C   UNL     1       6.110   1.518  11.108  0.00  0.00    +0.000 A 
ATOM     21  F   UNL     1       5.782   0.409  10.430  0.00  0.00    +0.000 F 
ATOM     22  C   UNL     1       7.441   1.907  11.183  0.00  0.00    +0.000 A 
ATOM     23  C   UNL     1       7.782   3.053  11.903  0.00  0.00    +0.000 A 
ENDBRANCH  16  17
ENDBRANCH  14  16
ENDBRANCH   9  12
BRANCH   1  25
ATOM     24  C   UNL     1       4.510   1.034  19.318  0.00  0.00    +0.000 C 
ATOM     25  N   UNL     1       4.802   2.371  19.784  0.00  0.00    +0.000 N 
ATOM     26  H   UNL     1       5.779   2.653  19.699  0.00  0.00    +0.000 HD
ENDBRANCH   1  25
BRANCH   8  27
ATOM     27  O   UNL     1       5.197   7.389  15.774  0.00  0.00    +0.000 OA
ATOM     28  H   UNL     1       5.567   6.931  14.988  0.00  0.00    +0.000 HD
ENDBRANCH   8  27
TORSDOF 5
ENDMDL
