MODEL 1
REMARK VINA RESULT:      -7.6      0.000      0.000
REMARK  Name = 
REMARK  8 active torsions:
REMARK  status: ('A' for Active; 'I' for Inactive)
REMARK    1  A    between atoms: C_1  and  N_2
REMARK    2  A    between atoms: N_2  and  C_3
REMARK    3  A    between atoms: C_6  and  C_7
REMARK    4  A    between atoms: C_8  and  C_9
REMARK    5  A    between atoms: C_10  and  C_11
REMARK    6  A    between atoms: C_12  and  C_13
REMARK    7  A    between atoms: C_16  and  N_17
REMARK    8  A    between atoms: N_17  and  C_18
REMARK                            x       y       z     vdW  Elec       q    Type
REMARK                         _______ _______ _______ _____ _____    ______ ____
ROOT
ATOM      1  C   UNL     1       8.196   8.287  18.229  0.00  0.00    +0.000 C 
ATOM      2  C   UNL     1       7.208   7.996  17.365  0.00  0.00    +0.000 C 
ENDROOT
BRANCH   1   4
ATOM      3  C   UNL     1       9.188  10.323  19.193  0.00  0.00    +0.000 C 
ATOM      4  C   UNL     1       8.962   9.513  18.145  0.00  0.00    +0.000 C 
BRANCH   3   8
ATOM      5  C   UNL     1      11.302  14.084  19.005  0.00  0.00    +0.000 A 
ATOM      6  C   UNL     1      11.479  13.187  20.065  0.00  0.00    +0.000 A 
ATOM      7  C   UNL     1      10.816  11.953  20.100  0.00  0.00    +0.000 A 
ATOM      8  C   UNL     1       9.913  11.599  19.094  0.00  0.00    +0.000 A 
ATOM      9  C   UNL     1       9.737  12.487  18.027  0.00  0.00    +0.000 A 
ATOM     10  C   UNL     1      10.406  13.719  17.997  0.00  0.00    +0.000 A 
BRANCH   5  12
ATOM     11  C   UNL     1      11.600  16.325  18.051  0.00  0.00    +0.000 C 
ATOM     12  N   UNL     1      11.911  15.341  19.073  0.00  0.00    +0.000 N 
ATOM     13  H   UNL     1      12.909  15.271  19.258  0.00  0.00    +0.000 HD
ENDBRANCH   5  12
ENDBRANCH   3   8
ENDBRANCH   1   4
BRANCH   2  14
ATOM     14  C   UNL     1       6.399   6.802  17.466  0.00  0.00    +0.000 C 
ATOM     15  C   UNL     1       5.083   6.787  17.203  0.00  0.00    +0.000 C 
BRANCH  15  16
ATOM     16  C   UNL     1       4.292   5.568  17.366  0.00  0.00    +0.000 A 
ATOM     17  C   UNL     1       2.979   5.644  17.830  0.00  0.00    +0.000 A 
ATOM     18  C   UNL     1       2.231   4.476  18.023  0.00  0.00    +0.000 A 
ATOM     19  C   UNL     1       2.760   3.210  17.731  0.00  0.00    +0.000 A 
ATOM     20  C   UNL     1       4.086   3.151  17.293  0.00  0.00    +0.000 A 
ATOM     21  C   UNL     1       4.847   4.315  17.104  0.00  0.00    +0.000 A 
BRANCH  19  22
ATOM     22  N   UNL     1       2.000   2.076  18.030  0.00  0.00    +0.000 N 
ATOM     23  C   UNL     1       0.819   2.182  18.871  0.00  0.00    +0.000 C 
ATOM     24  H   UNL     1       2.583   1.290  18.307  0.00  0.00    +0.000 HD
ENDBRANCH  19  22
ENDBRANCH  15  16
ENDBRANCH   2  14
TORSDOF 6
ENDMDL
MODEL 2
REMARK VINA RESULT:      -7.6      1.023      1.177
REMARK  Name = 
REMARK  8 active torsions:
REMARK  status: ('A' for Active; 'I' for Inactive)
REMARK    1  A    between atoms: C_1  and  N_2
REMARK    2  A    between atoms: N_2  and  C_3
REMARK    3  A    between atoms: C_6  and  C_7
REMARK    4  A    between atoms: C_8  and  C_9
REMARK    5  A    between atoms: C_10  and  C_11
REMARK    6  A    between atoms: C_12  and  C_13
REMARK    7  A    between atoms: C_16  and  N_17
REMARK    8  A    between atoms: N_17  and  C_18
REMARK                            x       y       z     vdW  Elec       q    Type
REMARK                         _______ _______ _______ _____ _____    ______ ____
ROOT
ATOM      1  C   UNL     1       7.743   8.438  17.832  0.00  0.00    +0.000 C 
ATOM      2  C   UNL     1       8.071   7.265  18.400  0.00  0.00    +0.000 C 
ENDROOT
BRANCH   1   4
ATOM      3  C   UNL     1       8.997  10.266  18.902  0.00  0.00    +0.000 C 
ATOM      4  C   UNL     1       8.650   9.567  17.808  0.00  0.00    +0.000 C 
BRANCH   3   8
ATOM      5  C   UNL     1      11.557  13.744  18.906  0.00  0.00    +0.000 A 
ATOM      6  C   UNL     1      11.741  12.688  19.807  0.00  0.00    +0.000 A 
ATOM      7  C   UNL     1      10.927  11.548  19.776  0.00  0.00    +0.000 A 
ATOM      8  C   UNL     1       9.869  11.451  18.867  0.00  0.00    +0.000 A 
ATOM      9  C   UNL     1       9.685  12.498  17.958  0.00  0.00    +0.000 A 
ATOM     10  C   UNL     1      10.505  13.636  17.994  0.00  0.00    +0.000 A 
BRANCH   5  12
ATOM     11  C   UNL     1      11.918  15.907  20.007  0.00  0.00    +0.000 C 
ATOM     12  N   UNL     1      12.333  14.899  19.049  0.00  0.00    +0.000 N 
ATOM     13  H   UNL     1      12.593  15.297  18.149  0.00  0.00    +0.000 HD
ENDBRANCH   5  12
ENDBRANCH   3   8
ENDBRANCH   1   4
BRANCH   2  14
ATOM     14  C   UNL     1       7.198   6.113  18.387  0.00  0.00    +0.000 C 
ATOM     15  C   UNL     1       5.893   6.187  18.083  0.00  0.00    +0.000 C 
BRANCH  15  16
ATOM     16  C   UNL     1       5.035   5.004  18.130  0.00  0.00    +0.000 A 
ATOM     17  C   UNL     1       4.269   4.651  17.020  0.00  0.00    +0.000 A 
ATOM     18  C   UNL     1       3.418   3.541  17.074  0.00  0.00    +0.000 A 
ATOM     19  C   UNL     1       3.331   2.740  18.222  0.00  0.00    +0.000 A 
ATOM     20  C   UNL     1       4.084   3.124  19.336  0.00  0.00    +0.000 A 
ATOM     21  C   UNL     1       4.935   4.240  19.293  0.00  0.00    +0.000 A 
BRANCH  19  22
ATOM     22  N   UNL     1       2.397   1.700  18.251  0.00  0.00    +0.000 N 
ATOM     23  C   UNL     1       1.075   1.915  18.817  0.00  0.00    +0.000 C 
ATOM     24  H   UNL     1       2.806   0.830  18.583  0.00  0.00    +0.000 HD
ENDBRANCH  19  22
ENDBRANCH  15  16
ENDBRANCH   2  14
TORSDOF 6
ENDMDL
MODEL 3
REMARK VINA RESULT:      -7.5      1.156      1.449
REMARK  Name = 
REMARK  8 active torsions:
REMARK  status: ('A' for Active; 'I' for Inactive)
REMARK    1  A    between atoms: C_1  and  N_2
REMARK    2  A    between atoms: N_2  and  C_3
REMARK    3  A    between atoms: C_6  and  C_7
REMARK    4  A    between atoms: C_8  and  C_9
REMARK    5  A    between atoms: C_10  and  C_11
REMARK    6  A    between atoms: C_12  and  C_13
REMARK    7  A    between atoms: C_16  and  N_17
REMARK    8  A    between atoms: N_17  and  C_18
REMARK                            x       y       z     vdW  Elec       q    Type
REMARK                         _______ _______ _______ _____ _____    ______ ____
ROOT
ATOM      1  C   UNL     1       7.874   8.505  18.115  0.00  0.00    +0.000 C 
ATOM      2  C   UNL     1       7.654   7.523  17.225  0.00  0.00    +0.000 C 
ENDROOT
BRANCH   1   4
ATOM      3  C   UNL     1       9.171  10.507  18.724  0.00  0.00    +0.000 C 
ATOM      4  C   UNL     1       8.665   9.676  17.797  0.00  0.00    +0.000 C 
BRANCH   3   8
ATOM      5  C   UNL     1      11.284  14.140  17.730  0.00  0.00    +0.000 A 
ATOM      6  C   UNL     1      10.007  14.159  18.305  0.00  0.00    +0.000 A 
ATOM      7  C   UNL     1       9.344  12.976  18.656  0.00  0.00    +0.000 A 
ATOM      8  C   UNL     1       9.922  11.730  18.398  0.00  0.00    +0.000 A 
ATOM      9  C   UNL     1      11.200  11.703  17.831  0.00  0.00    +0.000 A 
ATOM     10  C   UNL     1      11.860  12.891  17.484  0.00  0.00    +0.000 A 
BRANCH   5  12
ATOM     11  C   UNL     1      10.985  16.397  16.814  0.00  0.00    +0.000 C 
ATOM     12  N   UNL     1      11.855  15.344  17.308  0.00  0.00    +0.000 N 
ATOM     13  H   UNL     1      12.665  15.193  16.710  0.00  0.00    +0.000 HD
ENDBRANCH   5  12
ENDBRANCH   3   8
ENDBRANCH   1   4
BRANCH   2  14
ATOM     14  C   UNL     1       6.824   6.374  17.508  0.00  0.00    +0.000 C 
ATOM     15  C   UNL     1       5.484   6.435  17.558  0.00  0.00    +0.000 C 
BRANCH  15  16
ATOM     16  C   UNL     1       4.684   5.258  17.898  0.00  0.00    +0.000 A 
ATOM     17  C   UNL     1       4.164   4.452  16.887  0.00  0.00    +0.000 A 
ATOM     18  C   UNL     1       3.366   3.346  17.207  0.00  0.00    +0.000 A 
ATOM     19  C   UNL     1       3.093   3.001  18.539  0.00  0.00    +0.000 A 
ATOM     20  C   UNL     1       3.599   3.837  19.539  0.00  0.00    +0.000 A 
ATOM     21  C   UNL     1       4.393   4.951  19.227  0.00  0.00    +0.000 A 
BRANCH  19  22
ATOM     22  N   UNL     1       2.216   1.943  18.796  0.00  0.00    +0.000 N 
ATOM     23  C   UNL     1       0.782   2.176  18.862  0.00  0.00    +0.000 C 
ATOM     24  H   UNL     1       2.533   1.365  19.570  0.00  0.00    +0.000 HD
ENDBRANCH  19  22
ENDBRANCH  15  16
ENDBRANCH   2  14
TORSDOF 6
ENDMDL
MODEL 4
REMARK VINA RESULT:      -7.5      1.581     11.305
REMARK  Name = 
REMARK  8 active torsions:
REMARK  status: ('A' for Active; 'I' for Inactive)
REMARK    1  A    between atoms: C_1  and  N_2
REMARK    2  A    between atoms: N_2  and  C_3
REMARK    3  A    between atoms: C_6  and  C_7
REMARK    4  A    between atoms: C_8  and  C_9
REMARK    5  A    between atoms: C_10  and  C_11
REMARK    6  A    between atoms: C_12  and  C_13
REMARK    7  A    between atoms: C_16  and  N_17
REMARK    8  A    between atoms: N_17  and  C_18
REMARK                            x       y       z     vdW  Elec       q    Type
REMARK                         _______ _______ _______ _____ _____    ______ ____
ROOT
ATOM      1  C   UNL     1       8.214   8.854  17.737  0.00  0.00    +0.000 C 
ATOM      2  C   UNL     1       8.865   9.533  18.697  0.00  0.00    +0.000 C 
ENDROOT
BRANCH   1   4
ATOM      3  C   UNL     1       6.536   7.116  17.263  0.00  0.00    +0.000 C 
ATOM      4  C   UNL     1       7.563   7.585  17.992  0.00  0.00    +0.000 C 
BRANCH   3   8
ATOM      5  C   UNL     1       4.398   3.454  18.080  0.00  0.00    +0.000 A 
ATOM      6  C   UNL     1       4.392   4.048  16.812  0.00  0.00    +0.000 A 
ATOM      7  C   UNL     1       5.117   5.218  16.548  0.00  0.00    +0.000 A 
ATOM      8  C   UNL     1       5.835   5.857  17.562  0.00  0.00    +0.000 A 
ATOM      9  C   UNL     1       5.853   5.264  18.828  0.00  0.00    +0.000 A 
ATOM     10  C   UNL     1       5.127   4.092  19.086  0.00  0.00    +0.000 A 
BRANCH   5  12
ATOM     11  C   UNL     1       2.189   2.402  17.891  0.00  0.00    +0.000 C 
ATOM     12  N   UNL     1       3.577   2.346  18.312  0.00  0.00    +0.000 N 
ATOM     13  H   UNL     1       3.685   1.983  19.257  0.00  0.00    +0.000 HD
ENDBRANCH   5  12
ENDBRANCH   3   8
ENDBRANCH   1   4
BRANCH   2  14
ATOM     14  C   UNL     1       9.475  10.824  18.473  0.00  0.00    +0.000 C 
ATOM     15  C   UNL     1       8.791  11.886  18.018  0.00  0.00    +0.000 C 
BRANCH  15  16
ATOM     16  C   UNL     1       9.458  13.161  17.757  0.00  0.00    +0.000 A 
ATOM     17  C   UNL     1       8.817  14.360  18.068  0.00  0.00    +0.000 A 
ATOM     18  C   UNL     1       9.436  15.585  17.786  0.00  0.00    +0.000 A 
ATOM     19  C   UNL     1      10.716  15.644  17.216  0.00  0.00    +0.000 A 
ATOM     20  C   UNL     1      11.332  14.432  16.884  0.00  0.00    +0.000 A 
ATOM     21  C   UNL     1      10.716  13.201  17.157  0.00  0.00    +0.000 A 
BRANCH  19  22
ATOM     22  N   UNL     1      11.245  16.891  16.872  0.00  0.00    +0.000 N 
ATOM     23  C   UNL     1      11.691  17.811  17.906  0.00  0.00    +0.000 C 
ATOM     24  H   UNL     1      10.678  17.365  16.173  0.00  0.00    +0.000 HD
ENDBRANCH  19  22
ENDBRANCH  15  16
ENDBRANCH   2  14
TORSDOF 6
ENDMDL
MODEL 5
REMARK VINA RESULT:      -7.5      0.578     11.381
REMARK  Name = 
REMARK  8 active torsions:
REMARK  status: ('A' for Active; 'I' for Inactive)
REMARK    1  A    between atoms: C_1  and  N_2
REMARK    2  A    between atoms: N_2  and  C_3
REMARK    3  A    between atoms: C_6  and  C_7
REMARK    4  A    between atoms: C_8  and  C_9
REMARK    5  A    between atoms: C_10  and  C_11
REMARK    6  A    between atoms: C_12  and  C_13
REMARK    7  A    between atoms: C_16  and  N_17
REMARK    8  A    between atoms: N_17  and  C_18
REMARK                            x       y       z     vdW  Elec       q    Type
REMARK                         _______ _______ _______ _____ _____    ______ ____
ROOT
ATOM      1  C   UNL     1       7.509   7.876  17.327  0.00  0.00    +0.000 C 
ATOM      2  C   UNL     1       8.148   8.389  18.392  0.00  0.00    +0.000 C 
ENDROOT
BRANCH   1   4
ATOM      3  C   UNL     1       5.347   6.703  17.221  0.00  0.00    +0.000 C 
ATOM      4  C   UNL     1       6.677   6.694  17.419  0.00  0.00    +0.000 C 
BRANCH   3   8
ATOM      5  C   UNL     1       2.842   3.231  17.782  0.00  0.00    +0.000 A 
ATOM      6  C   UNL     1       2.645   4.412  18.509  0.00  0.00    +0.000 A 
ATOM      7  C   UNL     1       3.441   5.545  18.295  0.00  0.00    +0.000 A 
ATOM      8  C   UNL     1       4.494   5.515  17.376  0.00  0.00    +0.000 A 
ATOM      9  C   UNL     1       4.691   4.342  16.640  0.00  0.00    +0.000 A 
ATOM     10  C   UNL     1       3.889   3.211  16.857  0.00  0.00    +0.000 A 
BRANCH   5  12
ATOM     11  C   UNL     1       0.833   2.279  18.823  0.00  0.00    +0.000 C 
ATOM     12  N   UNL     1       2.085   2.101  18.108  0.00  0.00    +0.000 N 
ATOM     13  H   UNL     1       2.659   1.359  18.502  0.00  0.00    +0.000 HD
ENDBRANCH   5  12
ENDBRANCH   3   8
ENDBRANCH   1   4
BRANCH   2  14
ATOM     14  C   UNL     1       8.941   9.597  18.328  0.00  0.00    +0.000 C 
ATOM     15  C   UNL     1       9.335  10.270  19.420  0.00  0.00    +0.000 C 
BRANCH  15  16
ATOM     16  C   UNL     1      10.094  11.516  19.309  0.00  0.00    +0.000 A 
ATOM     17  C   UNL     1      11.476  11.510  19.488  0.00  0.00    +0.000 A 
ATOM     18  C   UNL     1      12.202  12.706  19.421  0.00  0.00    +0.000 A 
ATOM     19  C   UNL     1      11.573  13.929  19.144  0.00  0.00    +0.000 A 
ATOM     20  C   UNL     1      10.183  13.921  18.996  0.00  0.00    +0.000 A 
ATOM     21  C   UNL     1       9.447  12.728  19.069  0.00  0.00    +0.000 A 
BRANCH  19  22
ATOM     22  N   UNL     1      12.333  15.102  19.180  0.00  0.00    +0.000 N 
ATOM     23  C   UNL     1      12.297  16.035  18.066  0.00  0.00    +0.000 C 
ATOM     24  H   UNL     1      13.286  14.928  19.488  0.00  0.00    +0.000 HD
ENDBRANCH  19  22
ENDBRANCH  15  16
ENDBRANCH   2  14
TORSDOF 6
ENDMDL
MODEL 6
REMARK VINA RESULT:      -7.5      1.178     11.361
REMARK  Name = 
REMARK  8 active torsions:
REMARK  status: ('A' for Active; 'I' for Inactive)
REMARK    1  A    between atoms: C_1  and  N_2
REMARK    2  A    between atoms: N_2  and  C_3
REMARK    3  A    between atoms: C_6  and  C_7
REMARK    4  A    between atoms: C_8  and  C_9
REMARK    5  A    between atoms: C_10  and  C_11
REMARK    6  A    between atoms: C_12  and  C_13
REMARK    7  A    between atoms: C_16  and  N_17
REMARK    8  A    between atoms: N_17  and  C_18
REMARK                            x       y       z     vdW  Elec       q    Type
REMARK                         _______ _______ _______ _____ _____    ______ ____
ROOT
ATOM      1  C   UNL     1       7.605   7.746  17.556  0.00  0.00    +0.000 C 
ATOM      2  C   UNL     1       8.324   8.456  18.442  0.00  0.00    +0.000 C 
ENDROOT
BRANCH   1   4
ATOM      3  C   UNL     1       5.857   6.050  17.196  0.00  0.00    +0.000 C 
ATOM      4  C   UNL     1       6.853   6.567  17.936  0.00  0.00    +0.000 C 
BRANCH   3   8
ATOM      5  C   UNL     1       3.410   2.694  18.379  0.00  0.00    +0.000 A 
ATOM      6  C   UNL     1       3.240   3.337  17.147  0.00  0.00    +0.000 A 
ATOM      7  C   UNL     1       4.061   4.402  16.757  0.00  0.00    +0.000 A 
ATOM      8  C   UNL     1       5.053   4.890  17.613  0.00  0.00    +0.000 A 
ATOM      9  C   UNL     1       5.234   4.248  18.842  0.00  0.00    +0.000 A 
ATOM     10  C   UNL     1       4.410   3.180  19.226  0.00  0.00    +0.000 A 
BRANCH   5  12
ATOM     11  C   UNL     1       1.109   2.073  18.966  0.00  0.00    +0.000 C 
ATOM     12  N   UNL     1       2.498   1.704  18.759  0.00  0.00    +0.000 N 
ATOM     13  H   UNL     1       2.863   1.116  19.505  0.00  0.00    +0.000 HD
ENDBRANCH   5  12
ENDBRANCH   3   8
ENDBRANCH   1   4
BRANCH   2  14
ATOM     14  C   UNL     1       9.037   9.663  18.090  0.00  0.00    +0.000 C 
ATOM     15  C   UNL     1       9.222  10.678  18.948  0.00  0.00    +0.000 C 
BRANCH  15  16
ATOM     16  C   UNL     1       9.907  11.903  18.537  0.00  0.00    +0.000 A 
ATOM     17  C   UNL     1       9.483  13.138  19.025  0.00  0.00    +0.000 A 
ATOM     18  C   UNL     1      10.112  14.317  18.605  0.00  0.00    +0.000 A 
ATOM     19  C   UNL     1      11.194  14.291  17.713  0.00  0.00    +0.000 A 
ATOM     20  C   UNL     1      11.588  13.047  17.212  0.00  0.00    +0.000 A 
ATOM     21  C   UNL     1      10.959  11.861  17.622  0.00  0.00    +0.000 A 
BRANCH  19  22
ATOM     22  N   UNL     1      11.722  15.503  17.258  0.00  0.00    +0.000 N 
ATOM     23  C   UNL     1      10.839  16.578  16.836  0.00  0.00    +0.000 C 
ATOM     24  H   UNL     1      12.479  15.362  16.593  0.00  0.00    +0.000 HD
ENDBRANCH  19  22
ENDBRANCH  15  16
ENDBRANCH   2  14
TORSDOF 6
ENDMDL
MODEL 7
REMARK VINA RESULT:      -7.4      1.579     11.301
REMARK  Name = 
REMARK  8 active torsions:
REMARK  status: ('A' for Active; 'I' for Inactive)
REMARK    1  A    between atoms: C_1  and  N_2
REMARK    2  A    between atoms: N_2  and  C_3
REMARK    3  A    between atoms: C_6  and  C_7
REMARK    4  A    between atoms: C_8  and  C_9
REMARK    5  A    between atoms: C_10  and  C_11
REMARK    6  A    between atoms: C_12  and  C_13
REMARK    7  A    between atoms: C_16  and  N_17
REMARK    8  A    between atoms: N_17  and  C_18
REMARK                            x       y       z     vdW  Elec       q    Type
REMARK                         _______ _______ _______ _____ _____    ______ ____
ROOT
ATOM      1  C   UNL     1       8.210   8.834  17.595  0.00  0.00    +0.000 C 
ATOM      2  C   UNL     1       8.702   9.505  18.651  0.00  0.00    +0.000 C 
ENDROOT
BRANCH   1   4
ATOM      3  C   UNL     1       6.344   7.241  17.397  0.00  0.00    +0.000 C 
ATOM      4  C   UNL     1       7.618   7.518  17.721  0.00  0.00    +0.000 C 
BRANCH   3   8
ATOM      5  C   UNL     1       4.462   3.383  17.869  0.00  0.00    +0.000 A 
ATOM      6  C   UNL     1       4.677   3.952  16.608  0.00  0.00    +0.000 A 
ATOM      7  C   UNL     1       5.320   5.189  16.463  0.00  0.00    +0.000 A 
ATOM      8  C   UNL     1       5.726   5.918  17.584  0.00  0.00    +0.000 A 
ATOM      9  C   UNL     1       5.523   5.351  18.846  0.00  0.00    +0.000 A 
ATOM     10  C   UNL     1       4.881   4.112  18.985  0.00  0.00    +0.000 A 
BRANCH   5  12
ATOM     11  C   UNL     1       2.280   2.273  18.037  0.00  0.00    +0.000 C 
ATOM     12  N   UNL     1       3.727   2.196  17.959  0.00  0.00    +0.000 N 
ATOM     13  H   UNL     1       4.123   1.554  18.643  0.00  0.00    +0.000 HD
ENDBRANCH   5  12
ENDBRANCH   3   8
ENDBRANCH   1   4
BRANCH   2  14
ATOM     14  C   UNL     1       9.247  10.839  18.552  0.00  0.00    +0.000 C 
ATOM     15  C   UNL     1       8.708  11.793  17.777  0.00  0.00    +0.000 C 
BRANCH  15  16
ATOM     16  C   UNL     1       9.321  13.117  17.667  0.00  0.00    +0.000 A 
ATOM     17  C   UNL     1      10.625  13.246  17.190  0.00  0.00    +0.000 A 
ATOM     18  C   UNL     1      11.229  14.507  17.118  0.00  0.00    +0.000 A 
ATOM     19  C   UNL     1      10.540  15.671  17.491  0.00  0.00    +0.000 A 
ATOM     20  C   UNL     1       9.244  15.520  17.995  0.00  0.00    +0.000 A 
ATOM     21  C   UNL     1       8.634  14.259  18.077  0.00  0.00    +0.000 A 
BRANCH  19  22
ATOM     22  N   UNL     1      11.223  16.890  17.486  0.00  0.00    +0.000 N 
ATOM     23  C   UNL     1      10.498  18.140  17.652  0.00  0.00    +0.000 C 
ATOM     24  H   UNL     1      11.892  16.949  16.722  0.00  0.00    +0.000 HD
ENDBRANCH  19  22
ENDBRANCH  15  16
ENDBRANCH   2  14
TORSDOF 6
ENDMDL
MODEL 8
REMARK VINA RESULT:      -7.4      1.717      2.375
REMARK  Name = 
REMARK  8 active torsions:
REMARK  status: ('A' for Active; 'I' for Inactive)
REMARK    1  A    between atoms: C_1  and  N_2
REMARK    2  A    between atoms: N_2  and  C_3
REMARK    3  A    between atoms: C_6  and  C_7
REMARK    4  A    between atoms: C_8  and  C_9
REMARK    5  A    between atoms: C_10  and  C_11
REMARK    6  A    between atoms: C_12  and  C_13
REMARK    7  A    between atoms: C_16  and  N_17
REMARK    8  A    between atoms: N_17  and  C_18
REMARK                            x       y       z     vdW  Elec       q    Type
REMARK                         _______ _______ _______ _____ _____    ______ ____
ROOT
ATOM      1  C   UNL     1       8.911   9.669  18.664  0.00  0.00    +0.000 C 
ATOM      2  C   UNL     1       8.232   9.045  17.686  0.00  0.00    +0.000 C 
ENDROOT
BRANCH   1   4
ATOM      3  C   UNL     1       8.797  12.048  18.039  0.00  0.00    +0.000 C 
ATOM      4  C   UNL     1       9.489  10.985  18.487  0.00  0.00    +0.000 C 
BRANCH   3   8
ATOM      5  C   UNL     1      10.476  15.956  17.293  0.00  0.00    +0.000 A 
ATOM      6  C   UNL     1       9.154  15.787  17.720  0.00  0.00    +0.000 A 
ATOM      7  C   UNL     1       8.628  14.517  17.993  0.00  0.00    +0.000 A 
ATOM      8  C   UNL     1       9.400  13.369  17.801  0.00  0.00    +0.000 A 
ATOM      9  C   UNL     1      10.725  13.530  17.382  0.00  0.00    +0.000 A 
ATOM     10  C   UNL     1      11.246  14.804  17.113  0.00  0.00    +0.000 A 
BRANCH   5  12
ATOM     11  C   UNL     1      10.949  18.271  17.956  0.00  0.00    +0.000 C 
ATOM     12  N   UNL     1      10.916  17.235  16.939  0.00  0.00    +0.000 N 
ATOM     13  H   UNL     1      10.496  17.555  16.068  0.00  0.00    +0.000 HD
ENDBRANCH   5  12
ENDBRANCH   3   8
ENDBRANCH   1   4
BRANCH   2  14
ATOM     14  C   UNL     1       7.604   7.755  17.863  0.00  0.00    +0.000 C 
ATOM     15  C   UNL     1       6.553   7.348  17.134  0.00  0.00    +0.000 C 
BRANCH  15  16
ATOM     16  C   UNL     1       5.917   6.054  17.378  0.00  0.00    +0.000 A 
ATOM     17  C   UNL     1       5.270   5.386  16.339  0.00  0.00    +0.000 A 
ATOM     18  C   UNL     1       4.627   4.165  16.578  0.00  0.00    +0.000 A 
ATOM     19  C   UNL     1       4.637   3.568  17.847  0.00  0.00    +0.000 A 
ATOM     20  C   UNL     1       5.265   4.265  18.883  0.00  0.00    +0.000 A 
ATOM     21  C   UNL     1       5.906   5.493  18.655  0.00  0.00    +0.000 A 
BRANCH  19  22
ATOM     22  N   UNL     1       3.901   2.396  18.047  0.00  0.00    +0.000 N 
ATOM     23  C   UNL     1       3.458   2.026  19.382  0.00  0.00    +0.000 C 
ATOM     24  H   UNL     1       4.308   1.603  17.558  0.00  0.00    +0.000 HD
ENDBRANCH  19  22
ENDBRANCH  15  16
ENDBRANCH   2  14
TORSDOF 6
ENDMDL
MODEL 9
REMARK VINA RESULT:      -7.2      1.125     11.375
REMARK  Name = 
REMARK  8 active torsions:
REMARK  status: ('A' for Active; 'I' for Inactive)
REMARK    1  A    between atoms: C_1  and  N_2
REMARK    2  A    between atoms: N_2  and  C_3
REMARK    3  A    between atoms: C_6  and  C_7
REMARK    4  A    between atoms: C_8  and  C_9
REMARK    5  A    between atoms: C_10  and  C_11
REMARK    6  A    between atoms: C_12  and  C_13
REMARK    7  A    between atoms: C_16  and  N_17
REMARK    8  A    between atoms: N_17  and  C_18
REMARK                            x       y       z     vdW  Elec       q    Type
REMARK                         _______ _______ _______ _____ _____    ______ ____
ROOT
ATOM      1  C   UNL     1       7.968   8.402  17.625  0.00  0.00    +0.000 C 
ATOM      2  C   UNL     1       8.714   8.972  18.587  0.00  0.00    +0.000 C 
ENDROOT
BRANCH   1   4
ATOM      3  C   UNL     1       6.082   6.834  17.412  0.00  0.00    +0.000 C 
ATOM      4  C   UNL     1       7.340   7.108  17.798  0.00  0.00    +0.000 C 
BRANCH   3   8
ATOM      5  C   UNL     1       4.069   3.065  18.038  0.00  0.00    +0.000 A 
ATOM      6  C   UNL     1       4.011   3.741  16.813  0.00  0.00    +0.000 A 
ATOM      7  C   UNL     1       4.696   4.946  16.609  0.00  0.00    +0.000 A 
ATOM      8  C   UNL     1       5.425   5.538  17.644  0.00  0.00    +0.000 A 
ATOM      9  C   UNL     1       5.494   4.864  18.868  0.00  0.00    +0.000 A 
ATOM     10  C   UNL     1       4.808   3.657  19.066  0.00  0.00    +0.000 A 
BRANCH   5  12
ATOM     11  C   UNL     1       2.065   2.023  18.997  0.00  0.00    +0.000 C 
ATOM     12  N   UNL     1       3.285   1.921  18.218  0.00  0.00    +0.000 N 
ATOM     13  H   UNL     1       3.846   1.111  18.473  0.00  0.00    +0.000 HD
ENDBRANCH   5  12
ENDBRANCH   3   8
ENDBRANCH   1   4
BRANCH   2  14
ATOM     14  C   UNL     1       9.304  10.285  18.452  0.00  0.00    +0.000 C 
ATOM     15  C   UNL     1       9.368  11.165  19.463  0.00  0.00    +0.000 C 
BRANCH  15  16
ATOM     16  C   UNL     1       9.928  12.502  19.271  0.00  0.00    +0.000 A 
ATOM     17  C   UNL     1       9.470  13.308  18.230  0.00  0.00    +0.000 A 
ATOM     18  C   UNL     1      10.030  14.575  18.019  0.00  0.00    +0.000 A 
ATOM     19  C   UNL     1      11.037  15.079  18.856  0.00  0.00    +0.000 A 
ATOM     20  C   UNL     1      11.504  14.245  19.877  0.00  0.00    +0.000 A 
ATOM     21  C   UNL     1      10.954  12.972  20.091  0.00  0.00    +0.000 A 
BRANCH  19  22
ATOM     22  N   UNL     1      11.622  16.309  18.542  0.00  0.00    +0.000 N 
ATOM     23  C   UNL     1      11.770  16.721  17.155  0.00  0.00    +0.000 C 
ATOM     24  H   UNL     1      12.477  16.469  19.069  0.00  0.00    +0.000 HD
ENDBRANCH  19  22
ENDBRANCH  15  16
ENDBRANCH   2  14
TORSDOF 6
ENDMDL
