MODEL 1
REMARK VINA RESULT:      -7.2      0.000      0.000
REMARK  Name = 
REMARK  8 active torsions:
REMARK  status: ('A' for Active; 'I' for Inactive)
REMARK    1  A    between atoms: C_1  and  O_2
REMARK    2  A    between atoms: O_2  and  C_3
REMARK    3  A    between atoms: C_8  and  C_9
REMARK    4  A    between atoms: C_9  and  C_10
REMARK    5  A    between atoms: C_10  and  O_11
REMARK    6  A    between atoms: O_11  and  C_12
REMARK    7  A    between atoms: C_12  and  N_14
REMARK    8  A    between atoms: N_14  and  C_15
REMARK                            x       y       z     vdW  Elec       q    Type
REMARK                         _______ _______ _______ _____ _____    ______ ____
ROOT
ATOM      1  C   UNL     1       6.923   6.954  17.654  0.00  0.00    +0.000 C 
ATOM      2  S   UNL     1       7.558   5.700  18.553  0.00  0.00    +0.000 S 
ENDROOT
BRANCH   1   3
ATOM      3  N   UNL     1       5.650   6.832  17.154  0.00  0.00    +0.000 N 
ATOM      4  H   UNL     1       5.475   7.452  16.373  0.00  0.00    +0.000 HD
BRANCH   3   5
ATOM      5  C   UNL     1       4.610   5.957  17.506  0.00  0.00    +0.000 A 
ATOM      6  C   UNL     1       4.500   4.767  16.769  0.00  0.00    +0.000 A 
ATOM      7  C   UNL     1       3.553   3.798  17.123  0.00  0.00    +0.000 A 
ATOM      8  C   UNL     1       2.720   4.003  18.222  0.00  0.00    +0.000 A 
ATOM      9 CL   UNL     1       1.610   2.747  18.638  0.00  0.00    +0.000 Cl
ATOM     10  C   UNL     1       2.823   5.190  18.954  0.00  0.00    +0.000 A 
ATOM     11 CL   UNL     1       1.848   5.505  20.347  0.00  0.00    +0.000 Cl
ATOM     12  C   UNL     1       3.761   6.164  18.590  0.00  0.00    +0.000 A 
ENDBRANCH   3   5
ENDBRANCH   1   3
BRANCH   1  13
ATOM     13  O   UNL     1       7.606   8.092  17.345  0.00  0.00    +0.000 OA
BRANCH  13  14
ATOM     14  C   UNL     1       8.384   8.772  18.367  0.00  0.00    +0.000 C 
BRANCH  14  15
ATOM     15  C   UNL     1       8.469  10.284  18.130  0.00  0.00    +0.000 C 
BRANCH  15  21
ATOM     16  C   UNL     1       9.900  11.306  20.000  0.00  0.00    +0.000 A 
ATOM     17  C   UNL     1      11.089  11.927  20.408  0.00  0.00    +0.000 A 
ATOM     18  C   UNL     1      12.057  12.292  19.472  0.00  0.00    +0.000 A 
ATOM     19  C   UNL     1      11.856  12.014  18.124  0.00  0.00    +0.000 A 
ATOM     20  C   UNL     1      10.704  11.342  17.719  0.00  0.00    +0.000 A 
ATOM     21  C   UNL     1       9.717  10.968  18.646  0.00  0.00    +0.000 A 
BRANCH  16  23
ATOM     22  C   UNL     1       8.760  11.923  21.971  0.00  0.00    +0.000 C 
ATOM     23  O   UNL     1       8.878  11.019  20.871  0.00  0.00    +0.000 OA
ENDBRANCH  16  23
ENDBRANCH  15  21
ENDBRANCH  14  15
ENDBRANCH  13  14
ENDBRANCH   1  13
TORSDOF 7
ENDMDL
MODEL 2
REMARK VINA RESULT:      -7.1      5.852      8.158
REMARK  Name = 
REMARK  8 active torsions:
REMARK  status: ('A' for Active; 'I' for Inactive)
REMARK    1  A    between atoms: C_1  and  O_2
REMARK    2  A    between atoms: O_2  and  C_3
REMARK    3  A    between atoms: C_8  and  C_9
REMARK    4  A    between atoms: C_9  and  C_10
REMARK    5  A    between atoms: C_10  and  O_11
REMARK    6  A    between atoms: O_11  and  C_12
REMARK    7  A    between atoms: C_12  and  N_14
REMARK    8  A    between atoms: N_14  and  C_15
REMARK                            x       y       z     vdW  Elec       q    Type
REMARK                         _______ _______ _______ _____ _____    ______ ____
ROOT
ATOM      1  C   UNL     1       5.080   5.709  16.702  0.00  0.00    +0.000 C 
ATOM      2  S   UNL     1       6.740   5.831  16.822  0.00  0.00    +0.000 S 
ENDROOT
BRANCH   1   3
ATOM      3  N   UNL     1       4.321   6.844  16.850  0.00  0.00    +0.000 N 
ATOM      4  H   UNL     1       4.449   7.502  16.090  0.00  0.00    +0.000 HD
BRANCH   3   5
ATOM      5  C   UNL     1       3.374   7.189  17.827  0.00  0.00    +0.000 A 
ATOM      6  C   UNL     1       3.231   6.315  18.916  0.00  0.00    +0.000 A 
ATOM      7  C   UNL     1       2.380   6.640  19.979  0.00  0.00    +0.000 A 
ATOM      8  C   UNL     1       1.678   7.845  19.971  0.00  0.00    +0.000 A 
ATOM      9 CL   UNL     1       0.688   8.211  21.337  0.00  0.00    +0.000 Cl
ATOM     10  C   UNL     1       1.814   8.715  18.885  0.00  0.00    +0.000 A 
ATOM     11 CL   UNL     1       1.003  10.240  18.815  0.00  0.00    +0.000 Cl
ATOM     12  C   UNL     1       2.655   8.381  17.815  0.00  0.00    +0.000 A 
ENDBRANCH   3   5
ENDBRANCH   1   3
BRANCH   1  13
ATOM     13  O   UNL     1       4.414   4.537  16.503  0.00  0.00    +0.000 OA
BRANCH  13  14
ATOM     14  C   UNL     1       4.776   3.357  17.271  0.00  0.00    +0.000 C 
BRANCH  14  15
ATOM     15  C   UNL     1       3.572   2.455  17.562  0.00  0.00    +0.000 C 
BRANCH  15  21
ATOM     16  C   UNL     1       3.486   2.645  20.120  0.00  0.00    +0.000 A 
ATOM     17  C   UNL     1       2.755   2.908  21.288  0.00  0.00    +0.000 A 
ATOM     18  C   UNL     1       1.382   3.149  21.227  0.00  0.00    +0.000 A 
ATOM     19  C   UNL     1       0.735   3.157  19.996  0.00  0.00    +0.000 A 
ATOM     20  C   UNL     1       1.467   2.958  18.826  0.00  0.00    +0.000 A 
ATOM     21  C   UNL     1       2.849   2.711  18.867  0.00  0.00    +0.000 A 
BRANCH  16  23
ATOM     22  C   UNL     1       5.140   1.211  21.002  0.00  0.00    +0.000 C 
ATOM     23  O   UNL     1       4.816   2.305  20.140  0.00  0.00    +0.000 OA
ENDBRANCH  16  23
ENDBRANCH  15  21
ENDBRANCH  14  15
ENDBRANCH  13  14
ENDBRANCH   1  13
TORSDOF 7
ENDMDL
MODEL 3
REMARK VINA RESULT:      -7.1      5.149      6.420
REMARK  Name = 
REMARK  8 active torsions:
REMARK  status: ('A' for Active; 'I' for Inactive)
REMARK    1  A    between atoms: C_1  and  O_2
REMARK    2  A    between atoms: O_2  and  C_3
REMARK    3  A    between atoms: C_8  and  C_9
REMARK    4  A    between atoms: C_9  and  C_10
REMARK    5  A    between atoms: C_10  and  O_11
REMARK    6  A    between atoms: O_11  and  C_12
REMARK    7  A    between atoms: C_12  and  N_14
REMARK    8  A    between atoms: N_14  and  C_15
REMARK                            x       y       z     vdW  Elec       q    Type
REMARK                         _______ _______ _______ _____ _____    ______ ____
ROOT
ATOM      1  C   UNL     1       5.475   4.567  16.564  0.00  0.00    +0.000 C 
ATOM      2  S   UNL     1       5.653   4.800  14.922  0.00  0.00    +0.000 S 
ENDROOT
BRANCH   1   3
ATOM      3  N   UNL     1       5.001   3.359  17.013  0.00  0.00    +0.000 N 
ATOM      4  H   UNL     1       5.408   2.572  16.521  0.00  0.00    +0.000 HD
BRANCH   3   5
ATOM      5  C   UNL     1       4.121   3.055  18.063  0.00  0.00    +0.000 A 
ATOM      6  C   UNL     1       4.661   3.011  19.358  0.00  0.00    +0.000 A 
ATOM      7  C   UNL     1       3.831   2.814  20.468  0.00  0.00    +0.000 A 
ATOM      8  C   UNL     1       2.454   2.675  20.295  0.00  0.00    +0.000 A 
ATOM      9 CL   UNL     1       1.479   2.488  21.708  0.00  0.00    +0.000 Cl
ATOM     10  C   UNL     1       1.913   2.712  19.006  0.00  0.00    +0.000 A 
ATOM     11 CL   UNL     1       0.214   2.579  18.712  0.00  0.00    +0.000 Cl
ATOM     12  C   UNL     1       2.748   2.895  17.896  0.00  0.00    +0.000 A 
ENDBRANCH   3   5
ENDBRANCH   1   3
BRANCH   1  13
ATOM     13  O   UNL     1       5.735   5.521  17.503  0.00  0.00    +0.000 OA
BRANCH  13  14
ATOM     14  C   UNL     1       5.114   6.830  17.397  0.00  0.00    +0.000 C 
BRANCH  14  15
ATOM     15  C   UNL     1       3.592   6.745  17.234  0.00  0.00    +0.000 C 
BRANCH  15  21
ATOM     16  C   UNL     1       2.114   8.368  18.565  0.00  0.00    +0.000 A 
ATOM     17  C   UNL     1       1.359   8.649  19.713  0.00  0.00    +0.000 A 
ATOM     18  C   UNL     1       1.324   7.749  20.778  0.00  0.00    +0.000 A 
ATOM     19  C   UNL     1       2.020   6.548  20.692  0.00  0.00    +0.000 A 
ATOM     20  C   UNL     1       2.722   6.235  19.529  0.00  0.00    +0.000 A 
ATOM     21  C   UNL     1       2.771   7.130  18.447  0.00  0.00    +0.000 A 
BRANCH  16  23
ATOM     22  C   UNL     1       2.050  10.631  17.901  0.00  0.00    +0.000 C 
ATOM     23  O   UNL     1       2.259   9.265  17.535  0.00  0.00    +0.000 OA
ENDBRANCH  16  23
ENDBRANCH  15  21
ENDBRANCH  14  15
ENDBRANCH  13  14
ENDBRANCH   1  13
TORSDOF 7
ENDMDL
MODEL 4
REMARK VINA RESULT:      -7.0      5.680      7.294
REMARK  Name = 
REMARK  8 active torsions:
REMARK  status: ('A' for Active; 'I' for Inactive)
REMARK    1  A    between atoms: C_1  and  O_2
REMARK    2  A    between atoms: O_2  and  C_3
REMARK    3  A    between atoms: C_8  and  C_9
REMARK    4  A    between atoms: C_9  and  C_10
REMARK    5  A    between atoms: C_10  and  O_11
REMARK    6  A    between atoms: O_11  and  C_12
REMARK    7  A    between atoms: C_12  and  N_14
REMARK    8  A    between atoms: N_14  and  C_15
REMARK                            x       y       z     vdW  Elec       q    Type
REMARK                         _______ _______ _______ _____ _____    ______ ____
ROOT
ATOM      1  C   UNL     1       2.432   3.005  19.452  0.00  0.00    +0.000 C 
ATOM      2  S   UNL     1       1.224   1.975  18.938  0.00  0.00    +0.000 S 
ENDROOT
BRANCH   1   3
ATOM      3  N   UNL     1       3.613   3.042  18.752  0.00  0.00    +0.000 N 
ATOM      4  H   UNL     1       3.881   2.134  18.390  0.00  0.00    +0.000 HD
BRANCH   3   5
ATOM      5  C   UNL     1       4.442   4.122  18.415  0.00  0.00    +0.000 A 
ATOM      6  C   UNL     1       5.483   4.432  19.304  0.00  0.00    +0.000 A 
ATOM      7  C   UNL     1       6.413   5.429  18.990  0.00  0.00    +0.000 A 
ATOM      8  C   UNL     1       6.320   6.115  17.779  0.00  0.00    +0.000 A 
ATOM      9 CL   UNL     1       7.529   7.297  17.427  0.00  0.00    +0.000 Cl
ATOM     10  C   UNL     1       5.281   5.814  16.894  0.00  0.00    +0.000 A 
ATOM     11 CL   UNL     1       5.117   6.597  15.360  0.00  0.00    +0.000 Cl
ATOM     12  C   UNL     1       4.343   4.825  17.217  0.00  0.00    +0.000 A 
ENDBRANCH   3   5
ENDBRANCH   1   3
BRANCH   1  13
ATOM     13  O   UNL     1       2.340   3.796  20.559  0.00  0.00    +0.000 OA
BRANCH  13  14
ATOM     14  C   UNL     1       1.649   5.072  20.482  0.00  0.00    +0.000 C 
BRANCH  14  15
ATOM     15  C   UNL     1       2.616   6.260  20.440  0.00  0.00    +0.000 C 
BRANCH  15  21
ATOM     16  C   UNL     1       1.352   8.494  20.447  0.00  0.00    +0.000 A 
ATOM     17  C   UNL     1       0.917   9.638  19.762  0.00  0.00    +0.000 A 
ATOM     18  C   UNL     1       1.144   9.774  18.392  0.00  0.00    +0.000 A 
ATOM     19  C   UNL     1       1.830   8.781  17.702  0.00  0.00    +0.000 A 
ATOM     20  C   UNL     1       2.319   7.670  18.389  0.00  0.00    +0.000 A 
ATOM     21  C   UNL     1       2.099   7.515  19.768  0.00  0.00    +0.000 A 
BRANCH  16  23
ATOM     22  C   UNL     1       0.484   9.386  22.452  0.00  0.00    +0.000 C 
ATOM     23  O   UNL     1       1.065   8.271  21.771  0.00  0.00    +0.000 OA
ENDBRANCH  16  23
ENDBRANCH  15  21
ENDBRANCH  14  15
ENDBRANCH  13  14
ENDBRANCH   1  13
TORSDOF 7
ENDMDL
MODEL 5
REMARK VINA RESULT:      -7.0      0.943      1.560
REMARK  Name = 
REMARK  8 active torsions:
REMARK  status: ('A' for Active; 'I' for Inactive)
REMARK    1  A    between atoms: C_1  and  O_2
REMARK    2  A    between atoms: O_2  and  C_3
REMARK    3  A    between atoms: C_8  and  C_9
REMARK    4  A    between atoms: C_9  and  C_10
REMARK    5  A    between atoms: C_10  and  O_11
REMARK    6  A    between atoms: O_11  and  C_12
REMARK    7  A    between atoms: C_12  and  N_14
REMARK    8  A    between atoms: N_14  and  C_15
REMARK                            x       y       z     vdW  Elec       q    Type
REMARK                         _______ _______ _______ _____ _____    ______ ____
ROOT
ATOM      1  C   UNL     1       7.256   7.075  17.540  0.00  0.00    +0.000 C 
ATOM      2  S   UNL     1       7.769   6.020  18.725  0.00  0.00    +0.000 S 
ENDROOT
BRANCH   1   3
ATOM      3  N   UNL     1       6.043   6.853  16.936  0.00  0.00    +0.000 N 
ATOM      4  H   UNL     1       5.978   7.281  16.019  0.00  0.00    +0.000 HD
BRANCH   3   5
ATOM      5  C   UNL     1       4.941   6.089  17.351  0.00  0.00    +0.000 A 
ATOM      6  C   UNL     1       3.783   6.789  17.724  0.00  0.00    +0.000 A 
ATOM      7  C   UNL     1       2.611   6.098  18.054  0.00  0.00    +0.000 A 
ATOM      8  C   UNL     1       2.582   4.704  17.999  0.00  0.00    +0.000 A 
ATOM      9 CL   UNL     1       1.091   3.914  18.365  0.00  0.00    +0.000 Cl
ATOM     10  C   UNL     1       3.735   4.004  17.633  0.00  0.00    +0.000 A 
ATOM     11 CL   UNL     1       3.770   2.279  17.510  0.00  0.00    +0.000 Cl
ATOM     12  C   UNL     1       4.911   4.698  17.317  0.00  0.00    +0.000 A 
ENDBRANCH   3   5
ENDBRANCH   1   3
BRANCH   1  13
ATOM     13  O   UNL     1       7.986   8.138  17.096  0.00  0.00    +0.000 OA
BRANCH  13  14
ATOM     14  C   UNL     1       7.925   9.406  17.804  0.00  0.00    +0.000 C 
BRANCH  14  15
ATOM     15  C   UNL     1       8.932   9.482  18.956  0.00  0.00    +0.000 C 
BRANCH  15  21
ATOM     16  C   UNL     1       9.942  11.466  20.233  0.00  0.00    +0.000 A 
ATOM     17  C   UNL     1      10.730  12.627  20.234  0.00  0.00    +0.000 A 
ATOM     18  C   UNL     1      11.259  13.127  19.044  0.00  0.00    +0.000 A 
ATOM     19  C   UNL     1      11.027  12.457  17.848  0.00  0.00    +0.000 A 
ATOM     20  C   UNL     1      10.297  11.269  17.849  0.00  0.00    +0.000 A 
ATOM     21  C   UNL     1       9.755  10.750  19.037  0.00  0.00    +0.000 A 
BRANCH  16  23
ATOM     22  C   UNL     1       8.469  11.937  22.015  0.00  0.00    +0.000 C 
ATOM     23  O   UNL     1       9.320  10.992  21.362  0.00  0.00    +0.000 OA
ENDBRANCH  16  23
ENDBRANCH  15  21
ENDBRANCH  14  15
ENDBRANCH  13  14
ENDBRANCH   1  13
TORSDOF 7
ENDMDL
MODEL 6
REMARK VINA RESULT:      -6.9      4.771      6.513
REMARK  Name = 
REMARK  8 active torsions:
REMARK  status: ('A' for Active; 'I' for Inactive)
REMARK    1  A    between atoms: C_1  and  O_2
REMARK    2  A    between atoms: O_2  and  C_3
REMARK    3  A    between atoms: C_8  and  C_9
REMARK    4  A    between atoms: C_9  and  C_10
REMARK    5  A    between atoms: C_10  and  O_11
REMARK    6  A    between atoms: O_11  and  C_12
REMARK    7  A    between atoms: C_12  and  N_14
REMARK    8  A    between atoms: N_14  and  C_15
REMARK                            x       y       z     vdW  Elec       q    Type
REMARK                         _______ _______ _______ _____ _____    ______ ____
ROOT
ATOM      1  C   UNL     1       2.335   3.797  19.033  0.00  0.00    +0.000 C 
ATOM      2  S   UNL     1       1.032   3.248  19.920  0.00  0.00    +0.000 S 
ENDROOT
BRANCH   1   3
ATOM      3  N   UNL     1       2.981   4.938  19.443  0.00  0.00    +0.000 N 
ATOM      4  H   UNL     1       3.928   4.760  19.756  0.00  0.00    +0.000 HD
BRANCH   3   5
ATOM      5  C   UNL     1       2.566   6.278  19.429  0.00  0.00    +0.000 A 
ATOM      6  C   UNL     1       2.663   6.965  18.209  0.00  0.00    +0.000 A 
ATOM      7  C   UNL     1       2.178   8.273  18.089  0.00  0.00    +0.000 A 
ATOM      8  C   UNL     1       1.577   8.898  19.182  0.00  0.00    +0.000 A 
ATOM      9 CL   UNL     1       0.950  10.491  18.954  0.00  0.00    +0.000 Cl
ATOM     10  C   UNL     1       1.483   8.219  20.400  0.00  0.00    +0.000 A 
ATOM     11 CL   UNL     1       0.725   8.914  21.790  0.00  0.00    +0.000 Cl
ATOM     12  C   UNL     1       1.983   6.916  20.521  0.00  0.00    +0.000 A 
ENDBRANCH   3   5
ENDBRANCH   1   3
BRANCH   1  13
ATOM     13  O   UNL     1       2.784   3.204  17.891  0.00  0.00    +0.000 OA
BRANCH  13  14
ATOM     14  C   UNL     1       3.536   3.979  16.919  0.00  0.00    +0.000 C 
BRANCH  14  15
ATOM     15  C   UNL     1       5.031   3.643  16.930  0.00  0.00    +0.000 C 
BRANCH  15  21
ATOM     16  C   UNL     1       6.438   5.747  16.507  0.00  0.00    +0.000 A 
ATOM     17  C   UNL     1       7.284   6.753  16.997  0.00  0.00    +0.000 A 
ATOM     18  C   UNL     1       7.725   6.728  18.321  0.00  0.00    +0.000 A 
ATOM     19  C   UNL     1       7.301   5.714  19.172  0.00  0.00    +0.000 A 
ATOM     20  C   UNL     1       6.411   4.746  18.709  0.00  0.00    +0.000 A 
ATOM     21  C   UNL     1       5.958   4.753  17.378  0.00  0.00    +0.000 A 
BRANCH  16  23
ATOM     22  C   UNL     1       6.928   4.899  14.360  0.00  0.00    +0.000 C 
ATOM     23  O   UNL     1       6.060   5.675  15.189  0.00  0.00    +0.000 OA
ENDBRANCH  16  23
ENDBRANCH  15  21
ENDBRANCH  14  15
ENDBRANCH  13  14
ENDBRANCH   1  13
TORSDOF 7
ENDMDL
MODEL 7
REMARK VINA RESULT:      -6.8      6.068      7.349
REMARK  Name = 
REMARK  8 active torsions:
REMARK  status: ('A' for Active; 'I' for Inactive)
REMARK    1  A    between atoms: C_1  and  O_2
REMARK    2  A    between atoms: O_2  and  C_3
REMARK    3  A    between atoms: C_8  and  C_9
REMARK    4  A    between atoms: C_9  and  C_10
REMARK    5  A    between atoms: C_10  and  O_11
REMARK    6  A    between atoms: O_11  and  C_12
REMARK    7  A    between atoms: C_12  and  N_14
REMARK    8  A    between atoms: N_14  and  C_15
REMARK                            x       y       z     vdW  Elec       q    Type
REMARK                         _______ _______ _______ _____ _____    ______ ____
ROOT
ATOM      1  C   UNL     1       3.845   3.338  18.379  0.00  0.00    +0.000 C 
ATOM      2  S   UNL     1       3.465   1.714  18.323  0.00  0.00    +0.000 S 
ENDROOT
BRANCH   1   3
ATOM      3  N   UNL     1       5.119   3.731  18.052  0.00  0.00    +0.000 N 
ATOM      4  H   UNL     1       5.764   3.657  18.831  0.00  0.00    +0.000 HD
BRANCH   3   5
ATOM      5  C   UNL     1       5.663   4.141  16.824  0.00  0.00    +0.000 A 
ATOM      6  C   UNL     1       6.927   4.750  16.857  0.00  0.00    +0.000 A 
ATOM      7  C   UNL     1       7.580   5.095  15.668  0.00  0.00    +0.000 A 
ATOM      8  C   UNL     1       6.982   4.821  14.437  0.00  0.00    +0.000 A 
ATOM      9 CL   UNL     1       7.862   5.223  13.007  0.00  0.00    +0.000 Cl
ATOM     10  C   UNL     1       5.721   4.220  14.402  0.00  0.00    +0.000 A 
ATOM     11 CL   UNL     1       4.929   3.820  12.917  0.00  0.00    +0.000 Cl
ATOM     12  C   UNL     1       5.063   3.889  15.594  0.00  0.00    +0.000 A 
ENDBRANCH   3   5
ENDBRANCH   1   3
BRANCH   1  13
ATOM     13  O   UNL     1       2.975   4.311  18.771  0.00  0.00    +0.000 OA
BRANCH  13  14
ATOM     14  C   UNL     1       3.443   5.414  19.593  0.00  0.00    +0.000 C 
BRANCH  14  15
ATOM     15  C   UNL     1       2.293   6.190  20.243  0.00  0.00    +0.000 C 
BRANCH  15  21
ATOM     16  C   UNL     1       1.295   8.553  20.347  0.00  0.00    +0.000 A 
ATOM     17  C   UNL     1       1.057   9.791  19.733  0.00  0.00    +0.000 A 
ATOM     18  C   UNL     1       1.420  10.006  18.403  0.00  0.00    +0.000 A 
ATOM     19  C   UNL     1       2.049   8.995  17.685  0.00  0.00    +0.000 A 
ATOM     20  C   UNL     1       2.344   7.783  18.308  0.00  0.00    +0.000 A 
ATOM     21  C   UNL     1       1.984   7.547  19.646  0.00  0.00    +0.000 A 
BRANCH  16  23
ATOM     22  C   UNL     1      -0.375   8.868  21.984  0.00  0.00    +0.000 C 
ATOM     23  O   UNL     1       0.867   8.262  21.619  0.00  0.00    +0.000 OA
ENDBRANCH  16  23
ENDBRANCH  15  21
ENDBRANCH  14  15
ENDBRANCH  13  14
ENDBRANCH   1  13
TORSDOF 7
ENDMDL
MODEL 8
REMARK VINA RESULT:      -6.7      4.860      7.079
REMARK  Name = 
REMARK  8 active torsions:
REMARK  status: ('A' for Active; 'I' for Inactive)
REMARK    1  A    between atoms: C_1  and  O_2
REMARK    2  A    between atoms: O_2  and  C_3
REMARK    3  A    between atoms: C_8  and  C_9
REMARK    4  A    between atoms: C_9  and  C_10
REMARK    5  A    between atoms: C_10  and  O_11
REMARK    6  A    between atoms: O_11  and  C_12
REMARK    7  A    between atoms: C_12  and  N_14
REMARK    8  A    between atoms: N_14  and  C_15
REMARK                            x       y       z     vdW  Elec       q    Type
REMARK                         _______ _______ _______ _____ _____    ______ ____
ROOT
ATOM      1  C   UNL     1       2.188   5.377  20.022  0.00  0.00    +0.000 C 
ATOM      2  S   UNL     1       1.046   4.225  20.417  0.00  0.00    +0.000 S 
ENDROOT
BRANCH   1   3
ATOM      3  N   UNL     1       2.178   6.575  20.693  0.00  0.00    +0.000 N 
ATOM      4  H   UNL     1       2.657   6.528  21.585  0.00  0.00    +0.000 HD
BRANCH   3   5
ATOM      5  C   UNL     1       1.681   7.831  20.313  0.00  0.00    +0.000 A 
ATOM      6  C   UNL     1       1.910   8.235  18.988  0.00  0.00    +0.000 A 
ATOM      7  C   UNL     1       1.361   9.429  18.505  0.00  0.00    +0.000 A 
ATOM      8  C   UNL     1       0.566  10.220  19.334  0.00  0.00    +0.000 A 
ATOM      9 CL   UNL     1      -0.125  11.652  18.662  0.00  0.00    +0.000 Cl
ATOM     10  C   UNL     1       0.341   9.823  20.656  0.00  0.00    +0.000 A 
ATOM     11 CL   UNL     1      -0.658  10.732  21.736  0.00  0.00    +0.000 Cl
ATOM     12  C   UNL     1       0.903   8.636  21.142  0.00  0.00    +0.000 A 
ENDBRANCH   3   5
ENDBRANCH   1   3
BRANCH   1  13
ATOM     13  O   UNL     1       3.119   5.222  19.039  0.00  0.00    +0.000 OA
BRANCH  13  14
ATOM     14  C   UNL     1       4.534   5.256  19.369  0.00  0.00    +0.000 C 
BRANCH  14  15
ATOM     15  C   UNL     1       5.314   4.107  18.721  0.00  0.00    +0.000 C 
BRANCH  15  21
ATOM     16  C   UNL     1       7.008   4.987  17.004  0.00  0.00    +0.000 A 
ATOM     17  C   UNL     1       7.393   5.160  15.667  0.00  0.00    +0.000 A 
ATOM     18  C   UNL     1       6.543   4.779  14.628  0.00  0.00    +0.000 A 
ATOM     19  C   UNL     1       5.314   4.198  14.918  0.00  0.00    +0.000 A 
ATOM     20  C   UNL     1       4.951   3.966  16.244  0.00  0.00    +0.000 A 
ATOM     21  C   UNL     1       5.793   4.345  17.304  0.00  0.00    +0.000 A 
BRANCH  16  23
ATOM     22  C   UNL     1       7.818   6.858  18.192  0.00  0.00    +0.000 C 
ATOM     23  O   UNL     1       7.766   5.436  18.057  0.00  0.00    +0.000 OA
ENDBRANCH  16  23
ENDBRANCH  15  21
ENDBRANCH  14  15
ENDBRANCH  13  14
ENDBRANCH   1  13
TORSDOF 7
ENDMDL
MODEL 9
REMARK VINA RESULT:      -6.7      4.971      6.904
REMARK  Name = 
REMARK  8 active torsions:
REMARK  status: ('A' for Active; 'I' for Inactive)
REMARK    1  A    between atoms: C_1  and  O_2
REMARK    2  A    between atoms: O_2  and  C_3
REMARK    3  A    between atoms: C_8  and  C_9
REMARK    4  A    between atoms: C_9  and  C_10
REMARK    5  A    between atoms: C_10  and  O_11
REMARK    6  A    between atoms: O_11  and  C_12
REMARK    7  A    between atoms: C_12  and  N_14
REMARK    8  A    between atoms: N_14  and  C_15
REMARK                            x       y       z     vdW  Elec       q    Type
REMARK                         _______ _______ _______ _____ _____    ______ ____
ROOT
ATOM      1  C   UNL     1       2.459   4.926  19.536  0.00  0.00    +0.000 C 
ATOM      2  S   UNL     1       1.711   3.753  20.457  0.00  0.00    +0.000 S 
ENDROOT
BRANCH   1   3
ATOM      3  N   UNL     1       2.705   6.154  20.101  0.00  0.00    +0.000 N 
ATOM      4  H   UNL     1       3.607   6.199  20.560  0.00  0.00    +0.000 HD
BRANCH   3   5
ATOM      5  C   UNL     1       1.952   7.338  20.079  0.00  0.00    +0.000 A 
ATOM      6  C   UNL     1       1.133   7.595  21.190  0.00  0.00    +0.000 A 
ATOM      7  C   UNL     1       0.429   8.801  21.290  0.00  0.00    +0.000 A 
ATOM      8  C   UNL     1       0.548   9.765  20.289  0.00  0.00    +0.000 A 
ATOM      9 CL   UNL     1      -0.304  11.252  20.497  0.00  0.00    +0.000 Cl
ATOM     10  C   UNL     1       1.358   9.509  19.178  0.00  0.00    +0.000 A 
ATOM     11 CL   UNL     1       1.582  10.666  17.912  0.00  0.00    +0.000 Cl
ATOM     12  C   UNL     1       2.050   8.296  19.074  0.00  0.00    +0.000 A 
ENDBRANCH   3   5
ENDBRANCH   1   3
BRANCH   1  13
ATOM     13  O   UNL     1       2.812   4.760  18.230  0.00  0.00    +0.000 OA
BRANCH  13  14
ATOM     14  C   UNL     1       3.497   3.549  17.813  0.00  0.00    +0.000 C 
BRANCH  14  15
ATOM     15  C   UNL     1       4.663   3.833  16.860  0.00  0.00    +0.000 C 
BRANCH  15  21
ATOM     16  C   UNL     1       6.365   5.724  16.520  0.00  0.00    +0.000 A 
ATOM     17  C   UNL     1       7.314   6.606  17.057  0.00  0.00    +0.000 A 
ATOM     18  C   UNL     1       7.677   6.525  18.402  0.00  0.00    +0.000 A 
ATOM     19  C   UNL     1       7.075   5.580  19.226  0.00  0.00    +0.000 A 
ATOM     20  C   UNL     1       6.086   4.742  18.713  0.00  0.00    +0.000 A 
ATOM     21  C   UNL     1       5.709   4.807  17.361  0.00  0.00    +0.000 A 
BRANCH  16  23
ATOM     22  C   UNL     1       6.967   4.972  14.366  0.00  0.00    +0.000 C 
ATOM     23  O   UNL     1       6.049   5.701  15.184  0.00  0.00    +0.000 OA
ENDBRANCH  16  23
ENDBRANCH  15  21
ENDBRANCH  14  15
ENDBRANCH  13  14
ENDBRANCH   1  13
TORSDOF 7
ENDMDL
