MODEL 1
REMARK VINA RESULT:      -7.3      0.000      0.000
REMARK  Name = 
REMARK  6 active torsions:
REMARK  status: ('A' for Active; 'I' for Inactive)
REMARK    1  A    between atoms: C_1  and  C_2
REMARK    2  A    between atoms: C_4  and  C_5
REMARK    3  A    between atoms: N_6  and  C_7
REMARK    4  A    between atoms: C_7  and  C_8
REMARK    5  A    between atoms: N_10  and  C_11
REMARK    6  A    between atoms: C_11  and  C_12
REMARK                            x       y       z     vdW  Elec       q    Type
REMARK                         _______ _______ _______ _____ _____    ______ ____
ROOT
ATOM      1  C   UNL     1       4.069   4.926  18.210  0.00  0.00    +0.000 C 
ATOM      2  C   UNL     1       3.918   5.391  19.680  0.00  0.00    +0.000 C 
ATOM      3  N   UNL     1       2.562   5.894  20.031  0.00  0.00    +0.000 NA
ATOM      4  C   UNL     1       1.590   4.846  19.632  0.00  0.00    +0.000 C 
ATOM      5  C   UNL     1       1.749   4.358  18.181  0.00  0.00    +0.000 C 
ATOM      6  O   UNL     1       3.087   3.908  17.934  0.00  0.00    +0.000 OA
ENDROOT
BRANCH   1   7
ATOM      7  C   UNL     1       5.469   4.341  17.996  0.00  0.00    +0.000 C 
BRANCH   7  13
ATOM      8  C   UNL     1       6.580   3.895  13.335  0.00  0.00    +0.000 C 
ATOM      9  C   UNL     1       6.478   4.483  14.684  0.00  0.00    +0.000 A 
ATOM     10  N   UNL     1       7.255   5.527  15.112  0.00  0.00    +0.000 NA
ATOM     11  C   UNL     1       6.924   5.657  16.383  0.00  0.00    +0.000 A 
ATOM     12  C   UNL     1       7.444   6.645  17.356  0.00  0.00    +0.000 C 
ATOM     13  N   UNL     1       6.009   4.688  16.697  0.00  0.00    +0.000 N 
ATOM     14  N   UNL     1       5.658   3.978  15.612  0.00  0.00    +0.000 NA
ENDBRANCH   7  13
ENDBRANCH   1   7
BRANCH   3  15
ATOM     15  C   UNL     1       2.247   7.172  19.349  0.00  0.00    +0.000 C 
BRANCH  15  16
ATOM     16  C   UNL     1       1.601   8.164  20.311  0.00  0.00    +0.000 C 
ATOM     17  O   UNL     1       1.525   7.887  21.512  0.00  0.00    +0.000 OA
ATOM     18  N   UNL     1       1.120   9.289  19.688  0.00  0.00    +0.000 N 
ATOM     19  C   UNL     1       0.514  10.273  20.412  0.00  0.00    +0.000 A 
ATOM     20  N   UNL     1       0.544  10.457  21.707  0.00  0.00    +0.000 NA
ATOM     21  C   UNL     1      -0.344  11.454  22.046  0.00  0.00    +0.000 A 
ATOM     22  C   UNL     1      -0.997  12.047  20.987  0.00  0.00    +0.000 A 
ATOM     23  S   UNL     1      -0.434  11.365  19.511  0.00  0.00    +0.000 S 
ATOM     24  H   UNL     1       0.983   9.267  18.684  0.00  0.00    +0.000 HD
ENDBRANCH  15  16
ENDBRANCH   3  15
TORSDOF 4
ENDMDL
MODEL 2
REMARK VINA RESULT:      -7.2      1.591      1.710
REMARK  Name = 
REMARK  6 active torsions:
REMARK  status: ('A' for Active; 'I' for Inactive)
REMARK    1  A    between atoms: C_1  and  C_2
REMARK    2  A    between atoms: C_4  and  C_5
REMARK    3  A    between atoms: N_6  and  C_7
REMARK    4  A    between atoms: C_7  and  C_8
REMARK    5  A    between atoms: N_10  and  C_11
REMARK    6  A    between atoms: C_11  and  C_12
REMARK                            x       y       z     vdW  Elec       q    Type
REMARK                         _______ _______ _______ _____ _____    ______ ____
ROOT
ATOM      1  C   UNL     1       3.750   4.477  18.546  0.00  0.00    +0.000 C 
ATOM      2  C   UNL     1       4.021   5.850  19.208  0.00  0.00    +0.000 C 
ATOM      3  N   UNL     1       2.797   6.645  19.502  0.00  0.00    +0.000 NA
ATOM      4  C   UNL     1       1.886   5.773  20.284  0.00  0.00    +0.000 C 
ATOM      5  C   UNL     1       1.632   4.395  19.648  0.00  0.00    +0.000 C 
ATOM      6  O   UNL     1       2.865   3.713  19.389  0.00  0.00    +0.000 OA
ENDROOT
BRANCH   1   7
ATOM      7  C   UNL     1       5.069   3.713  18.385  0.00  0.00    +0.000 C 
BRANCH   7  13
ATOM      8  C   UNL     1       6.390   4.037  13.769  0.00  0.00    +0.000 C 
ATOM      9  C   UNL     1       6.366   4.284  15.222  0.00  0.00    +0.000 A 
ATOM     10  N   UNL     1       7.404   4.861  15.906  0.00  0.00    +0.000 NA
ATOM     11  C   UNL     1       7.020   4.790  17.167  0.00  0.00    +0.000 A 
ATOM     12  C   UNL     1       7.748   5.276  18.362  0.00  0.00    +0.000 C 
ATOM     13  N   UNL     1       5.810   4.152  17.220  0.00  0.00    +0.000 N 
ATOM     14  N   UNL     1       5.343   3.887  15.988  0.00  0.00    +0.000 NA
ENDBRANCH   7  13
ENDBRANCH   1   7
BRANCH   3  15
ATOM     15  C   UNL     1       2.125   7.112  18.266  0.00  0.00    +0.000 C 
BRANCH  15  16
ATOM     16  C   UNL     1       1.878   8.616  18.309  0.00  0.00    +0.000 C 
ATOM     17  O   UNL     1       2.282   9.327  17.383  0.00  0.00    +0.000 OA
ATOM     18  N   UNL     1       1.235   9.029  19.450  0.00  0.00    +0.000 N 
ATOM     19  C   UNL     1       0.941  10.346  19.638  0.00  0.00    +0.000 A 
ATOM     20  N   UNL     1       0.935  11.307  18.751  0.00  0.00    +0.000 NA
ATOM     21  C   UNL     1       0.760  12.516  19.388  0.00  0.00    +0.000 A 
ATOM     22  C   UNL     1       0.585  12.442  20.752  0.00  0.00    +0.000 A 
ATOM     23  S   UNL     1       0.583  10.794  21.243  0.00  0.00    +0.000 S 
ATOM     24  H   UNL     1       1.219   8.406  20.250  0.00  0.00    +0.000 HD
ENDBRANCH  15  16
ENDBRANCH   3  15
TORSDOF 4
ENDMDL
MODEL 3
REMARK VINA RESULT:      -7.2      0.768      1.882
REMARK  Name = 
REMARK  6 active torsions:
REMARK  status: ('A' for Active; 'I' for Inactive)
REMARK    1  A    between atoms: C_1  and  C_2
REMARK    2  A    between atoms: C_4  and  C_5
REMARK    3  A    between atoms: N_6  and  C_7
REMARK    4  A    between atoms: C_7  and  C_8
REMARK    5  A    between atoms: N_10  and  C_11
REMARK    6  A    between atoms: C_11  and  C_12
REMARK                            x       y       z     vdW  Elec       q    Type
REMARK                         _______ _______ _______ _____ _____    ______ ____
ROOT
ATOM      1  C   UNL     1       3.948   4.699  18.297  0.00  0.00    +0.000 C 
ATOM      2  C   UNL     1       3.852   5.304  19.719  0.00  0.00    +0.000 C 
ATOM      3  N   UNL     1       2.506   5.828  20.076  0.00  0.00    +0.000 NA
ATOM      4  C   UNL     1       1.530   4.740  19.820  0.00  0.00    +0.000 C 
ATOM      5  C   UNL     1       1.635   4.115  18.418  0.00  0.00    +0.000 C 
ATOM      6  O   UNL     1       2.967   3.652  18.160  0.00  0.00    +0.000 OA
ENDROOT
BRANCH   1   7
ATOM      7  C   UNL     1       5.346   4.106  18.082  0.00  0.00    +0.000 C 
BRANCH   7  13
ATOM      8  C   UNL     1       7.929   8.147  17.697  0.00  0.00    +0.000 C 
ATOM      9  C   UNL     1       7.377   6.821  17.367  0.00  0.00    +0.000 A 
ATOM     10  N   UNL     1       7.416   6.280  16.108  0.00  0.00    +0.000 NA
ATOM     11  C   UNL     1       6.728   5.162  16.231  0.00  0.00    +0.000 A 
ATOM     12  C   UNL     1       6.448   4.152  15.183  0.00  0.00    +0.000 C 
ATOM     13  N   UNL     1       6.264   5.073  17.517  0.00  0.00    +0.000 N 
ATOM     14  N   UNL     1       6.728   6.081  18.273  0.00  0.00    +0.000 NA
ENDBRANCH   7  13
ENDBRANCH   1   7
BRANCH   3  15
ATOM     15  C   UNL     1       2.150   7.032  19.288  0.00  0.00    +0.000 C 
BRANCH  15  16
ATOM     16  C   UNL     1       1.592   8.132  20.186  0.00  0.00    +0.000 C 
ATOM     17  O   UNL     1       1.469   7.926  21.397  0.00  0.00    +0.000 OA
ATOM     18  N   UNL     1       1.239   9.267  19.498  0.00  0.00    +0.000 N 
ATOM     19  C   UNL     1       0.725  10.342  20.159  0.00  0.00    +0.000 A 
ATOM     20  N   UNL     1       0.751  10.589  21.443  0.00  0.00    +0.000 NA
ATOM     21  C   UNL     1      -0.036  11.686  21.714  0.00  0.00    +0.000 A 
ATOM     22  C   UNL     1      -0.608  12.287  20.614  0.00  0.00    +0.000 A 
ATOM     23  S   UNL     1      -0.093  11.477  19.186  0.00  0.00    +0.000 S 
ATOM     24  H   UNL     1       1.116   9.207  18.494  0.00  0.00    +0.000 HD
ENDBRANCH  15  16
ENDBRANCH   3  15
TORSDOF 4
ENDMDL
MODEL 4
REMARK VINA RESULT:      -6.8      1.311      1.371
REMARK  Name = 
REMARK  6 active torsions:
REMARK  status: ('A' for Active; 'I' for Inactive)
REMARK    1  A    between atoms: C_1  and  C_2
REMARK    2  A    between atoms: C_4  and  C_5
REMARK    3  A    between atoms: N_6  and  C_7
REMARK    4  A    between atoms: C_7  and  C_8
REMARK    5  A    between atoms: N_10  and  C_11
REMARK    6  A    between atoms: C_11  and  C_12
REMARK                            x       y       z     vdW  Elec       q    Type
REMARK                         _______ _______ _______ _____ _____    ______ ____
ROOT
ATOM      1  C   UNL     1       4.057   4.914  18.166  0.00  0.00    +0.000 C 
ATOM      2  C   UNL     1       4.174   6.018  19.245  0.00  0.00    +0.000 C 
ATOM      3  N   UNL     1       2.883   6.662  19.612  0.00  0.00    +0.000 NA
ATOM      4  C   UNL     1       1.937   5.575  19.966  0.00  0.00    +0.000 C 
ATOM      5  C   UNL     1       1.834   4.459  18.911  0.00  0.00    +0.000 C 
ATOM      6  O   UNL     1       3.124   3.911  18.614  0.00  0.00    +0.000 OA
ENDROOT
BRANCH   1   7
ATOM      7  C   UNL     1       5.426   4.260  17.946  0.00  0.00    +0.000 C 
BRANCH   7  13
ATOM      8  C   UNL     1       6.663   3.951  13.306  0.00  0.00    +0.000 C 
ATOM      9  C   UNL     1       6.533   4.494  14.671  0.00  0.00    +0.000 A 
ATOM     10  N   UNL     1       7.320   5.505  15.158  0.00  0.00    +0.000 NA
ATOM     11  C   UNL     1       6.955   5.599  16.422  0.00  0.00    +0.000 A 
ATOM     12  C   UNL     1       7.467   6.541  17.444  0.00  0.00    +0.000 C 
ATOM     13  N   UNL     1       6.011   4.640  16.676  0.00  0.00    +0.000 N 
ATOM     14  N   UNL     1       5.676   3.976  15.557  0.00  0.00    +0.000 NA
ENDBRANCH   7  13
ENDBRANCH   1   7
BRANCH   3  15
ATOM     15  C   UNL     1       2.333   7.478  18.503  0.00  0.00    +0.000 C 
BRANCH  15  16
ATOM     16  C   UNL     1       1.536   8.664  19.036  0.00  0.00    +0.000 C 
ATOM     17  O   UNL     1       1.395   9.669  18.333  0.00  0.00    +0.000 OA
ATOM     18  N   UNL     1       1.079   8.479  20.317  0.00  0.00    +0.000 N 
ATOM     19  C   UNL     1       0.348   9.449  20.937  0.00  0.00    +0.000 A 
ATOM     20  N   UNL     1      -0.247  10.480  20.396  0.00  0.00    +0.000 NA
ATOM     21  C   UNL     1      -0.720  11.307  21.390  0.00  0.00    +0.000 A 
ATOM     22  C   UNL     1      -0.520  10.857  22.676  0.00  0.00    +0.000 A 
ATOM     23  S   UNL     1       0.241   9.314  22.632  0.00  0.00    +0.000 S 
ATOM     24  H   UNL     1       1.500   7.750  20.883  0.00  0.00    +0.000 HD
ENDBRANCH  15  16
ENDBRANCH   3  15
TORSDOF 4
ENDMDL
MODEL 5
REMARK VINA RESULT:      -6.8      1.023      1.970
REMARK  Name = 
REMARK  6 active torsions:
REMARK  status: ('A' for Active; 'I' for Inactive)
REMARK    1  A    between atoms: C_1  and  C_2
REMARK    2  A    between atoms: C_4  and  C_5
REMARK    3  A    between atoms: N_6  and  C_7
REMARK    4  A    between atoms: C_7  and  C_8
REMARK    5  A    between atoms: N_10  and  C_11
REMARK    6  A    between atoms: C_11  and  C_12
REMARK                            x       y       z     vdW  Elec       q    Type
REMARK                         _______ _______ _______ _____ _____    ______ ____
ROOT
ATOM      1  C   UNL     1       3.628   4.344  17.358  0.00  0.00    +0.000 C 
ATOM      2  C   UNL     1       3.802   4.500  18.889  0.00  0.00    +0.000 C 
ATOM      3  N   UNL     1       2.614   5.057  19.591  0.00  0.00    +0.000 NA
ATOM      4  C   UNL     1       1.447   4.227  19.202  0.00  0.00    +0.000 C 
ATOM      5  C   UNL     1       1.281   4.043  17.683  0.00  0.00    +0.000 C 
ATOM      6  O   UNL     1       2.478   3.517  17.095  0.00  0.00    +0.000 OA
ENDROOT
BRANCH   1   7
ATOM      7  C   UNL     1       4.872   3.672  16.764  0.00  0.00    +0.000 C 
BRANCH   7  13
ATOM      8  C   UNL     1       7.768   7.425  17.591  0.00  0.00    +0.000 C 
ATOM      9  C   UNL     1       7.196   6.237  16.931  0.00  0.00    +0.000 A 
ATOM     10  N   UNL     1       7.442   5.910  15.623  0.00  0.00    +0.000 NA
ATOM     11  C   UNL     1       6.663   4.866  15.415  0.00  0.00    +0.000 A 
ATOM     12  C   UNL     1       6.520   4.078  14.168  0.00  0.00    +0.000 C 
ATOM     13  N   UNL     1       5.952   4.616  16.558  0.00  0.00    +0.000 N 
ATOM     14  N   UNL     1       6.330   5.432  17.556  0.00  0.00    +0.000 NA
ENDBRANCH   7  13
ENDBRANCH   1   7
BRANCH   3  15
ATOM     15  C   UNL     1       2.373   6.477  19.238  0.00  0.00    +0.000 C 
BRANCH  15  16
ATOM     16  C   UNL     1       1.646   7.206  20.362  0.00  0.00    +0.000 C 
ATOM     17  O   UNL     1       1.220   6.567  21.329  0.00  0.00    +0.000 OA
ATOM     18  N   UNL     1       1.509   8.554  20.135  0.00  0.00    +0.000 N 
ATOM     19  C   UNL     1       0.881   9.347  21.049  0.00  0.00    +0.000 A 
ATOM     20  N   UNL     1       0.597   9.073  22.296  0.00  0.00    +0.000 NA
ATOM     21  C   UNL     1      -0.199  10.072  22.813  0.00  0.00    +0.000 A 
ATOM     22  C   UNL     1      -0.461  11.119  21.955  0.00  0.00    +0.000 A 
ATOM     23  S   UNL     1       0.365  10.864  20.468  0.00  0.00    +0.000 S 
ATOM     24  H   UNL     1       1.636   8.903  19.192  0.00  0.00    +0.000 HD
ENDBRANCH  15  16
ENDBRANCH   3  15
TORSDOF 4
ENDMDL
MODEL 6
REMARK VINA RESULT:      -6.8      1.980      2.791
REMARK  Name = 
REMARK  6 active torsions:
REMARK  status: ('A' for Active; 'I' for Inactive)
REMARK    1  A    between atoms: C_1  and  C_2
REMARK    2  A    between atoms: C_4  and  C_5
REMARK    3  A    between atoms: N_6  and  C_7
REMARK    4  A    between atoms: C_7  and  C_8
REMARK    5  A    between atoms: N_10  and  C_11
REMARK    6  A    between atoms: C_11  and  C_12
REMARK                            x       y       z     vdW  Elec       q    Type
REMARK                         _______ _______ _______ _____ _____    ______ ____
ROOT
ATOM      1  C   UNL     1       4.833   4.386  18.609  0.00  0.00    +0.000 C 
ATOM      2  C   UNL     1       4.340   5.520  19.541  0.00  0.00    +0.000 C 
ATOM      3  N   UNL     1       2.860   5.627  19.651  0.00  0.00    +0.000 NA
ATOM      4  C   UNL     1       2.350   4.284  20.022  0.00  0.00    +0.000 C 
ATOM      5  C   UNL     1       2.855   3.146  19.118  0.00  0.00    +0.000 C 
ATOM      6  O   UNL     1       4.288   3.131  19.063  0.00  0.00    +0.000 OA
ENDROOT
BRANCH   1   7
ATOM      7  C   UNL     1       6.364   4.310  18.653  0.00  0.00    +0.000 C 
BRANCH   7  13
ATOM      8  C   UNL     1       8.169   8.713  17.941  0.00  0.00    +0.000 C 
ATOM      9  C   UNL     1       7.761   7.323  17.666  0.00  0.00    +0.000 A 
ATOM     10  N   UNL     1       7.602   6.821  16.401  0.00  0.00    +0.000 NA
ATOM     11  C   UNL     1       7.131   5.606  16.608  0.00  0.00    +0.000 A 
ATOM     12  C   UNL     1       6.780   4.587  15.593  0.00  0.00    +0.000 C 
ATOM     13  N   UNL     1       6.981   5.420  17.957  0.00  0.00    +0.000 N 
ATOM     14  N   UNL     1       7.445   6.474  18.649  0.00  0.00    +0.000 NA
ENDBRANCH   7  13
ENDBRANCH   1   7
BRANCH   3  15
ATOM     15  C   UNL     1       2.237   6.080  18.384  0.00  0.00    +0.000 C 
BRANCH  15  16
ATOM     16  C   UNL     1       2.309   7.597  18.248  0.00  0.00    +0.000 C 
ATOM     17  O   UNL     1       3.124   8.102  17.469  0.00  0.00    +0.000 OA
ATOM     18  N   UNL     1       1.440   8.260  19.080  0.00  0.00    +0.000 N 
ATOM     19  C   UNL     1       1.384   9.622  19.077  0.00  0.00    +0.000 A 
ATOM     20  N   UNL     1       1.859  10.447  18.180  0.00  0.00    +0.000 NA
ATOM     21  C   UNL     1       1.750  11.739  18.646  0.00  0.00    +0.000 A 
ATOM     22  C   UNL     1       1.140  11.872  19.874  0.00  0.00    +0.000 A 
ATOM     23  S   UNL     1       0.639  10.326  20.438  0.00  0.00    +0.000 S 
ATOM     24  H   UNL     1       1.042   7.757  19.865  0.00  0.00    +0.000 HD
ENDBRANCH  15  16
ENDBRANCH   3  15
TORSDOF 4
ENDMDL
MODEL 7
REMARK VINA RESULT:      -6.6      1.457      2.275
REMARK  Name = 
REMARK  6 active torsions:
REMARK  status: ('A' for Active; 'I' for Inactive)
REMARK    1  A    between atoms: C_1  and  C_2
REMARK    2  A    between atoms: C_4  and  C_5
REMARK    3  A    between atoms: N_6  and  C_7
REMARK    4  A    between atoms: C_7  and  C_8
REMARK    5  A    between atoms: N_10  and  C_11
REMARK    6  A    between atoms: C_11  and  C_12
REMARK                            x       y       z     vdW  Elec       q    Type
REMARK                         _______ _______ _______ _____ _____    ______ ____
ROOT
ATOM      1  C   UNL     1       3.972   4.731  18.491  0.00  0.00    +0.000 C 
ATOM      2  C   UNL     1       3.952   5.800  19.610  0.00  0.00    +0.000 C 
ATOM      3  N   UNL     1       2.605   6.362  19.903  0.00  0.00    +0.000 NA
ATOM      4  C   UNL     1       1.698   5.214  20.154  0.00  0.00    +0.000 C 
ATOM      5  C   UNL     1       1.731   4.133  19.060  0.00  0.00    +0.000 C 
ATOM      6  O   UNL     1       3.067   3.665  18.839  0.00  0.00    +0.000 OA
ENDROOT
BRANCH   1   7
ATOM      7  C   UNL     1       5.388   4.158  18.350  0.00  0.00    +0.000 C 
BRANCH   7  13
ATOM      8  C   UNL     1       7.988   8.151  17.675  0.00  0.00    +0.000 C 
ATOM      9  C   UNL     1       7.408   6.818  17.426  0.00  0.00    +0.000 A 
ATOM     10  N   UNL     1       7.381   6.227  16.191  0.00  0.00    +0.000 NA
ATOM     11  C   UNL     1       6.689   5.122  16.393  0.00  0.00    +0.000 A 
ATOM     12  C   UNL     1       6.348   4.074  15.402  0.00  0.00    +0.000 C 
ATOM     13  N   UNL     1       6.287   5.091  17.702  0.00  0.00    +0.000 N 
ATOM     14  N   UNL     1       6.796   6.124  18.393  0.00  0.00    +0.000 NA
ENDBRANCH   7  13
ENDBRANCH   1   7
BRANCH   3  15
ATOM     15  C   UNL     1       2.090   7.187  18.784  0.00  0.00    +0.000 C 
BRANCH  15  16
ATOM     16  C   UNL     1       1.553   8.522  19.288  0.00  0.00    +0.000 C 
ATOM     17  O   UNL     1       1.850   9.563  18.692  0.00  0.00    +0.000 OA
ATOM     18  N   UNL     1       0.795   8.408  20.427  0.00  0.00    +0.000 N 
ATOM     19  C   UNL     1       0.242   9.514  21.002  0.00  0.00    +0.000 A 
ATOM     20  N   UNL     1       0.087  10.702  20.480  0.00  0.00    +0.000 NA
ATOM     21  C   UNL     1      -0.347  11.576  21.453  0.00  0.00    +0.000 A 
ATOM     22  C   UNL     1      -0.562  11.015  22.693  0.00  0.00    +0.000 A 
ATOM     23  S   UNL     1      -0.264   9.322  22.618  0.00  0.00    +0.000 S 
ATOM     24  H   UNL     1       0.866   7.558  20.974  0.00  0.00    +0.000 HD
ENDBRANCH  15  16
ENDBRANCH   3  15
TORSDOF 4
ENDMDL
MODEL 8
REMARK VINA RESULT:      -6.4      1.789      2.545
REMARK  Name = 
REMARK  6 active torsions:
REMARK  status: ('A' for Active; 'I' for Inactive)
REMARK    1  A    between atoms: C_1  and  C_2
REMARK    2  A    between atoms: C_4  and  C_5
REMARK    3  A    between atoms: N_6  and  C_7
REMARK    4  A    between atoms: C_7  and  C_8
REMARK    5  A    between atoms: N_10  and  C_11
REMARK    6  A    between atoms: C_11  and  C_12
REMARK                            x       y       z     vdW  Elec       q    Type
REMARK                         _______ _______ _______ _____ _____    ______ ____
ROOT
ATOM      1  C   UNL     1       3.272   4.667  17.658  0.00  0.00    +0.000 C 
ATOM      2  C   UNL     1       3.934   6.018  18.027  0.00  0.00    +0.000 C 
ATOM      3  N   UNL     1       3.062   6.940  18.805  0.00  0.00    +0.000 NA
ATOM      4  C   UNL     1       2.556   6.181  19.975  0.00  0.00    +0.000 C 
ATOM      5  C   UNL     1       1.920   4.825  19.621  0.00  0.00    +0.000 C 
ATOM      6  O   UNL     1       2.828   4.014  18.863  0.00  0.00    +0.000 OA
ENDROOT
BRANCH   1   7
ATOM      7  C   UNL     1       4.294   3.769  16.951  0.00  0.00    +0.000 C 
BRANCH   7  13
ATOM      8  C   UNL     1       8.149   5.537  19.225  0.00  0.00    +0.000 C 
ATOM      9  C   UNL     1       7.309   4.996  18.141  0.00  0.00    +0.000 A 
ATOM     10  N   UNL     1       7.622   5.116  16.812  0.00  0.00    +0.000 NA
ATOM     11  C   UNL     1       6.571   4.606  16.200  0.00  0.00    +0.000 A 
ATOM     12  C   UNL     1       6.357   4.460  14.741  0.00  0.00    +0.000 C 
ATOM     13  N   UNL     1       5.652   4.236  17.144  0.00  0.00    +0.000 N 
ATOM     14  N   UNL     1       6.132   4.408  18.387  0.00  0.00    +0.000 NA
ENDBRANCH   7  13
ENDBRANCH   1   7
BRANCH   3  15
ATOM     15  C   UNL     1       1.929   7.450  17.995  0.00  0.00    +0.000 C 
BRANCH  15  16
ATOM     16  C   UNL     1       1.756   8.953  18.179  0.00  0.00    +0.000 C 
ATOM     17  O   UNL     1       2.263   9.730  17.363  0.00  0.00    +0.000 OA
ATOM     18  N   UNL     1       1.052   9.285  19.310  0.00  0.00    +0.000 N 
ATOM     19  C   UNL     1       0.811  10.592  19.615  0.00  0.00    +0.000 A 
ATOM     20  N   UNL     1       0.919  11.636  18.835  0.00  0.00    +0.000 NA
ATOM     21  C   UNL     1       0.760  12.783  19.582  0.00  0.00    +0.000 A 
ATOM     22  C   UNL     1       0.480  12.582  20.916  0.00  0.00    +0.000 A 
ATOM     23  S   UNL     1       0.359  10.895  21.230  0.00  0.00    +0.000 S 
ATOM     24  H   UNL     1       0.945   8.587  20.037  0.00  0.00    +0.000 HD
ENDBRANCH  15  16
ENDBRANCH   3  15
TORSDOF 4
ENDMDL
MODEL 9
REMARK VINA RESULT:      -6.4      1.851      2.688
REMARK  Name = 
REMARK  6 active torsions:
REMARK  status: ('A' for Active; 'I' for Inactive)
REMARK    1  A    between atoms: C_1  and  C_2
REMARK    2  A    between atoms: C_4  and  C_5
REMARK    3  A    between atoms: N_6  and  C_7
REMARK    4  A    between atoms: C_7  and  C_8
REMARK    5  A    between atoms: N_10  and  C_11
REMARK    6  A    between atoms: C_11  and  C_12
REMARK                            x       y       z     vdW  Elec       q    Type
REMARK                         _______ _______ _______ _____ _____    ______ ____
ROOT
ATOM      1  C   UNL     1       5.640   4.956  16.154  0.00  0.00    +0.000 C 
ATOM      2  C   UNL     1       5.736   5.818  17.437  0.00  0.00    +0.000 C 
ATOM      3  N   UNL     1       4.579   5.678  18.362  0.00  0.00    +0.000 NA
ATOM      4  C   UNL     1       4.403   4.228  18.626  0.00  0.00    +0.000 C 
ATOM      5  C   UNL     1       4.333   3.359  17.358  0.00  0.00    +0.000 C 
ATOM      6  O   UNL     1       5.481   3.572  16.525  0.00  0.00    +0.000 OA
ENDROOT
BRANCH   1   7
ATOM      7  C   UNL     1       6.927   5.107  15.334  0.00  0.00    +0.000 C 
BRANCH   7  13
ATOM      8  C   UNL     1       5.354   2.399  11.681  0.00  0.00    +0.000 C 
ATOM      9  C   UNL     1       6.069   3.466  12.405  0.00  0.00    +0.000 A 
ATOM     10  N   UNL     1       7.116   4.169  11.870  0.00  0.00    +0.000 NA
ATOM     11  C   UNL     1       7.523   4.926  12.871  0.00  0.00    +0.000 A 
ATOM     12  C   UNL     1       8.630   5.911  12.869  0.00  0.00    +0.000 C 
ATOM     13  N   UNL     1       6.759   4.642  13.972  0.00  0.00    +0.000 N 
ATOM     14  N   UNL     1       5.782   3.769  13.676  0.00  0.00    +0.000 NA
ENDBRANCH   7  13
ENDBRANCH   1   7
BRANCH   3  15
ATOM     15  C   UNL     1       3.336   6.249  17.790  0.00  0.00    +0.000 C 
BRANCH  15  16
ATOM     16  C   UNL     1       2.512   6.955  18.862  0.00  0.00    +0.000 C 
ATOM     17  O   UNL     1       2.221   6.355  19.901  0.00  0.00    +0.000 OA
ATOM     18  N   UNL     1       2.139   8.228  18.509  0.00  0.00    +0.000 N 
ATOM     19  C   UNL     1       1.398   8.992  19.361  0.00  0.00    +0.000 A 
ATOM     20  N   UNL     1       1.187   8.803  20.638  0.00  0.00    +0.000 NA
ATOM     21  C   UNL     1       0.239   9.699  21.081  0.00  0.00    +0.000 A 
ATOM     22  C   UNL     1      -0.216  10.591  20.135  0.00  0.00    +0.000 A 
ATOM     23  S   UNL     1       0.616  10.330  18.653  0.00  0.00    +0.000 S 
ATOM     24  H   UNL     1       2.188   8.495  17.532  0.00  0.00    +0.000 HD
ENDBRANCH  15  16
ENDBRANCH   3  15
TORSDOF 4
ENDMDL
