MODEL 1
REMARK VINA RESULT:      -7.5      0.000      0.000
REMARK  Name = 
REMARK  3 active torsions:
REMARK  status: ('A' for Active; 'I' for Inactive)
REMARK    1  A    between atoms: C_1  and  O_2
REMARK    2  A    between atoms: O_2  and  C_3
REMARK    3  A    between atoms: C_9  and  N_10
REMARK                            x       y       z     vdW  Elec       q    Type
REMARK                         _______ _______ _______ _____ _____    ______ ____
ROOT
ATOM      1  C   UNL     1       6.058   4.636  14.999  0.00  0.00    +0.000 A 
ATOM      2  C   UNL     1       5.983   6.023  15.129  0.00  0.00    +0.000 A 
ATOM      3  C   UNL     1       5.173   6.596  16.113  0.00  0.00    +0.000 A 
ATOM      4  C   UNL     1       4.424   5.789  16.969  0.00  0.00    +0.000 A 
ATOM      5  N   UNL     1       3.618   6.353  17.955  0.00  0.00    +0.000 N 
ATOM      6  C   UNL     1       2.818   5.626  18.855  0.00  0.00    +0.000 A 
ATOM      7  C   UNL     1       2.010   6.261  19.827  0.00  0.00    +0.000 A 
ATOM      8  C   UNL     1       1.227   5.505  20.712  0.00  0.00    +0.000 A 
ATOM      9  C   UNL     1       1.246   4.117  20.638  0.00  0.00    +0.000 A 
ATOM     10  C   UNL     1       2.037   3.458  19.687  0.00  0.00    +0.000 A 
ATOM     11 CL   UNL     1       1.949   1.733  19.727  0.00  0.00    +0.000 Cl
ATOM     12  C   UNL     1       2.827   4.204  18.790  0.00  0.00    +0.000 A 
ATOM     13  C   UNL     1       3.693   3.555  17.749  0.00  0.00    +0.000 A 
ATOM     14  O   UNL     1       3.773   2.340  17.624  0.00  0.00    +0.000 OA
ATOM     15  C   UNL     1       4.492   4.401  16.829  0.00  0.00    +0.000 A 
ATOM     16  C   UNL     1       5.298   3.824  15.840  0.00  0.00    +0.000 A 
ATOM     17  H   UNL     1       3.589   7.373  18.009  0.00  0.00    +0.000 HD
ENDROOT
BRANCH   7  18
ATOM     18  N   UNL     1       1.953   7.731  19.945  0.00  0.00    +0.000 N 
ATOM     19  O   UNL     1       2.022   8.411  18.910  0.00  0.00    +0.000 OA
ATOM     20  O   UNL     1       1.838   8.211  21.082  0.00  0.00    +0.000 OA
ENDBRANCH   7  18
BRANCH   1  22
ATOM     21  C   UNL     1       6.094   3.558  12.901  0.00  0.00    +0.000 C 
ATOM     22  O   UNL     1       6.805   3.980  14.060  0.00  0.00    +0.000 OA
ENDBRANCH   1  22
TORSDOF 2
ENDMDL
MODEL 2
REMARK VINA RESULT:      -7.3      3.120      6.086
REMARK  Name = 
REMARK  3 active torsions:
REMARK  status: ('A' for Active; 'I' for Inactive)
REMARK    1  A    between atoms: C_1  and  O_2
REMARK    2  A    between atoms: O_2  and  C_3
REMARK    3  A    between atoms: C_9  and  N_10
REMARK                            x       y       z     vdW  Elec       q    Type
REMARK                         _______ _______ _______ _____ _____    ______ ____
ROOT
ATOM      1  C   UNL     1       1.062   9.846  19.802  0.00  0.00    +0.000 A 
ATOM      2  C   UNL     1       0.532   9.218  20.928  0.00  0.00    +0.000 A 
ATOM      3  C   UNL     1       0.822   7.875  21.188  0.00  0.00    +0.000 A 
ATOM      4  C   UNL     1       1.636   7.148  20.321  0.00  0.00    +0.000 A 
ATOM      5  N   UNL     1       1.933   5.812  20.578  0.00  0.00    +0.000 N 
ATOM      6  C   UNL     1       2.732   4.993  19.758  0.00  0.00    +0.000 A 
ATOM      7  C   UNL     1       2.985   3.636  20.067  0.00  0.00    +0.000 A 
ATOM      8  C   UNL     1       3.790   2.849  19.231  0.00  0.00    +0.000 A 
ATOM      9  C   UNL     1       4.348   3.405  18.086  0.00  0.00    +0.000 A 
ATOM     10  C   UNL     1       4.117   4.747  17.753  0.00  0.00    +0.000 A 
ATOM     11 CL   UNL     1       4.883   5.284  16.300  0.00  0.00    +0.000 Cl
ATOM     12  C   UNL     1       3.310   5.549  18.582  0.00  0.00    +0.000 A 
ATOM     13  C   UNL     1       3.025   6.992  18.277  0.00  0.00    +0.000 A 
ATOM     14  O   UNL     1       3.485   7.560  17.294  0.00  0.00    +0.000 OA
ATOM     15  C   UNL     1       2.156   7.777  19.188  0.00  0.00    +0.000 A 
ATOM     16  C   UNL     1       1.863   9.120  18.920  0.00  0.00    +0.000 A 
ATOM     17  H   UNL     1       1.517   5.391  21.410  0.00  0.00    +0.000 HD
ENDROOT
BRANCH   7  18
ATOM     18  N   UNL     1       2.414   2.997  21.270  0.00  0.00    +0.000 N 
ATOM     19  O   UNL     1       3.158   2.302  21.979  0.00  0.00    +0.000 OA
ATOM     20  O   UNL     1       1.214   3.192  21.508  0.00  0.00    +0.000 OA
ENDBRANCH   7  18
BRANCH   1  22
ATOM     21  C   UNL     1      -0.441  11.395  18.848  0.00  0.00    +0.000 C 
ATOM     22  O   UNL     1       0.826  11.146  19.449  0.00  0.00    +0.000 OA
ENDBRANCH   1  22
TORSDOF 2
ENDMDL
MODEL 3
REMARK VINA RESULT:      -7.3      2.427      3.509
REMARK  Name = 
REMARK  3 active torsions:
REMARK  status: ('A' for Active; 'I' for Inactive)
REMARK    1  A    between atoms: C_1  and  O_2
REMARK    2  A    between atoms: O_2  and  C_3
REMARK    3  A    between atoms: C_9  and  N_10
REMARK                            x       y       z     vdW  Elec       q    Type
REMARK                         _______ _______ _______ _____ _____    ______ ____
ROOT
ATOM      1  C   UNL     1       6.272   5.027  14.981  0.00  0.00    +0.000 A 
ATOM      2  C   UNL     1       6.331   3.706  15.425  0.00  0.00    +0.000 A 
ATOM      3  C   UNL     1       5.588   3.302  16.537  0.00  0.00    +0.000 A 
ATOM      4  C   UNL     1       4.786   4.216  17.220  0.00  0.00    +0.000 A 
ATOM      5  N   UNL     1       4.038   3.818  18.326  0.00  0.00    +0.000 N 
ATOM      6  C   UNL     1       3.212   4.666  19.086  0.00  0.00    +0.000 A 
ATOM      7  C   UNL     1       2.488   4.204  20.210  0.00  0.00    +0.000 A 
ATOM      8  C   UNL     1       1.669   5.075  20.943  0.00  0.00    +0.000 A 
ATOM      9  C   UNL     1       1.565   6.408  20.563  0.00  0.00    +0.000 A 
ATOM     10  C   UNL     1       2.269   6.897  19.455  0.00  0.00    +0.000 A 
ATOM     11 CL   UNL     1       2.030   8.575  19.115  0.00  0.00    +0.000 Cl
ATOM     12  C   UNL     1       3.096   6.035  18.709  0.00  0.00    +0.000 A 
ATOM     13  C   UNL     1       3.876   6.500  17.513  0.00  0.00    +0.000 A 
ATOM     14  O   UNL     1       3.832   7.655  17.108  0.00  0.00    +0.000 OA
ATOM     15  C   UNL     1       4.737   5.540  16.780  0.00  0.00    +0.000 A 
ATOM     16  C   UNL     1       5.485   5.950  15.670  0.00  0.00    +0.000 A 
ATOM     17  H   UNL     1       4.118   2.844  18.620  0.00  0.00    +0.000 HD
ENDROOT
BRANCH   7  18
ATOM     18  N   UNL     1       2.566   2.798  20.655  0.00  0.00    +0.000 N 
ATOM     19  O   UNL     1       2.829   2.569  21.846  0.00  0.00    +0.000 OA
ATOM     20  O   UNL     1       2.361   1.916  19.809  0.00  0.00    +0.000 OA
ENDBRANCH   7  18
BRANCH   1  22
ATOM     21  C   UNL     1       7.139   4.627  12.823  0.00  0.00    +0.000 C 
ATOM     22  O   UNL     1       6.971   5.524  13.917  0.00  0.00    +0.000 OA
ENDBRANCH   1  22
TORSDOF 2
ENDMDL
MODEL 4
REMARK VINA RESULT:      -7.3      3.264      4.748
REMARK  Name = 
REMARK  3 active torsions:
REMARK  status: ('A' for Active; 'I' for Inactive)
REMARK    1  A    between atoms: C_1  and  O_2
REMARK    2  A    between atoms: O_2  and  C_3
REMARK    3  A    between atoms: C_9  and  N_10
REMARK                            x       y       z     vdW  Elec       q    Type
REMARK                         _______ _______ _______ _____ _____    ______ ____
ROOT
ATOM      1  C   UNL     1       7.398   7.515  17.782  0.00  0.00    +0.000 A 
ATOM      2  C   UNL     1       8.199   6.638  18.513  0.00  0.00    +0.000 A 
ATOM      3  C   UNL     1       7.673   5.435  18.993  0.00  0.00    +0.000 A 
ATOM      4  C   UNL     1       6.341   5.102  18.752  0.00  0.00    +0.000 A 
ATOM      5  N   UNL     1       5.812   3.902  19.222  0.00  0.00    +0.000 N 
ATOM      6  C   UNL     1       4.481   3.484  19.043  0.00  0.00    +0.000 A 
ATOM      7  C   UNL     1       4.000   2.258  19.558  0.00  0.00    +0.000 A 
ATOM      8  C   UNL     1       2.668   1.869  19.357  0.00  0.00    +0.000 A 
ATOM      9  C   UNL     1       1.808   2.695  18.642  0.00  0.00    +0.000 A 
ATOM     10  C   UNL     1       2.253   3.915  18.118  0.00  0.00    +0.000 A 
ATOM     11 CL   UNL     1       1.062   4.822  17.255  0.00  0.00    +0.000 Cl
ATOM     12  C   UNL     1       3.588   4.320  18.313  0.00  0.00    +0.000 A 
ATOM     13  C   UNL     1       4.124   5.617  17.778  0.00  0.00    +0.000 A 
ATOM     14  O   UNL     1       3.435   6.396  17.130  0.00  0.00    +0.000 OA
ATOM     15  C   UNL     1       5.538   5.987  18.030  0.00  0.00    +0.000 A 
ATOM     16  C   UNL     1       6.060   7.195  17.553  0.00  0.00    +0.000 A 
ATOM     17  H   UNL     1       6.433   3.295  19.759  0.00  0.00    +0.000 HD
ENDROOT
BRANCH   7  18
ATOM     18  N   UNL     1       4.873   1.346  20.326  0.00  0.00    +0.000 N 
ATOM     19  O   UNL     1       5.239   1.694  21.459  0.00  0.00    +0.000 OA
ATOM     20  O   UNL     1       5.193   0.275  19.792  0.00  0.00    +0.000 OA
ENDBRANCH   7  18
BRANCH   1  22
ATOM     21  C   UNL     1       8.492   9.560  18.213  0.00  0.00    +0.000 C 
ATOM     22  O   UNL     1       7.812   8.720  17.286  0.00  0.00    +0.000 OA
ENDBRANCH   1  22
TORSDOF 2
ENDMDL
MODEL 5
REMARK VINA RESULT:      -7.1      2.536      6.026
REMARK  Name = 
REMARK  3 active torsions:
REMARK  status: ('A' for Active; 'I' for Inactive)
REMARK    1  A    between atoms: C_1  and  O_2
REMARK    2  A    between atoms: O_2  and  C_3
REMARK    3  A    between atoms: C_9  and  N_10
REMARK                            x       y       z     vdW  Elec       q    Type
REMARK                         _______ _______ _______ _____ _____    ______ ____
ROOT
ATOM      1  C   UNL     1       0.827   9.819  19.755  0.00  0.00    +0.000 A 
ATOM      2  C   UNL     1       1.414  10.293  18.583  0.00  0.00    +0.000 A 
ATOM      3  C   UNL     1       2.259   9.470  17.833  0.00  0.00    +0.000 A 
ATOM      4  C   UNL     1       2.529   8.168  18.252  0.00  0.00    +0.000 A 
ATOM      5  N   UNL     1       3.366   7.340  17.507  0.00  0.00    +0.000 N 
ATOM      6  C   UNL     1       3.709   6.021  17.853  0.00  0.00    +0.000 A 
ATOM      7  C   UNL     1       4.576   5.235  17.059  0.00  0.00    +0.000 A 
ATOM      8  C   UNL     1       4.894   3.920  17.431  0.00  0.00    +0.000 A 
ATOM      9  C   UNL     1       4.351   3.380  18.591  0.00  0.00    +0.000 A 
ATOM     10  C   UNL     1       3.487   4.132  19.398  0.00  0.00    +0.000 A 
ATOM     11 CL   UNL     1       2.898   3.315  20.803  0.00  0.00    +0.000 Cl
ATOM     12  C   UNL     1       3.160   5.454  19.039  0.00  0.00    +0.000 A 
ATOM     13  C   UNL     1       2.243   6.310  19.864  0.00  0.00    +0.000 A 
ATOM     14  O   UNL     1       1.716   5.907  20.893  0.00  0.00    +0.000 OA
ATOM     15  C   UNL     1       1.949   7.699  19.432  0.00  0.00    +0.000 A 
ATOM     16  C   UNL     1       1.108   8.523  20.190  0.00  0.00    +0.000 A 
ATOM     17  H   UNL     1       3.779   7.733  16.660  0.00  0.00    +0.000 HD
ENDROOT
BRANCH   7  18
ATOM     18  N   UNL     1       5.181   5.762  15.819  0.00  0.00    +0.000 N 
ATOM     19  O   UNL     1       5.551   6.946  15.800  0.00  0.00    +0.000 OA
ATOM     20  O   UNL     1       5.287   4.988  14.858  0.00  0.00    +0.000 OA
ENDBRANCH   7  18
BRANCH   1  22
ATOM     21  C   UNL     1       0.111  10.265  21.958  0.00  0.00    +0.000 C 
ATOM     22  O   UNL     1       0.003  10.548  20.567  0.00  0.00    +0.000 OA
ENDBRANCH   1  22
TORSDOF 2
ENDMDL
MODEL 6
REMARK VINA RESULT:      -7.1      3.081      5.703
REMARK  Name = 
REMARK  3 active torsions:
REMARK  status: ('A' for Active; 'I' for Inactive)
REMARK    1  A    between atoms: C_1  and  O_2
REMARK    2  A    between atoms: O_2  and  C_3
REMARK    3  A    between atoms: C_9  and  N_10
REMARK                            x       y       z     vdW  Elec       q    Type
REMARK                         _______ _______ _______ _____ _____    ______ ____
ROOT
ATOM      1  C   UNL     1       1.688   9.707  19.000  0.00  0.00    +0.000 A 
ATOM      2  C   UNL     1       1.072   9.252  20.166  0.00  0.00    +0.000 A 
ATOM      3  C   UNL     1       1.205   7.918  20.559  0.00  0.00    +0.000 A 
ATOM      4  C   UNL     1       1.946   7.025  19.787  0.00  0.00    +0.000 A 
ATOM      5  N   UNL     1       2.087   5.694  20.176  0.00  0.00    +0.000 N 
ATOM      6  C   UNL     1       2.802   4.717  19.460  0.00  0.00    +0.000 A 
ATOM      7  C   UNL     1       2.896   3.377  19.902  0.00  0.00    +0.000 A 
ATOM      8  C   UNL     1       3.621   2.428  19.166  0.00  0.00    +0.000 A 
ATOM      9  C   UNL     1       4.257   2.807  17.989  0.00  0.00    +0.000 A 
ATOM     10  C   UNL     1       4.184   4.127  17.525  0.00  0.00    +0.000 A 
ATOM     11 CL   UNL     1       5.029   4.434  16.049  0.00  0.00    +0.000 Cl
ATOM     12  C   UNL     1       3.458   5.090  18.252  0.00  0.00    +0.000 A 
ATOM     13  C   UNL     1       3.342   6.519  17.805  0.00  0.00    +0.000 A 
ATOM     14  O   UNL     1       3.879   6.935  16.786  0.00  0.00    +0.000 OA
ATOM     15  C   UNL     1       2.552   7.479  18.614  0.00  0.00    +0.000 A 
ATOM     16  C   UNL     1       2.417   8.814  18.213  0.00  0.00    +0.000 A 
ATOM     17  H   UNL     1       1.613   5.405  21.033  0.00  0.00    +0.000 HD
ENDROOT
BRANCH   7  18
ATOM     18  N   UNL     1       2.237   2.924  21.144  0.00  0.00    +0.000 N 
ATOM     19  O   UNL     1       1.009   3.066  21.247  0.00  0.00    +0.000 OA
ATOM     20  O   UNL     1       2.952   2.423  22.023  0.00  0.00    +0.000 OA
ENDBRANCH   7  18
BRANCH   1  22
ATOM     21  C   UNL     1       1.328  11.985  19.496  0.00  0.00    +0.000 C 
ATOM     22  O   UNL     1       1.605  10.985  18.520  0.00  0.00    +0.000 OA
ENDBRANCH   1  22
TORSDOF 2
ENDMDL
MODEL 7
REMARK VINA RESULT:      -7.0      2.920      6.360
REMARK  Name = 
REMARK  3 active torsions:
REMARK  status: ('A' for Active; 'I' for Inactive)
REMARK    1  A    between atoms: C_1  and  O_2
REMARK    2  A    between atoms: O_2  and  C_3
REMARK    3  A    between atoms: C_9  and  N_10
REMARK                            x       y       z     vdW  Elec       q    Type
REMARK                         _______ _______ _______ _____ _____    ______ ____
ROOT
ATOM      1  C   UNL     1       0.780   9.336  20.247  0.00  0.00    +0.000 A 
ATOM      2  C   UNL     1       0.593   8.398  21.262  0.00  0.00    +0.000 A 
ATOM      3  C   UNL     1       1.218   7.150  21.193  0.00  0.00    +0.000 A 
ATOM      4  C   UNL     1       2.028   6.826  20.106  0.00  0.00    +0.000 A 
ATOM      5  N   UNL     1       2.658   5.585  20.033  0.00  0.00    +0.000 N 
ATOM      6  C   UNL     1       3.481   5.161  18.974  0.00  0.00    +0.000 A 
ATOM      7  C   UNL     1       4.082   3.881  18.954  0.00  0.00    +0.000 A 
ATOM      8  C   UNL     1       4.902   3.491  17.884  0.00  0.00    +0.000 A 
ATOM      9  C   UNL     1       5.130   4.371  16.832  0.00  0.00    +0.000 A 
ATOM     10  C   UNL     1       4.549   5.647  16.824  0.00  0.00    +0.000 A 
ATOM     11 CL   UNL     1       4.932   6.617  15.446  0.00  0.00    +0.000 Cl
ATOM     12  C   UNL     1       3.723   6.051  17.890  0.00  0.00    +0.000 A 
ATOM     13  C   UNL     1       3.072   7.404  17.936  0.00  0.00    +0.000 A 
ATOM     14  O   UNL     1       3.229   8.240  17.055  0.00  0.00    +0.000 OA
ATOM     15  C   UNL     1       2.204   7.761  19.085  0.00  0.00    +0.000 A 
ATOM     16  C   UNL     1       1.575   9.011  19.147  0.00  0.00    +0.000 A 
ATOM     17  H   UNL     1       2.487   4.928  20.796  0.00  0.00    +0.000 HD
ENDROOT
BRANCH   7  18
ATOM     18  N   UNL     1       3.871   2.909  20.045  0.00  0.00    +0.000 N 
ATOM     19  O   UNL     1       4.842   2.249  20.445  0.00  0.00    +0.000 OA
ATOM     20  O   UNL     1       2.726   2.805  20.507  0.00  0.00    +0.000 OA
ENDBRANCH   7  18
BRANCH   1  22
ATOM     21  C   UNL     1       1.068  11.642  19.845  0.00  0.00    +0.000 C 
ATOM     22  O   UNL     1       0.201  10.574  20.212  0.00  0.00    +0.000 OA
ENDBRANCH   1  22
TORSDOF 2
ENDMDL
MODEL 8
REMARK VINA RESULT:      -6.7      2.474      5.684
REMARK  Name = 
REMARK  3 active torsions:
REMARK  status: ('A' for Active; 'I' for Inactive)
REMARK    1  A    between atoms: C_1  and  O_2
REMARK    2  A    between atoms: O_2  and  C_3
REMARK    3  A    between atoms: C_9  and  N_10
REMARK                            x       y       z     vdW  Elec       q    Type
REMARK                         _______ _______ _______ _____ _____    ______ ____
ROOT
ATOM      1  C   UNL     1       1.237   9.500  19.190  0.00  0.00    +0.000 A 
ATOM      2  C   UNL     1       1.991   9.641  18.025  0.00  0.00    +0.000 A 
ATOM      3  C   UNL     1       2.777   8.583  17.562  0.00  0.00    +0.000 A 
ATOM      4  C   UNL     1       2.824   7.379  18.262  0.00  0.00    +0.000 A 
ATOM      5  N   UNL     1       3.602   6.319  17.803  0.00  0.00    +0.000 N 
ATOM      6  C   UNL     1       3.725   5.073  18.445  0.00  0.00    +0.000 A 
ATOM      7  C   UNL     1       4.544   4.040  17.934  0.00  0.00    +0.000 A 
ATOM      8  C   UNL     1       4.641   2.807  18.596  0.00  0.00    +0.000 A 
ATOM      9  C   UNL     1       3.923   2.595  19.768  0.00  0.00    +0.000 A 
ATOM     10  C   UNL     1       3.102   3.598  20.299  0.00  0.00    +0.000 A 
ATOM     11 CL   UNL     1       2.278   3.176  21.759  0.00  0.00    +0.000 Cl
ATOM     12  C   UNL     1       2.996   4.842  19.646  0.00  0.00    +0.000 A 
ATOM     13  C   UNL     1       2.135   5.956  20.168  0.00  0.00    +0.000 A 
ATOM     14  O   UNL     1       1.464   5.847  21.187  0.00  0.00    +0.000 OA
ATOM     15  C   UNL     1       2.079   7.244  19.435  0.00  0.00    +0.000 A 
ATOM     16  C   UNL     1       1.294   8.304  19.906  0.00  0.00    +0.000 A 
ATOM     17  H   UNL     1       4.143   6.470  16.950  0.00  0.00    +0.000 HD
ENDROOT
BRANCH   7  18
ATOM     18  N   UNL     1       5.328   4.215  16.694  0.00  0.00    +0.000 N 
ATOM     19  O   UNL     1       6.564   4.276  16.780  0.00  0.00    +0.000 OA
ATOM     20  O   UNL     1       4.703   4.291  15.627  0.00  0.00    +0.000 OA
ENDBRANCH   7  18
BRANCH   1  22
ATOM     21  C   UNL     1      -0.812  10.666  19.105  0.00  0.00    +0.000 C 
ATOM     22  O   UNL     1       0.452  10.478  19.735  0.00  0.00    +0.000 OA
ENDBRANCH   1  22
TORSDOF 2
ENDMDL
MODEL 9
REMARK VINA RESULT:      -6.7      2.421      3.615
REMARK  Name = 
REMARK  3 active torsions:
REMARK  status: ('A' for Active; 'I' for Inactive)
REMARK    1  A    between atoms: C_1  and  O_2
REMARK    2  A    between atoms: O_2  and  C_3
REMARK    3  A    between atoms: C_9  and  N_10
REMARK                            x       y       z     vdW  Elec       q    Type
REMARK                         _______ _______ _______ _____ _____    ______ ____
ROOT
ATOM      1  C   UNL     1       6.618   5.076  14.985  0.00  0.00    +0.000 A 
ATOM      2  C   UNL     1       6.326   3.714  14.924  0.00  0.00    +0.000 A 
ATOM      3  C   UNL     1       5.320   3.171  15.727  0.00  0.00    +0.000 A 
ATOM      4  C   UNL     1       4.602   3.983  16.604  0.00  0.00    +0.000 A 
ATOM      5  N   UNL     1       3.594   3.449  17.404  0.00  0.00    +0.000 N 
ATOM      6  C   UNL     1       2.826   4.182  18.327  0.00  0.00    +0.000 A 
ATOM      7  C   UNL     1       1.824   3.577  19.121  0.00  0.00    +0.000 A 
ATOM      8  C   UNL     1       1.073   4.338  20.029  0.00  0.00    +0.000 A 
ATOM      9  C   UNL     1       1.311   5.702  20.150  0.00  0.00    +0.000 A 
ATOM     10  C   UNL     1       2.296   6.331  19.377  0.00  0.00    +0.000 A 
ATOM     11 CL   UNL     1       2.468   8.030  19.647  0.00  0.00    +0.000 Cl
ATOM     12  C   UNL     1       3.060   5.580  18.463  0.00  0.00    +0.000 A 
ATOM     13  C   UNL     1       4.130   6.197  17.608  0.00  0.00    +0.000 A 
ATOM     14  O   UNL     1       4.396   7.392  17.648  0.00  0.00    +0.000 OA
ATOM     15  C   UNL     1       4.905   5.344  16.673  0.00  0.00    +0.000 A 
ATOM     16  C   UNL     1       5.916   5.891  15.874  0.00  0.00    +0.000 A 
ATOM     17  H   UNL     1       3.421   2.446  17.331  0.00  0.00    +0.000 HD
ENDROOT
BRANCH   7  18
ATOM     18  N   UNL     1       1.533   2.132  19.032  0.00  0.00    +0.000 N 
ATOM     19  O   UNL     1       2.469   1.331  19.175  0.00  0.00    +0.000 OA
ATOM     20  O   UNL     1       0.360   1.796  18.817  0.00  0.00    +0.000 OA
ENDBRANCH   7  18
BRANCH   1  22
ATOM     21  C   UNL     1       7.829   5.154  12.962  0.00  0.00    +0.000 C 
ATOM     22  O   UNL     1       7.592   5.700  14.256  0.00  0.00    +0.000 OA
ENDBRANCH   1  22
TORSDOF 2
ENDMDL
