MODEL 1
REMARK VINA RESULT:      -7.9      0.000      0.000
REMARK  Name = 
REMARK  4 active torsions:
REMARK  status: ('A' for Active; 'I' for Inactive)
REMARK    1  A    between atoms: N_11  and  C_12
REMARK    2  A    between atoms: C_12  and  S_13
REMARK    3  A    between atoms: S_13  and  C_14
REMARK    4  A    between atoms: N_18  and  C_19
REMARK                            x       y       z     vdW  Elec       q    Type
REMARK                         _______ _______ _______ _____ _____    ______ ____
ROOT
ATOM      1  S   UNL     1       6.971   4.613  16.996  0.00  0.00    +0.000 S 
ENDROOT
BRANCH   1   2
ATOM      2  C   UNL     1       7.465   6.165  17.636  0.00  0.00    +0.000 A 
ATOM      3  N   UNL     1       8.176   6.281  18.733  0.00  0.00    +0.000 NA
ATOM      4  N   UNL     1       8.490   7.599  19.006  0.00  0.00    +0.000 NA
ATOM      5  C   UNL     1       7.993   8.449  18.124  0.00  0.00    +0.000 A 
ATOM      6  N   UNL     1       8.117   9.801  18.147  0.00  0.00    +0.000 N 
ATOM      7  S   UNL     1       7.088   7.659  16.881  0.00  0.00    +0.000 S 
ATOM      8  H   UNL     1       7.577  10.344  17.483  0.00  0.00    +0.000 HD
BRANCH   6   9
ATOM      9  C   UNL     1       9.246  10.500  18.633  0.00  0.00    +0.000 A 
ATOM     10  C   UNL     1       9.409  10.812  19.990  0.00  0.00    +0.000 A 
ATOM     11  C   UNL     1      10.534  11.506  20.441  0.00  0.00    +0.000 A 
ATOM     12  C   UNL     1      11.504  11.924  19.536  0.00  0.00    +0.000 A 
ATOM     13  C   UNL     1      11.349  11.643  18.181  0.00  0.00    +0.000 A 
ATOM     14  C   UNL     1      10.231  10.928  17.734  0.00  0.00    +0.000 A 
ENDBRANCH   6   9
ENDBRANCH   1   2
BRANCH   1  15
ATOM     15  C   UNL     1       5.289   5.013  16.435  0.00  0.00    +0.000 C 
BRANCH  15  26
ATOM     16  O   UNL     1       3.737   6.799  18.213  0.00  0.00    +0.000 OA
ATOM     17  C   UNL     1       3.638   5.588  18.204  0.00  0.00    +0.000 C 
ATOM     18  C   UNL     1       2.698   4.837  19.038  0.00  0.00    +0.000 A 
ATOM     19  C   UNL     1       1.778   5.274  19.972  0.00  0.00    +0.000 A 
ATOM     20  C   UNL     1       0.995   4.302  20.603  0.00  0.00    +0.000 A 
ATOM     21  C   UNL     1       1.146   2.935  20.289  0.00  0.00    +0.000 A 
ATOM     22  C   UNL     1       2.083   2.519  19.335  0.00  0.00    +0.000 A 
ATOM     23  C   UNL     1       2.845   3.498  18.725  0.00  0.00    +0.000 A 
ATOM     24  C   UNL     1       3.870   3.398  17.687  0.00  0.00    +0.000 C 
ATOM     25  O   UNL     1       4.208   2.354  17.160  0.00  0.00    +0.000 OA
ATOM     26  N   UNL     1       4.306   4.670  17.441  0.00  0.00    +0.000 N 
ENDBRANCH  15  26
ENDBRANCH   1  15
TORSDOF 4
ENDMDL
MODEL 2
REMARK VINA RESULT:      -7.4      6.855     10.088
REMARK  Name = 
REMARK  4 active torsions:
REMARK  status: ('A' for Active; 'I' for Inactive)
REMARK    1  A    between atoms: N_11  and  C_12
REMARK    2  A    between atoms: C_12  and  S_13
REMARK    3  A    between atoms: S_13  and  C_14
REMARK    4  A    between atoms: N_18  and  C_19
REMARK                            x       y       z     vdW  Elec       q    Type
REMARK                         _______ _______ _______ _____ _____    ______ ____
ROOT
ATOM      1  S   UNL     1       0.678  11.276  18.994  0.00  0.00    +0.000 S 
ENDROOT
BRANCH   1   2
ATOM      2  C   UNL     1       1.229   9.657  19.368  0.00  0.00    +0.000 A 
ATOM      3  N   UNL     1       1.047   9.105  20.545  0.00  0.00    +0.000 NA
ATOM      4  N   UNL     1       1.516   7.806  20.582  0.00  0.00    +0.000 NA
ATOM      5  C   UNL     1       2.060   7.413  19.443  0.00  0.00    +0.000 A 
ATOM      6  N   UNL     1       2.623   6.203  19.194  0.00  0.00    +0.000 N 
ATOM      7  S   UNL     1       2.027   8.647  18.234  0.00  0.00    +0.000 S 
ATOM      8  H   UNL     1       3.121   6.077  18.319  0.00  0.00    +0.000 HD
BRANCH   6   9
ATOM      9  C   UNL     1       2.193   4.980  19.757  0.00  0.00    +0.000 A 
ATOM     10  C   UNL     1       2.509   4.606  21.070  0.00  0.00    +0.000 A 
ATOM     11  C   UNL     1       2.072   3.389  21.600  0.00  0.00    +0.000 A 
ATOM     12  C   UNL     1       1.331   2.513  20.814  0.00  0.00    +0.000 A 
ATOM     13  C   UNL     1       1.025   2.857  19.500  0.00  0.00    +0.000 A 
ATOM     14  C   UNL     1       1.446   4.087  18.978  0.00  0.00    +0.000 A 
ENDBRANCH   6   9
ENDBRANCH   1   2
BRANCH   1  15
ATOM     15  C   UNL     1       0.845  12.061  20.626  0.00  0.00    +0.000 C 
BRANCH  15  26
ATOM     16  O   UNL     1      -0.353  10.934  23.086  0.00  0.00    +0.000 OA
ATOM     17  C   UNL     1      -0.900  11.750  22.370  0.00  0.00    +0.000 C 
ATOM     18  C   UNL     1      -2.213  12.333  22.647  0.00  0.00    +0.000 A 
ATOM     19  C   UNL     1      -3.091  12.114  23.692  0.00  0.00    +0.000 A 
ATOM     20  C   UNL     1      -4.282  12.849  23.693  0.00  0.00    +0.000 A 
ATOM     21  C   UNL     1      -4.562  13.775  22.665  0.00  0.00    +0.000 A 
ATOM     22  C   UNL     1      -3.653  13.981  21.620  0.00  0.00    +0.000 A 
ATOM     23  C   UNL     1      -2.484  13.243  21.641  0.00  0.00    +0.000 A 
ATOM     24  C   UNL     1      -1.340  13.244  20.730  0.00  0.00    +0.000 C 
ATOM     25  O   UNL     1      -1.244  13.969  19.757  0.00  0.00    +0.000 OA
ATOM     26  N   UNL     1      -0.450  12.326  21.213  0.00  0.00    +0.000 N 
ENDBRANCH  15  26
ENDBRANCH   1  15
TORSDOF 4
ENDMDL
MODEL 3
REMARK VINA RESULT:      -7.3      1.324      1.760
REMARK  Name = 
REMARK  4 active torsions:
REMARK  status: ('A' for Active; 'I' for Inactive)
REMARK    1  A    between atoms: N_11  and  C_12
REMARK    2  A    between atoms: C_12  and  S_13
REMARK    3  A    between atoms: S_13  and  C_14
REMARK    4  A    between atoms: N_18  and  C_19
REMARK                            x       y       z     vdW  Elec       q    Type
REMARK                         _______ _______ _______ _____ _____    ______ ____
ROOT
ATOM      1  S   UNL     1       6.017   4.044  16.325  0.00  0.00    +0.000 S 
ENDROOT
BRANCH   1   2
ATOM      2  C   UNL     1       6.938   5.428  16.873  0.00  0.00    +0.000 A 
ATOM      3  N   UNL     1       7.469   6.295  16.041  0.00  0.00    +0.000 NA
ATOM      4  N   UNL     1       8.097   7.329  16.708  0.00  0.00    +0.000 NA
ATOM      5  C   UNL     1       8.047   7.210  18.024  0.00  0.00    +0.000 A 
ATOM      6  N   UNL     1       8.595   8.058  18.932  0.00  0.00    +0.000 N 
ATOM      7  S   UNL     1       7.205   5.788  18.529  0.00  0.00    +0.000 S 
ATOM      8  H   UNL     1       8.595   7.782  19.908  0.00  0.00    +0.000 HD
BRANCH   6   9
ATOM      9  C   UNL     1       8.716   9.456  18.761  0.00  0.00    +0.000 A 
ATOM     10  C   UNL     1       8.056  10.148  17.737  0.00  0.00    +0.000 A 
ATOM     11  C   UNL     1       8.195  11.531  17.592  0.00  0.00    +0.000 A 
ATOM     12  C   UNL     1       9.021  12.241  18.456  0.00  0.00    +0.000 A 
ATOM     13  C   UNL     1       9.703  11.569  19.467  0.00  0.00    +0.000 A 
ATOM     14  C   UNL     1       9.544  10.186  19.623  0.00  0.00    +0.000 A 
ENDBRANCH   6   9
ENDBRANCH   1   2
BRANCH   1  15
ATOM     15  C   UNL     1       4.330   4.715  16.429  0.00  0.00    +0.000 C 
BRANCH  15  26
ATOM     16  O   UNL     1       3.766   6.320  18.851  0.00  0.00    +0.000 OA
ATOM     17  C   UNL     1       3.464   5.150  18.719  0.00  0.00    +0.000 C 
ATOM     18  C   UNL     1       2.731   4.376  19.722  0.00  0.00    +0.000 A 
ATOM     19  C   UNL     1       2.252   4.742  20.966  0.00  0.00    +0.000 A 
ATOM     20  C   UNL     1       1.560   3.770  21.698  0.00  0.00    +0.000 A 
ATOM     21  C   UNL     1       1.366   2.474  21.176  0.00  0.00    +0.000 A 
ATOM     22  C   UNL     1       1.859   2.130  19.910  0.00  0.00    +0.000 A 
ATOM     23  C   UNL     1       2.538   3.107  19.207  0.00  0.00    +0.000 A 
ATOM     24  C   UNL     1       3.139   3.077  17.874  0.00  0.00    +0.000 C 
ATOM     25  O   UNL     1       3.105   2.113  17.132  0.00  0.00    +0.000 OA
ATOM     26  N   UNL     1       3.682   4.313  17.660  0.00  0.00    +0.000 N 
ENDBRANCH  15  26
ENDBRANCH   1  15
TORSDOF 4
ENDMDL
MODEL 4
REMARK VINA RESULT:      -7.2      6.450      9.486
REMARK  Name = 
REMARK  4 active torsions:
REMARK  status: ('A' for Active; 'I' for Inactive)
REMARK    1  A    between atoms: N_11  and  C_12
REMARK    2  A    between atoms: C_12  and  S_13
REMARK    3  A    between atoms: S_13  and  C_14
REMARK    4  A    between atoms: N_18  and  C_19
REMARK                            x       y       z     vdW  Elec       q    Type
REMARK                         _______ _______ _______ _____ _____    ______ ____
ROOT
ATOM      1  S   UNL     1       0.510  10.512  20.440  0.00  0.00    +0.000 S 
ENDROOT
BRANCH   1   2
ATOM      2  C   UNL     1       1.341   9.076  19.880  0.00  0.00    +0.000 A 
ATOM      3  N   UNL     1       1.626   8.072  20.676  0.00  0.00    +0.000 NA
ATOM      4  N   UNL     1       2.230   7.032  19.995  0.00  0.00    +0.000 NA
ATOM      5  C   UNL     1       2.407   7.282  18.709  0.00  0.00    +0.000 A 
ATOM      6  N   UNL     1       2.993   6.459  17.801  0.00  0.00    +0.000 N 
ATOM      7  S   UNL     1       1.830   8.845  18.252  0.00  0.00    +0.000 S 
ATOM      8  H   UNL     1       3.184   6.825  16.875  0.00  0.00    +0.000 HD
BRANCH   6   9
ATOM      9  C   UNL     1       2.922   5.047  17.825  0.00  0.00    +0.000 A 
ATOM     10  C   UNL     1       4.047   4.235  17.630  0.00  0.00    +0.000 A 
ATOM     11  C   UNL     1       3.946   2.842  17.657  0.00  0.00    +0.000 A 
ATOM     12  C   UNL     1       2.709   2.237  17.855  0.00  0.00    +0.000 A 
ATOM     13  C   UNL     1       1.575   3.027  18.029  0.00  0.00    +0.000 A 
ATOM     14  C   UNL     1       1.683   4.423  18.023  0.00  0.00    +0.000 A 
ENDBRANCH   6   9
ENDBRANCH   1   2
BRANCH   1  15
ATOM     15  C   UNL     1       0.072  11.275  18.849  0.00  0.00    +0.000 C 
BRANCH  15  26
ATOM     16  O   UNL     1      -1.782   9.883  17.008  0.00  0.00    +0.000 OA
ATOM     17  C   UNL     1      -2.126  10.711  17.830  0.00  0.00    +0.000 C 
ATOM     18  C   UNL     1      -3.516  11.104  18.063  0.00  0.00    +0.000 A 
ATOM     19  C   UNL     1      -4.683  10.683  17.455  0.00  0.00    +0.000 A 
ATOM     20  C   UNL     1      -5.882  11.237  17.917  0.00  0.00    +0.000 A 
ATOM     21  C   UNL     1      -5.886  12.185  18.962  0.00  0.00    +0.000 A 
ATOM     22  C   UNL     1      -4.689  12.592  19.564  0.00  0.00    +0.000 A 
ATOM     23  C   UNL     1      -3.518  12.030  19.091  0.00  0.00    +0.000 A 
ATOM     24  C   UNL     1      -2.131  12.218  19.516  0.00  0.00    +0.000 C 
ATOM     25  O   UNL     1      -1.791  12.940  20.435  0.00  0.00    +0.000 OA
ATOM     26  N   UNL     1      -1.362  11.420  18.716  0.00  0.00    +0.000 N 
ENDBRANCH  15  26
ENDBRANCH   1  15
TORSDOF 4
ENDMDL
MODEL 5
REMARK VINA RESULT:      -7.1      5.541      8.107
REMARK  Name = 
REMARK  4 active torsions:
REMARK  status: ('A' for Active; 'I' for Inactive)
REMARK    1  A    between atoms: N_11  and  C_12
REMARK    2  A    between atoms: C_12  and  S_13
REMARK    3  A    between atoms: S_13  and  C_14
REMARK    4  A    between atoms: N_18  and  C_19
REMARK                            x       y       z     vdW  Elec       q    Type
REMARK                         _______ _______ _______ _____ _____    ______ ____
ROOT
ATOM      1  S   UNL     1       0.935   8.733  21.020  0.00  0.00    +0.000 S 
ENDROOT
BRANCH   1   2
ATOM      2  C   UNL     1       1.825   7.653  19.969  0.00  0.00    +0.000 A 
ATOM      3  N   UNL     1       2.349   8.048  18.832  0.00  0.00    +0.000 NA
ATOM      4  N   UNL     1       3.050   7.034  18.208  0.00  0.00    +0.000 NA
ATOM      5  C   UNL     1       3.022   5.892  18.874  0.00  0.00    +0.000 A 
ATOM      6  N   UNL     1       3.599   4.724  18.495  0.00  0.00    +0.000 N 
ATOM      7  S   UNL     1       2.111   6.002  20.339  0.00  0.00    +0.000 S 
ATOM      8  H   UNL     1       3.392   3.889  19.033  0.00  0.00    +0.000 HD
BRANCH   6   9
ATOM      9  C   UNL     1       4.807   4.617  17.768  0.00  0.00    +0.000 A 
ATOM     10  C   UNL     1       4.838   4.282  16.408  0.00  0.00    +0.000 A 
ATOM     11  C   UNL     1       6.047   4.182  15.715  0.00  0.00    +0.000 A 
ATOM     12  C   UNL     1       7.251   4.391  16.382  0.00  0.00    +0.000 A 
ATOM     13  C   UNL     1       7.242   4.703  17.739  0.00  0.00    +0.000 A 
ATOM     14  C   UNL     1       6.027   4.823  18.425  0.00  0.00    +0.000 A 
ENDBRANCH   6   9
ENDBRANCH   1   2
BRANCH   1  15
ATOM     15  C   UNL     1       1.047  10.278  20.066  0.00  0.00    +0.000 C 
BRANCH  15  26
ATOM     16  O   UNL     1       0.126   9.370  17.404  0.00  0.00    +0.000 OA
ATOM     17  C   UNL     1      -0.525  10.077  18.149  0.00  0.00    +0.000 C 
ATOM     18  C   UNL     1      -1.881  10.542  17.858  0.00  0.00    +0.000 A 
ATOM     19  C   UNL     1      -2.689  10.327  16.758  0.00  0.00    +0.000 A 
ATOM     20  C   UNL     1      -3.967  10.896  16.780  0.00  0.00    +0.000 A 
ATOM     21  C   UNL     1      -4.402  11.656  17.887  0.00  0.00    +0.000 A 
ATOM     22  C   UNL     1      -3.565  11.855  18.992  0.00  0.00    +0.000 A 
ATOM     23  C   UNL     1      -2.307  11.283  18.946  0.00  0.00    +0.000 A 
ATOM     24  C   UNL     1      -1.226  11.280  19.931  0.00  0.00    +0.000 C 
ATOM     25  O   UNL     1      -1.298  11.810  21.024  0.00  0.00    +0.000 OA
ATOM     26  N   UNL     1      -0.198  10.563  19.385  0.00  0.00    +0.000 N 
ENDBRANCH  15  26
ENDBRANCH   1  15
TORSDOF 4
ENDMDL
MODEL 6
REMARK VINA RESULT:      -7.1      6.796      9.488
REMARK  Name = 
REMARK  4 active torsions:
REMARK  status: ('A' for Active; 'I' for Inactive)
REMARK    1  A    between atoms: N_11  and  C_12
REMARK    2  A    between atoms: C_12  and  S_13
REMARK    3  A    between atoms: S_13  and  C_14
REMARK    4  A    between atoms: N_18  and  C_19
REMARK                            x       y       z     vdW  Elec       q    Type
REMARK                         _______ _______ _______ _____ _____    ______ ____
ROOT
ATOM      1  S   UNL     1      -0.063  10.442  21.112  0.00  0.00    +0.000 S 
ENDROOT
BRANCH   1   2
ATOM      2  C   UNL     1       0.941   9.209  20.382  0.00  0.00    +0.000 A 
ATOM      3  N   UNL     1       1.355   8.154  21.044  0.00  0.00    +0.000 NA
ATOM      4  N   UNL     1       2.084   7.297  20.242  0.00  0.00    +0.000 NA
ATOM      5  C   UNL     1       2.222   7.731  19.001  0.00  0.00    +0.000 A 
ATOM      6  N   UNL     1       2.904   7.115  18.003  0.00  0.00    +0.000 N 
ATOM      7  S   UNL     1       1.448   9.255  18.743  0.00  0.00    +0.000 S 
ATOM      8  H   UNL     1       3.042   7.619  17.133  0.00  0.00    +0.000 HD
BRANCH   6   9
ATOM      9  C   UNL     1       3.013   5.714  17.843  0.00  0.00    +0.000 A 
ATOM     10  C   UNL     1       4.240   5.078  17.608  0.00  0.00    +0.000 A 
ATOM     11  C   UNL     1       4.317   3.692  17.452  0.00  0.00    +0.000 A 
ATOM     12  C   UNL     1       3.161   2.920  17.503  0.00  0.00    +0.000 A 
ATOM     13  C   UNL     1       1.930   3.536  17.714  0.00  0.00    +0.000 A 
ATOM     14  C   UNL     1       1.858   4.923  17.891  0.00  0.00    +0.000 A 
ENDBRANCH   6   9
ENDBRANCH   1   2
BRANCH   1  15
ATOM     15  C   UNL     1      -0.317  11.542  19.686  0.00  0.00    +0.000 C 
BRANCH  15  26
ATOM     16  O   UNL     1      -2.477  13.062  21.021  0.00  0.00    +0.000 OA
ATOM     17  C   UNL     1      -2.633  12.380  20.027  0.00  0.00    +0.000 C 
ATOM     18  C   UNL     1      -3.905  12.251  19.315  0.00  0.00    +0.000 A 
ATOM     19  C   UNL     1      -5.142  12.810  19.575  0.00  0.00    +0.000 A 
ATOM     20  C   UNL     1      -6.181  12.510  18.687  0.00  0.00    +0.000 A 
ATOM     21  C   UNL     1      -5.961  11.671  17.574  0.00  0.00    +0.000 A 
ATOM     22  C   UNL     1      -4.697  11.121  17.330  0.00  0.00    +0.000 A 
ATOM     23  C   UNL     1      -3.687  11.432  18.222  0.00  0.00    +0.000 A 
ATOM     24  C   UNL     1      -2.276  11.049  18.234  0.00  0.00    +0.000 C 
ATOM     25  O   UNL     1      -1.748  10.362  17.379  0.00  0.00    +0.000 OA
ATOM     26  N   UNL     1      -1.719  11.631  19.338  0.00  0.00    +0.000 N 
ENDBRANCH  15  26
ENDBRANCH   1  15
TORSDOF 4
ENDMDL
MODEL 7
REMARK VINA RESULT:      -7.1      5.926      8.478
REMARK  Name = 
REMARK  4 active torsions:
REMARK  status: ('A' for Active; 'I' for Inactive)
REMARK    1  A    between atoms: N_11  and  C_12
REMARK    2  A    between atoms: C_12  and  S_13
REMARK    3  A    between atoms: S_13  and  C_14
REMARK    4  A    between atoms: N_18  and  C_19
REMARK                            x       y       z     vdW  Elec       q    Type
REMARK                         _______ _______ _______ _____ _____    ______ ____
ROOT
ATOM      1  S   UNL     1       0.819   8.090  21.438  0.00  0.00    +0.000 S 
ENDROOT
BRANCH   1   2
ATOM      2  C   UNL     1       1.739   7.177  20.261  0.00  0.00    +0.000 A 
ATOM      3  N   UNL     1       2.241   7.727  19.180  0.00  0.00    +0.000 NA
ATOM      4  N   UNL     1       2.973   6.821  18.435  0.00  0.00    +0.000 NA
ATOM      5  C   UNL     1       2.988   5.606  18.957  0.00  0.00    +0.000 A 
ATOM      6  N   UNL     1       3.602   4.513  18.436  0.00  0.00    +0.000 N 
ATOM      7  S   UNL     1       2.083   5.505  20.425  0.00  0.00    +0.000 S 
ATOM      8  H   UNL     1       3.427   3.613  18.868  0.00  0.00    +0.000 HD
BRANCH   6   9
ATOM      9  C   UNL     1       4.808   4.538  17.699  0.00  0.00    +0.000 A 
ATOM     10  C   UNL     1       4.841   4.377  16.307  0.00  0.00    +0.000 A 
ATOM     11  C   UNL     1       6.049   4.405  15.605  0.00  0.00    +0.000 A 
ATOM     12  C   UNL     1       7.249   4.568  16.289  0.00  0.00    +0.000 A 
ATOM     13  C   UNL     1       7.239   4.708  17.675  0.00  0.00    +0.000 A 
ATOM     14  C   UNL     1       6.025   4.701  18.373  0.00  0.00    +0.000 A 
ENDBRANCH   6   9
ENDBRANCH   1   2
BRANCH   1  15
ATOM     15  C   UNL     1       1.117   9.782  20.841  0.00  0.00    +0.000 C 
BRANCH  15  26
ATOM     16  O   UNL     1      -0.623  11.283  18.977  0.00  0.00    +0.000 OA
ATOM     17  C   UNL     1      -0.752  11.286  20.186  0.00  0.00    +0.000 C 
ATOM     18  C   UNL     1      -1.818  11.995  20.893  0.00  0.00    +0.000 A 
ATOM     19  C   UNL     1      -2.850  12.779  20.413  0.00  0.00    +0.000 A 
ATOM     20  C   UNL     1      -3.739  13.314  21.351  0.00  0.00    +0.000 A 
ATOM     21  C   UNL     1      -3.580  13.054  22.729  0.00  0.00    +0.000 A 
ATOM     22  C   UNL     1      -2.529  12.252  23.190  0.00  0.00    +0.000 A 
ATOM     23  C   UNL     1      -1.664  11.735  22.243  0.00  0.00    +0.000 A 
ATOM     24  C   UNL     1      -0.505  10.855  22.392  0.00  0.00    +0.000 C 
ATOM     25  O   UNL     1      -0.123  10.404  23.456  0.00  0.00    +0.000 OA
ATOM     26  N   UNL     1      -0.006  10.646  21.137  0.00  0.00    +0.000 N 
ENDBRANCH  15  26
ENDBRANCH   1  15
TORSDOF 4
ENDMDL
MODEL 8
REMARK VINA RESULT:      -7.0      5.834      8.421
REMARK  Name = 
REMARK  4 active torsions:
REMARK  status: ('A' for Active; 'I' for Inactive)
REMARK    1  A    between atoms: N_11  and  C_12
REMARK    2  A    between atoms: C_12  and  S_13
REMARK    3  A    between atoms: S_13  and  C_14
REMARK    4  A    between atoms: N_18  and  C_19
REMARK                            x       y       z     vdW  Elec       q    Type
REMARK                         _______ _______ _______ _____ _____    ______ ____
ROOT
ATOM      1  S   UNL     1       0.836   7.853  21.438  0.00  0.00    +0.000 S 
ENDROOT
BRANCH   1   2
ATOM      2  C   UNL     1       1.763   6.992  20.229  0.00  0.00    +0.000 A 
ATOM      3  N   UNL     1       2.290   7.591  19.187  0.00  0.00    +0.000 NA
ATOM      4  N   UNL     1       3.022   6.717  18.406  0.00  0.00    +0.000 NA
ATOM      5  C   UNL     1       3.015   5.476  18.863  0.00  0.00    +0.000 A 
ATOM      6  N   UNL     1       3.624   4.405  18.294  0.00  0.00    +0.000 N 
ATOM      7  S   UNL     1       2.085   5.309  20.309  0.00  0.00    +0.000 S 
ATOM      8  H   UNL     1       3.431   3.485  18.675  0.00  0.00    +0.000 HD
BRANCH   6   9
ATOM      9  C   UNL     1       4.842   4.453  17.578  0.00  0.00    +0.000 A 
ATOM     10  C   UNL     1       4.903   4.288  16.188  0.00  0.00    +0.000 A 
ATOM     11  C   UNL     1       6.122   4.339  15.507  0.00  0.00    +0.000 A 
ATOM     12  C   UNL     1       7.306   4.529  16.212  0.00  0.00    +0.000 A 
ATOM     13  C   UNL     1       7.269   4.673  17.597  0.00  0.00    +0.000 A 
ATOM     14  C   UNL     1       6.043   4.643  18.274  0.00  0.00    +0.000 A 
ENDBRANCH   6   9
ENDBRANCH   1   2
BRANCH   1  15
ATOM     15  C   UNL     1       1.206   9.571  20.969  0.00  0.00    +0.000 C 
BRANCH  15  26
ATOM     16  O   UNL     1      -0.110  10.284  23.522  0.00  0.00    +0.000 OA
ATOM     17  C   UNL     1      -0.456  10.701  22.433  0.00  0.00    +0.000 C 
ATOM     18  C   UNL     1      -1.544  11.658  22.231  0.00  0.00    +0.000 A 
ATOM     19  C   UNL     1      -2.388  12.266  23.142  0.00  0.00    +0.000 A 
ATOM     20  C   UNL     1      -3.333  13.166  22.639  0.00  0.00    +0.000 A 
ATOM     21  C   UNL     1      -3.410  13.436  21.256  0.00  0.00    +0.000 A 
ATOM     22  C   UNL     1      -2.540  12.810  20.354  0.00  0.00    +0.000 A 
ATOM     23  C   UNL     1      -1.615  11.925  20.876  0.00  0.00    +0.000 A 
ATOM     24  C   UNL     1      -0.568  11.145  20.218  0.00  0.00    +0.000 C 
ATOM     25  O   UNL     1      -0.334  11.186  19.024  0.00  0.00    +0.000 OA
ATOM     26  N   UNL     1       0.066  10.433  21.198  0.00  0.00    +0.000 N 
ENDBRANCH  15  26
ENDBRANCH   1  15
TORSDOF 4
ENDMDL
MODEL 9
REMARK VINA RESULT:      -7.0      6.770      9.473
REMARK  Name = 
REMARK  4 active torsions:
REMARK  status: ('A' for Active; 'I' for Inactive)
REMARK    1  A    between atoms: N_11  and  C_12
REMARK    2  A    between atoms: C_12  and  S_13
REMARK    3  A    between atoms: S_13  and  C_14
REMARK    4  A    between atoms: N_18  and  C_19
REMARK                            x       y       z     vdW  Elec       q    Type
REMARK                         _______ _______ _______ _____ _____    ______ ____
ROOT
ATOM      1  S   UNL     1       0.198  10.746  20.341  0.00  0.00    +0.000 S 
ENDROOT
BRANCH   1   2
ATOM      2  C   UNL     1       1.127   9.351  19.837  0.00  0.00    +0.000 A 
ATOM      3  N   UNL     1       1.412   8.362  20.652  0.00  0.00    +0.000 NA
ATOM      4  N   UNL     1       2.104   7.351  20.013  0.00  0.00    +0.000 NA
ATOM      5  C   UNL     1       2.344   7.607  18.738  0.00  0.00    +0.000 A 
ATOM      6  N   UNL     1       3.021   6.812  17.870  0.00  0.00    +0.000 N 
ATOM      7  S   UNL     1       1.721   9.140  18.241  0.00  0.00    +0.000 S 
ATOM      8  H   UNL     1       3.248   7.185  16.955  0.00  0.00    +0.000 HD
BRANCH   6   9
ATOM      9  C   UNL     1       3.016   5.399  17.896  0.00  0.00    +0.000 A 
ATOM     10  C   UNL     1       1.833   4.650  17.814  0.00  0.00    +0.000 A 
ATOM     11  C   UNL     1       1.859   3.254  17.844  0.00  0.00    +0.000 A 
ATOM     12  C   UNL     1       3.069   2.582  17.984  0.00  0.00    +0.000 A 
ATOM     13  C   UNL     1       4.252   3.308  18.089  0.00  0.00    +0.000 A 
ATOM     14  C   UNL     1       4.226   4.707  18.037  0.00  0.00    +0.000 A 
ENDBRANCH   6   9
ENDBRANCH   1   2
BRANCH   1  15
ATOM     15  C   UNL     1      -0.413  11.328  18.730  0.00  0.00    +0.000 C 
BRANCH  15  26
ATOM     16  O   UNL     1      -2.107  13.141  20.343  0.00  0.00    +0.000 OA
ATOM     17  C   UNL     1      -2.536  12.353  19.523  0.00  0.00    +0.000 C 
ATOM     18  C   UNL     1      -3.952  12.219  19.178  0.00  0.00    +0.000 A 
ATOM     19  C   UNL     1      -5.062  12.886  19.661  0.00  0.00    +0.000 A 
ATOM     20  C   UNL     1      -6.303  12.547  19.112  0.00  0.00    +0.000 A 
ATOM     21  C   UNL     1      -6.404  11.564  18.104  0.00  0.00    +0.000 A 
ATOM     22  C   UNL     1      -5.263  10.906  17.629  0.00  0.00    +0.000 A 
ATOM     23  C   UNL     1      -4.048  11.258  18.188  0.00  0.00    +0.000 A 
ATOM     24  C   UNL     1      -2.694  10.788  17.898  0.00  0.00    +0.000 C 
ATOM     25  O   UNL     1      -2.426   9.967  17.040  0.00  0.00    +0.000 OA
ATOM     26  N   UNL     1      -1.854  11.466  18.736  0.00  0.00    +0.000 N 
ENDBRANCH  15  26
ENDBRANCH   1  15
TORSDOF 4
ENDMDL
