MODEL 1
REMARK VINA RESULT:      -8.1      0.000      0.000
REMARK  Name = 
REMARK  13 active torsions:
REMARK  status: ('A' for Active; 'I' for Inactive)
REMARK    1  A    between atoms: C_1  and  O_2
REMARK    2  A    between atoms: O_2  and  C_3
REMARK    3  A    between atoms: C_8  and  O_9
REMARK    4  A    between atoms: O_9  and  C_10
REMARK    5  A    between atoms: C_13  and  C_14
REMARK    6  A    between atoms: N_16  and  C_17
REMARK    7  A    between atoms: N_16  and  C_26
REMARK    8  A    between atoms: C_17  and  C_18
REMARK    9  A    between atoms: C_18  and  C_19
REMARK   10  A    between atoms: C_19  and  C_20
REMARK   11  A    between atoms: C_26  and  C_27
REMARK   12  A    between atoms: C_30  and  C_31
REMARK   13  A    between atoms: C_31  and  O_33
REMARK                            x       y       z     vdW  Elec       q    Type
REMARK                         _______ _______ _______ _____ _____    ______ ____
ROOT
ATOM      1  C   UNL     1       0.929  11.471  18.872  0.00  0.00    +0.000 C 
ATOM      2  O   UNL     1       1.913  12.218  18.920  0.00  0.00    +0.000 OA
ATOM      3  N   UNL     1      -0.350  12.009  18.627  0.00  0.00    +0.000 N 
ENDROOT
BRANCH   1   7
ATOM      4  C   UNL     1       2.060   7.374  19.843  0.00  0.00    +0.000 A 
ATOM      5  C   UNL     1       1.447   8.223  20.772  0.00  0.00    +0.000 A 
ATOM      6  C   UNL     1       1.030   9.514  20.408  0.00  0.00    +0.000 A 
ATOM      7  C   UNL     1       1.214  10.003  19.102  0.00  0.00    +0.000 A 
ATOM      8  C   UNL     1       1.803   9.131  18.177  0.00  0.00    +0.000 A 
ATOM      9  C   UNL     1       2.221   7.830  18.540  0.00  0.00    +0.000 A 
BRANCH   4  10
ATOM     10  O   UNL     1       2.452   6.162  20.359  0.00  0.00    +0.000 OA
BRANCH  10  16
ATOM     11  C   UNL     1       2.874   4.463  18.608  0.00  0.00    +0.000 A 
ATOM     12  C   UNL     1       2.389   3.297  17.991  0.00  0.00    +0.000 A 
ATOM     13  C   UNL     1       1.257   2.634  18.468  0.00  0.00    +0.000 A 
ATOM     14  C   UNL     1       0.607   3.117  19.597  0.00  0.00    +0.000 A 
ATOM     15  C   UNL     1       1.088   4.268  20.229  0.00  0.00    +0.000 A 
ATOM     16  C   UNL     1       2.220   4.951  19.748  0.00  0.00    +0.000 A 
BRANCH  11  18
ATOM     17  C   UNL     1       5.247   4.593  18.620  0.00  0.00    +0.000 C 
ATOM     18  O   UNL     1       4.007   4.953  18.027  0.00  0.00    +0.000 OA
ENDBRANCH  11  18
ENDBRANCH  10  16
ENDBRANCH   4  10
ENDBRANCH   1   7
BRANCH   3  19
ATOM     19  C   UNL     1      -0.459  13.467  18.403  0.00  0.00    +0.000 C 
BRANCH  19  20
ATOM     20  C   UNL     1      -0.956  14.309  19.595  0.00  0.00    +0.000 C 
BRANCH  20  21
ATOM     21  C   UNL     1      -0.328  13.972  20.957  0.00  0.00    +0.000 C 
BRANCH  21  22
ATOM     22  C   UNL     1      -1.323  13.364  21.928  0.00  0.00    +0.000 A 
ATOM     23  C   UNL     1      -1.117  12.070  22.430  0.00  0.00    +0.000 A 
ATOM     24  C   UNL     1      -2.021  11.495  23.327  0.00  0.00    +0.000 A 
ATOM     25  C   UNL     1      -3.151  12.205  23.730  0.00  0.00    +0.000 A 
ATOM     26  C   UNL     1      -3.380  13.484  23.230  0.00  0.00    +0.000 A 
ATOM     27  C   UNL     1      -2.467  14.060  22.333  0.00  0.00    +0.000 A 
ENDBRANCH  21  22
ENDBRANCH  20  21
ENDBRANCH  19  20
ENDBRANCH   3  19
BRANCH   3  28
ATOM     28  C   UNL     1      -1.615  11.299  18.782  0.00  0.00    +0.000 C 
BRANCH  28  29
ATOM     29  C   UNL     1      -2.264  10.833  17.496  0.00  0.00    +0.000 A 
ATOM     30  C   UNL     1      -3.324  11.527  16.896  0.00  0.00    +0.000 A 
ATOM     31  C   UNL     1      -3.814  11.136  15.646  0.00  0.00    +0.000 A 
ATOM     32  C   UNL     1      -3.247  10.049  14.970  0.00  0.00    +0.000 A 
ATOM     33  C   UNL     1      -2.191   9.347  15.559  0.00  0.00    +0.000 A 
ATOM     34  C   UNL     1      -1.709   9.737  16.815  0.00  0.00    +0.000 A 
BRANCH  32  35
ATOM     35  C   UNL     1      -3.752   9.733  13.610  0.00  0.00    +0.000 C 
ATOM     36  O   UNL     1      -3.008   9.568  12.659  0.00  0.00    +0.000 OA
BRANCH  35  37
ATOM     37  O   UNL     1      -5.094   9.643  13.513  0.00  0.00    +0.000 OA
ATOM     38  H   UNL     1      -5.486   8.838  13.892  0.00  0.00    +0.000 HD
ENDBRANCH  35  37
ENDBRANCH  32  35
ENDBRANCH  28  29
ENDBRANCH   3  28
TORSDOF 12
ENDMDL
MODEL 2
REMARK VINA RESULT:      -7.9      2.972      5.871
REMARK  Name = 
REMARK  13 active torsions:
REMARK  status: ('A' for Active; 'I' for Inactive)
REMARK    1  A    between atoms: C_1  and  O_2
REMARK    2  A    between atoms: O_2  and  C_3
REMARK    3  A    between atoms: C_8  and  O_9
REMARK    4  A    between atoms: O_9  and  C_10
REMARK    5  A    between atoms: C_13  and  C_14
REMARK    6  A    between atoms: N_16  and  C_17
REMARK    7  A    between atoms: N_16  and  C_26
REMARK    8  A    between atoms: C_17  and  C_18
REMARK    9  A    between atoms: C_18  and  C_19
REMARK   10  A    between atoms: C_19  and  C_20
REMARK   11  A    between atoms: C_26  and  C_27
REMARK   12  A    between atoms: C_30  and  C_31
REMARK   13  A    between atoms: C_31  and  O_33
REMARK                            x       y       z     vdW  Elec       q    Type
REMARK                         _______ _______ _______ _____ _____    ______ ____
ROOT
ATOM      1  C   UNL     1      -0.595  11.381  19.562  0.00  0.00    +0.000 C 
ATOM      2  O   UNL     1      -1.570  11.481  18.809  0.00  0.00    +0.000 OA
ATOM      3  N   UNL     1      -0.271  12.439  20.435  0.00  0.00    +0.000 N 
ENDROOT
BRANCH   1   7
ATOM      4  C   UNL     1       1.924   7.823  19.567  0.00  0.00    +0.000 A 
ATOM      5  C   UNL     1       1.161   8.204  20.678  0.00  0.00    +0.000 A 
ATOM      6  C   UNL     1       0.304   9.316  20.621  0.00  0.00    +0.000 A 
ATOM      7  C   UNL     1       0.183  10.088  19.452  0.00  0.00    +0.000 A 
ATOM      8  C   UNL     1       0.932   9.678  18.341  0.00  0.00    +0.000 A 
ATOM      9  C   UNL     1       1.792   8.558  18.395  0.00  0.00    +0.000 A 
BRANCH   4  10
ATOM     10  O   UNL     1       2.746   6.744  19.790  0.00  0.00    +0.000 OA
BRANCH  10  16
ATOM     11  C   UNL     1       2.670   4.767  18.302  0.00  0.00    +0.000 A 
ATOM     12  C   UNL     1       2.088   3.505  18.088  0.00  0.00    +0.000 A 
ATOM     13  C   UNL     1       1.233   2.927  19.028  0.00  0.00    +0.000 A 
ATOM     14  C   UNL     1       0.971   3.595  20.218  0.00  0.00    +0.000 A 
ATOM     15  C   UNL     1       1.555   4.845  20.448  0.00  0.00    +0.000 A 
ATOM     16  C   UNL     1       2.407   5.443  19.502  0.00  0.00    +0.000 A 
BRANCH  11  18
ATOM     17  C   UNL     1       4.624   4.328  17.022  0.00  0.00    +0.000 C 
ATOM     18  O   UNL     1       3.502   5.158  17.294  0.00  0.00    +0.000 OA
ENDBRANCH  11  18
ENDBRANCH  10  16
ENDBRANCH   4  10
ENDBRANCH   1   7
BRANCH   3  19
ATOM     19  C   UNL     1      -1.144  13.632  20.436  0.00  0.00    +0.000 C 
BRANCH  19  20
ATOM     20  C   UNL     1      -0.884  14.673  19.329  0.00  0.00    +0.000 C 
BRANCH  20  21
ATOM     21  C   UNL     1      -0.006  15.868  19.730  0.00  0.00    +0.000 C 
BRANCH  21  22
ATOM     22  C   UNL     1       0.265  16.812  18.573  0.00  0.00    +0.000 A 
ATOM     23  C   UNL     1       1.578  17.011  18.119  0.00  0.00    +0.000 A 
ATOM     24  C   UNL     1       1.846  17.874  17.053  0.00  0.00    +0.000 A 
ATOM     25  C   UNL     1       0.803  18.557  16.429  0.00  0.00    +0.000 A 
ATOM     26  C   UNL     1      -0.504  18.384  16.876  0.00  0.00    +0.000 A 
ATOM     27  C   UNL     1      -0.769  17.512  17.945  0.00  0.00    +0.000 A 
ENDBRANCH  21  22
ENDBRANCH  20  21
ENDBRANCH  19  20
ENDBRANCH   3  19
BRANCH   3  28
ATOM     28  C   UNL     1       0.970  12.564  21.193  0.00  0.00    +0.000 C 
BRANCH  28  29
ATOM     29  C   UNL     1       2.118  13.227  20.462  0.00  0.00    +0.000 A 
ATOM     30  C   UNL     1       2.311  13.081  19.080  0.00  0.00    +0.000 A 
ATOM     31  C   UNL     1       3.308  13.807  18.421  0.00  0.00    +0.000 A 
ATOM     32  C   UNL     1       4.124  14.697  19.130  0.00  0.00    +0.000 A 
ATOM     33  C   UNL     1       3.943  14.849  20.508  0.00  0.00    +0.000 A 
ATOM     34  C   UNL     1       2.949  14.113  21.165  0.00  0.00    +0.000 A 
BRANCH  32  35
ATOM     35  C   UNL     1       5.108  15.502  18.363  0.00  0.00    +0.000 C 
ATOM     36  O   UNL     1       5.135  16.719  18.411  0.00  0.00    +0.000 OA
BRANCH  35  37
ATOM     37  O   UNL     1       5.967  14.780  17.614  0.00  0.00    +0.000 OA
ATOM     38  H   UNL     1       5.942  13.819  17.763  0.00  0.00    +0.000 HD
ENDBRANCH  35  37
ENDBRANCH  32  35
ENDBRANCH  28  29
ENDBRANCH   3  28
TORSDOF 12
ENDMDL
MODEL 3
REMARK VINA RESULT:      -7.8      2.789      5.186
REMARK  Name = 
REMARK  13 active torsions:
REMARK  status: ('A' for Active; 'I' for Inactive)
REMARK    1  A    between atoms: C_1  and  O_2
REMARK    2  A    between atoms: O_2  and  C_3
REMARK    3  A    between atoms: C_8  and  O_9
REMARK    4  A    between atoms: O_9  and  C_10
REMARK    5  A    between atoms: C_13  and  C_14
REMARK    6  A    between atoms: N_16  and  C_17
REMARK    7  A    between atoms: N_16  and  C_26
REMARK    8  A    between atoms: C_17  and  C_18
REMARK    9  A    between atoms: C_18  and  C_19
REMARK   10  A    between atoms: C_19  and  C_20
REMARK   11  A    between atoms: C_26  and  C_27
REMARK   12  A    between atoms: C_30  and  C_31
REMARK   13  A    between atoms: C_31  and  O_33
REMARK                            x       y       z     vdW  Elec       q    Type
REMARK                         _______ _______ _______ _____ _____    ______ ____
ROOT
ATOM      1  C   UNL     1       1.173  11.412  18.656  0.00  0.00    +0.000 C 
ATOM      2  O   UNL     1       2.191  12.106  18.556  0.00  0.00    +0.000 OA
ATOM      3  N   UNL     1      -0.098  12.013  18.572  0.00  0.00    +0.000 N 
ENDROOT
BRANCH   1   7
ATOM      4  C   UNL     1       2.164   7.277  19.621  0.00  0.00    +0.000 A 
ATOM      5  C   UNL     1       1.545   8.134  20.539  0.00  0.00    +0.000 A 
ATOM      6  C   UNL     1       1.174   9.439  20.175  0.00  0.00    +0.000 A 
ATOM      7  C   UNL     1       1.412   9.934  18.880  0.00  0.00    +0.000 A 
ATOM      8  C   UNL     1       2.007   9.056  17.965  0.00  0.00    +0.000 A 
ATOM      9  C   UNL     1       2.378   7.741  18.328  0.00  0.00    +0.000 A 
BRANCH   4  10
ATOM     10  O   UNL     1       2.507   6.050  20.136  0.00  0.00    +0.000 OA
BRANCH  10  16
ATOM     11  C   UNL     1       3.832   4.448  18.792  0.00  0.00    +0.000 A 
ATOM     12  C   UNL     1       3.771   3.370  17.891  0.00  0.00    +0.000 A 
ATOM     13  C   UNL     1       2.557   2.770  17.551  0.00  0.00    +0.000 A 
ATOM     14  C   UNL     1       1.382   3.224  18.136  0.00  0.00    +0.000 A 
ATOM     15  C   UNL     1       1.431   4.287  19.044  0.00  0.00    +0.000 A 
ATOM     16  C   UNL     1       2.647   4.908  19.384  0.00  0.00    +0.000 A 
BRANCH  11  18
ATOM     17  C   UNL     1       5.632   5.854  18.135  0.00  0.00    +0.000 C 
ATOM     18  O   UNL     1       5.102   4.884  19.030  0.00  0.00    +0.000 OA
ENDBRANCH  11  18
ENDBRANCH  10  16
ENDBRANCH   4  10
ENDBRANCH   1   7
BRANCH   3  19
ATOM     19  C   UNL     1      -0.163  13.471  18.330  0.00  0.00    +0.000 C 
BRANCH  19  20
ATOM     20  C   UNL     1      -0.055  14.377  19.573  0.00  0.00    +0.000 C 
BRANCH  20  21
ATOM     21  C   UNL     1       1.034  15.460  19.517  0.00  0.00    +0.000 C 
BRANCH  21  22
ATOM     22  C   UNL     1       0.707  16.571  18.537  0.00  0.00    +0.000 A 
ATOM     23  C   UNL     1      -0.608  17.046  18.424  0.00  0.00    +0.000 A 
ATOM     24  C   UNL     1      -0.927  18.070  17.529  0.00  0.00    +0.000 A 
ATOM     25  C   UNL     1       0.065  18.631  16.726  0.00  0.00    +0.000 A 
ATOM     26  C   UNL     1       1.373  18.160  16.813  0.00  0.00    +0.000 A 
ATOM     27  C   UNL     1       1.690  17.134  17.717  0.00  0.00    +0.000 A 
ENDBRANCH  21  22
ENDBRANCH  20  21
ENDBRANCH  19  20
ENDBRANCH   3  19
BRANCH   3  28
ATOM     28  C   UNL     1      -1.365  11.374  18.910  0.00  0.00    +0.000 C 
BRANCH  28  29
ATOM     29  C   UNL     1      -2.045  11.891  20.160  0.00  0.00    +0.000 A 
ATOM     30  C   UNL     1      -3.295  12.527  20.126  0.00  0.00    +0.000 A 
ATOM     31  C   UNL     1      -3.947  12.879  21.311  0.00  0.00    +0.000 A 
ATOM     32  C   UNL     1      -3.364  12.595  22.552  0.00  0.00    +0.000 A 
ATOM     33  C   UNL     1      -2.118  11.965  22.600  0.00  0.00    +0.000 A 
ATOM     34  C   UNL     1      -1.465  11.622  21.409  0.00  0.00    +0.000 A 
BRANCH  32  35
ATOM     35  C   UNL     1      -4.141  12.917  23.777  0.00  0.00    +0.000 C 
ATOM     36  O   UNL     1      -4.386  12.084  24.632  0.00  0.00    +0.000 OA
BRANCH  35  37
ATOM     37  O   UNL     1      -4.550  14.199  23.865  0.00  0.00    +0.000 OA
ATOM     38  H   UNL     1      -4.241  14.681  24.651  0.00  0.00    +0.000 HD
ENDBRANCH  35  37
ENDBRANCH  32  35
ENDBRANCH  28  29
ENDBRANCH   3  28
TORSDOF 12
ENDMDL
MODEL 4
REMARK VINA RESULT:      -7.8      1.846      3.394
REMARK  Name = 
REMARK  13 active torsions:
REMARK  status: ('A' for Active; 'I' for Inactive)
REMARK    1  A    between atoms: C_1  and  O_2
REMARK    2  A    between atoms: O_2  and  C_3
REMARK    3  A    between atoms: C_8  and  O_9
REMARK    4  A    between atoms: O_9  and  C_10
REMARK    5  A    between atoms: C_13  and  C_14
REMARK    6  A    between atoms: N_16  and  C_17
REMARK    7  A    between atoms: N_16  and  C_26
REMARK    8  A    between atoms: C_17  and  C_18
REMARK    9  A    between atoms: C_18  and  C_19
REMARK   10  A    between atoms: C_19  and  C_20
REMARK   11  A    between atoms: C_26  and  C_27
REMARK   12  A    between atoms: C_30  and  C_31
REMARK   13  A    between atoms: C_31  and  O_33
REMARK                            x       y       z     vdW  Elec       q    Type
REMARK                         _______ _______ _______ _____ _____    ______ ____
ROOT
ATOM      1  C   UNL     1       0.398  11.265  20.002  0.00  0.00    +0.000 C 
ATOM      2  O   UNL     1       1.200  12.081  20.471  0.00  0.00    +0.000 OA
ATOM      3  N   UNL     1      -0.928  11.657  19.734  0.00  0.00    +0.000 N 
ENDROOT
BRANCH   1   7
ATOM      4  C   UNL     1       2.312   7.365  19.620  0.00  0.00    +0.000 A 
ATOM      5  C   UNL     1       1.736   7.805  20.819  0.00  0.00    +0.000 A 
ATOM      6  C   UNL     1       1.064   9.037  20.890  0.00  0.00    +0.000 A 
ATOM      7  C   UNL     1       0.947   9.874  19.767  0.00  0.00    +0.000 A 
ATOM      8  C   UNL     1       1.504   9.408  18.569  0.00  0.00    +0.000 A 
ATOM      9  C   UNL     1       2.178   8.167  18.493  0.00  0.00    +0.000 A 
BRANCH   4  10
ATOM     10  O   UNL     1       2.971   6.164  19.718  0.00  0.00    +0.000 OA
BRANCH  10  16
ATOM     11  C   UNL     1       2.562   4.259  18.190  0.00  0.00    +0.000 A 
ATOM     12  C   UNL     1       1.770   3.124  17.948  0.00  0.00    +0.000 A 
ATOM     13  C   UNL     1       0.819   2.686  18.871  0.00  0.00    +0.000 A 
ATOM     14  C   UNL     1       0.668   3.367  20.073  0.00  0.00    +0.000 A 
ATOM     15  C   UNL     1       1.461   4.490  20.332  0.00  0.00    +0.000 A 
ATOM     16  C   UNL     1       2.412   4.948  19.403  0.00  0.00    +0.000 A 
BRANCH  11  18
ATOM     17  C   UNL     1       4.518   5.416  17.494  0.00  0.00    +0.000 C 
ATOM     18  O   UNL     1       3.458   4.518  17.194  0.00  0.00    +0.000 OA
ENDBRANCH  11  18
ENDBRANCH  10  16
ENDBRANCH   4  10
ENDBRANCH   1   7
BRANCH   3  19
ATOM     19  C   UNL     1      -1.305  13.063  20.001  0.00  0.00    +0.000 C 
BRANCH  19  20
ATOM     20  C   UNL     1      -0.722  14.122  19.044  0.00  0.00    +0.000 C 
BRANCH  20  21
ATOM     21  C   UNL     1      -0.470  15.508  19.658  0.00  0.00    +0.000 C 
BRANCH  21  22
ATOM     22  C   UNL     1       0.114  16.493  18.662  0.00  0.00    +0.000 A 
ATOM     23  C   UNL     1      -0.731  17.351  17.942  0.00  0.00    +0.000 A 
ATOM     24  C   UNL     1      -0.212  18.266  17.023  0.00  0.00    +0.000 A 
ATOM     25  C   UNL     1       1.164  18.332  16.805  0.00  0.00    +0.000 A 
ATOM     26  C   UNL     1       2.016  17.477  17.499  0.00  0.00    +0.000 A 
ATOM     27  C   UNL     1       1.490  16.562  18.425  0.00  0.00    +0.000 A 
ENDBRANCH  21  22
ENDBRANCH  20  21
ENDBRANCH  19  20
ENDBRANCH   3  19
BRANCH   3  28
ATOM     28  C   UNL     1      -2.033  10.758  19.416  0.00  0.00    +0.000 C 
BRANCH  28  29
ATOM     29  C   UNL     1      -2.353  10.614  17.943  0.00  0.00    +0.000 A 
ATOM     30  C   UNL     1      -1.632   9.756  17.099  0.00  0.00    +0.000 A 
ATOM     31  C   UNL     1      -2.035   9.556  15.775  0.00  0.00    +0.000 A 
ATOM     32  C   UNL     1      -3.172  10.203  15.275  0.00  0.00    +0.000 A 
ATOM     33  C   UNL     1      -3.898  11.062  16.105  0.00  0.00    +0.000 A 
ATOM     34  C   UNL     1      -3.484  11.266  17.427  0.00  0.00    +0.000 A 
BRANCH  32  35
ATOM     35  C   UNL     1      -3.600   9.887  13.888  0.00  0.00    +0.000 C 
ATOM     36  O   UNL     1      -2.804   9.646  12.998  0.00  0.00    +0.000 OA
BRANCH  35  37
ATOM     37  O   UNL     1      -4.935   9.887  13.696  0.00  0.00    +0.000 OA
ATOM     38  H   UNL     1      -5.435  10.509  14.251  0.00  0.00    +0.000 HD
ENDBRANCH  35  37
ENDBRANCH  32  35
ENDBRANCH  28  29
ENDBRANCH   3  28
TORSDOF 12
ENDMDL
MODEL 5
REMARK VINA RESULT:      -7.8      1.326      2.187
REMARK  Name = 
REMARK  13 active torsions:
REMARK  status: ('A' for Active; 'I' for Inactive)
REMARK    1  A    between atoms: C_1  and  O_2
REMARK    2  A    between atoms: O_2  and  C_3
REMARK    3  A    between atoms: C_8  and  O_9
REMARK    4  A    between atoms: O_9  and  C_10
REMARK    5  A    between atoms: C_13  and  C_14
REMARK    6  A    between atoms: N_16  and  C_17
REMARK    7  A    between atoms: N_16  and  C_26
REMARK    8  A    between atoms: C_17  and  C_18
REMARK    9  A    between atoms: C_18  and  C_19
REMARK   10  A    between atoms: C_19  and  C_20
REMARK   11  A    between atoms: C_26  and  C_27
REMARK   12  A    between atoms: C_30  and  C_31
REMARK   13  A    between atoms: C_31  and  O_33
REMARK                            x       y       z     vdW  Elec       q    Type
REMARK                         _______ _______ _______ _____ _____    ______ ____
ROOT
ATOM      1  C   UNL     1       0.690  11.610  19.458  0.00  0.00    +0.000 C 
ATOM      2  O   UNL     1       1.625  12.392  19.662  0.00  0.00    +0.000 OA
ATOM      3  N   UNL     1      -0.631  12.095  19.396  0.00  0.00    +0.000 N 
ENDROOT
BRANCH   1   7
ATOM      4  C   UNL     1       2.138   7.499  19.326  0.00  0.00    +0.000 A 
ATOM      5  C   UNL     1       1.551   8.052  20.471  0.00  0.00    +0.000 A 
ATOM      6  C   UNL     1       1.029   9.356  20.460  0.00  0.00    +0.000 A 
ATOM      7  C   UNL     1       1.080  10.156  19.305  0.00  0.00    +0.000 A 
ATOM      8  C   UNL     1       1.646   9.579  18.159  0.00  0.00    +0.000 A 
ATOM      9  C   UNL     1       2.168   8.265  18.167  0.00  0.00    +0.000 A 
BRANCH   4  10
ATOM     10  O   UNL     1       2.642   6.233  19.505  0.00  0.00    +0.000 OA
BRANCH  10  16
ATOM     11  C   UNL     1       2.652   4.438  17.800  0.00  0.00    +0.000 A 
ATOM     12  C   UNL     1       3.456   3.653  16.956  0.00  0.00    +0.000 A 
ATOM     13  C   UNL     1       4.828   3.881  16.834  0.00  0.00    +0.000 A 
ATOM     14  C   UNL     1       5.413   4.926  17.539  0.00  0.00    +0.000 A 
ATOM     15  C   UNL     1       4.621   5.722  18.373  0.00  0.00    +0.000 A 
ATOM     16  C   UNL     1       3.240   5.493  18.513  0.00  0.00    +0.000 A 
BRANCH  11  18
ATOM     17  C   UNL     1       0.902   3.089  18.676  0.00  0.00    +0.000 C 
ATOM     18  O   UNL     1       1.332   4.093  17.766  0.00  0.00    +0.000 OA
ENDBRANCH  11  18
ENDBRANCH  10  16
ENDBRANCH   4  10
ENDBRANCH   1   7
BRANCH   3  19
ATOM     19  C   UNL     1      -0.845  13.551  19.547  0.00  0.00    +0.000 C 
BRANCH  19  20
ATOM     20  C   UNL     1      -1.095  14.061  20.980  0.00  0.00    +0.000 C 
BRANCH  20  21
ATOM     21  C   UNL     1      -2.351  14.926  21.170  0.00  0.00    +0.000 C 
BRANCH  21  22
ATOM     22  C   UNL     1      -3.604  14.099  21.393  0.00  0.00    +0.000 A 
ATOM     23  C   UNL     1      -4.019  13.786  22.696  0.00  0.00    +0.000 A 
ATOM     24  C   UNL     1      -5.171  13.029  22.921  0.00  0.00    +0.000 A 
ATOM     25  C   UNL     1      -5.924  12.566  21.842  0.00  0.00    +0.000 A 
ATOM     26  C   UNL     1      -5.518  12.854  20.541  0.00  0.00    +0.000 A 
ATOM     27  C   UNL     1      -4.362  13.619  20.321  0.00  0.00    +0.000 A 
ENDBRANCH  21  22
ENDBRANCH  20  21
ENDBRANCH  19  20
ENDBRANCH   3  19
BRANCH   3  28
ATOM     28  C   UNL     1      -1.839  11.276  19.406  0.00  0.00    +0.000 C 
BRANCH  28  29
ATOM     29  C   UNL     1      -2.356  10.857  18.046  0.00  0.00    +0.000 A 
ATOM     30  C   UNL     1      -3.393  11.541  17.395  0.00  0.00    +0.000 A 
ATOM     31  C   UNL     1      -3.758  11.202  16.088  0.00  0.00    +0.000 A 
ATOM     32  C   UNL     1      -3.088  10.178  15.408  0.00  0.00    +0.000 A 
ATOM     33  C   UNL     1      -2.055   9.487  16.047  0.00  0.00    +0.000 A 
ATOM     34  C   UNL     1      -1.699   9.825  17.359  0.00  0.00    +0.000 A 
BRANCH  32  35
ATOM     35  C   UNL     1      -3.463   9.919  13.994  0.00  0.00    +0.000 C 
ATOM     36  O   UNL     1      -2.634   9.798  13.110  0.00  0.00    +0.000 OA
BRANCH  35  37
ATOM     37  O   UNL     1      -4.790   9.829  13.770  0.00  0.00    +0.000 OA
ATOM     38  H   UNL     1      -5.179   8.952  13.923  0.00  0.00    +0.000 HD
ENDBRANCH  35  37
ENDBRANCH  32  35
ENDBRANCH  28  29
ENDBRANCH   3  28
TORSDOF 12
ENDMDL
MODEL 6
REMARK VINA RESULT:      -7.7      1.976      3.516
REMARK  Name = 
REMARK  13 active torsions:
REMARK  status: ('A' for Active; 'I' for Inactive)
REMARK    1  A    between atoms: C_1  and  O_2
REMARK    2  A    between atoms: O_2  and  C_3
REMARK    3  A    between atoms: C_8  and  O_9
REMARK    4  A    between atoms: O_9  and  C_10
REMARK    5  A    between atoms: C_13  and  C_14
REMARK    6  A    between atoms: N_16  and  C_17
REMARK    7  A    between atoms: N_16  and  C_26
REMARK    8  A    between atoms: C_17  and  C_18
REMARK    9  A    between atoms: C_18  and  C_19
REMARK   10  A    between atoms: C_19  and  C_20
REMARK   11  A    between atoms: C_26  and  C_27
REMARK   12  A    between atoms: C_30  and  C_31
REMARK   13  A    between atoms: C_31  and  O_33
REMARK                            x       y       z     vdW  Elec       q    Type
REMARK                         _______ _______ _______ _____ _____    ______ ____
ROOT
ATOM      1  C   UNL     1       1.325   8.747  20.796  0.00  0.00    +0.000 C 
ATOM      2  O   UNL     1       1.141   8.398  21.967  0.00  0.00    +0.000 OA
ATOM      3  N   UNL     1       1.008  10.061  20.397  0.00  0.00    +0.000 N 
ENDROOT
BRANCH   1   7
ATOM      4  C   UNL     1       3.259   5.618  18.455  0.00  0.00    +0.000 A 
ATOM      5  C   UNL     1       2.695   5.374  19.713  0.00  0.00    +0.000 A 
ATOM      6  C   UNL     1       2.016   6.387  20.411  0.00  0.00    +0.000 A 
ATOM      7  C   UNL     1       1.880   7.680  19.877  0.00  0.00    +0.000 A 
ATOM      8  C   UNL     1       2.426   7.902  18.606  0.00  0.00    +0.000 A 
ATOM      9  C   UNL     1       3.106   6.883  17.900  0.00  0.00    +0.000 A 
BRANCH   4  10
ATOM     10  O   UNL     1       3.928   4.545  17.918  0.00  0.00    +0.000 OA
BRANCH  10  16
ATOM     11  C   UNL     1       6.111   5.489  17.229  0.00  0.00    +0.000 A 
ATOM     12  C   UNL     1       7.025   5.629  16.171  0.00  0.00    +0.000 A 
ATOM     13  C   UNL     1       6.834   4.980  14.950  0.00  0.00    +0.000 A 
ATOM     14  C   UNL     1       5.733   4.150  14.781  0.00  0.00    +0.000 A 
ATOM     15  C   UNL     1       4.823   3.991  15.831  0.00  0.00    +0.000 A 
ATOM     16  C   UNL     1       4.998   4.652  17.061  0.00  0.00    +0.000 A 
BRANCH  11  18
ATOM     17  C   UNL     1       6.899   5.394  19.470  0.00  0.00    +0.000 C 
ATOM     18  O   UNL     1       6.476   6.168  18.355  0.00  0.00    +0.000 OA
ENDBRANCH  11  18
ENDBRANCH  10  16
ENDBRANCH   4  10
ENDBRANCH   1   7
BRANCH   3  19
ATOM     19  C   UNL     1       0.490  10.993  21.422  0.00  0.00    +0.000 C 
BRANCH  19  20
ATOM     20  C   UNL     1      -0.903  10.673  21.997  0.00  0.00    +0.000 C 
BRANCH  20  21
ATOM     21  C   UNL     1      -1.359  11.556  23.170  0.00  0.00    +0.000 C 
BRANCH  21  22
ATOM     22  C   UNL     1      -2.716  12.193  22.932  0.00  0.00    +0.000 A 
ATOM     23  C   UNL     1      -3.071  12.635  21.648  0.00  0.00    +0.000 A 
ATOM     24  C   UNL     1      -4.316  13.221  21.410  0.00  0.00    +0.000 A 
ATOM     25  C   UNL     1      -5.224  13.381  22.455  0.00  0.00    +0.000 A 
ATOM     26  C   UNL     1      -4.883  12.963  23.739  0.00  0.00    +0.000 A 
ATOM     27  C   UNL     1      -3.632  12.370  23.973  0.00  0.00    +0.000 A 
ENDBRANCH  21  22
ENDBRANCH  20  21
ENDBRANCH  19  20
ENDBRANCH   3  19
BRANCH   3  28
ATOM     28  C   UNL     1       0.941  10.538  19.019  0.00  0.00    +0.000 C 
BRANCH  28  29
ATOM     29  C   UNL     1      -0.451  10.652  18.435  0.00  0.00    +0.000 A 
ATOM     30  C   UNL     1      -1.242  11.799  18.598  0.00  0.00    +0.000 A 
ATOM     31  C   UNL     1      -2.470  11.917  17.941  0.00  0.00    +0.000 A 
ATOM     32  C   UNL     1      -2.926  10.893  17.102  0.00  0.00    +0.000 A 
ATOM     33  C   UNL     1      -2.149   9.743  16.933  0.00  0.00    +0.000 A 
ATOM     34  C   UNL     1      -0.923   9.627  17.600  0.00  0.00    +0.000 A 
BRANCH  32  35
ATOM     35  C   UNL     1      -4.197  11.110  16.365  0.00  0.00    +0.000 C 
ATOM     36  O   UNL     1      -5.093  11.811  16.801  0.00  0.00    +0.000 OA
BRANCH  35  37
ATOM     37  O   UNL     1      -4.278  10.471  15.179  0.00  0.00    +0.000 OA
ATOM     38  H   UNL     1      -3.861   9.594  15.151  0.00  0.00    +0.000 HD
ENDBRANCH  35  37
ENDBRANCH  32  35
ENDBRANCH  28  29
ENDBRANCH   3  28
TORSDOF 12
ENDMDL
MODEL 7
REMARK VINA RESULT:      -7.6      1.063      1.923
REMARK  Name = 
REMARK  13 active torsions:
REMARK  status: ('A' for Active; 'I' for Inactive)
REMARK    1  A    between atoms: C_1  and  O_2
REMARK    2  A    between atoms: O_2  and  C_3
REMARK    3  A    between atoms: C_8  and  O_9
REMARK    4  A    between atoms: O_9  and  C_10
REMARK    5  A    between atoms: C_13  and  C_14
REMARK    6  A    between atoms: N_16  and  C_17
REMARK    7  A    between atoms: N_16  and  C_26
REMARK    8  A    between atoms: C_17  and  C_18
REMARK    9  A    between atoms: C_18  and  C_19
REMARK   10  A    between atoms: C_19  and  C_20
REMARK   11  A    between atoms: C_26  and  C_27
REMARK   12  A    between atoms: C_30  and  C_31
REMARK   13  A    between atoms: C_31  and  O_33
REMARK                            x       y       z     vdW  Elec       q    Type
REMARK                         _______ _______ _______ _____ _____    ______ ____
ROOT
ATOM      1  C   UNL     1       0.686  11.605  19.130  0.00  0.00    +0.000 C 
ATOM      2  O   UNL     1       1.608  12.414  19.281  0.00  0.00    +0.000 OA
ATOM      3  N   UNL     1      -0.642  12.063  19.033  0.00  0.00    +0.000 N 
ENDROOT
BRANCH   1   7
ATOM      4  C   UNL     1       2.208   7.521  19.268  0.00  0.00    +0.000 A 
ATOM      5  C   UNL     1       1.634   8.146  20.382  0.00  0.00    +0.000 A 
ATOM      6  C   UNL     1       1.088   9.437  20.286  0.00  0.00    +0.000 A 
ATOM      7  C   UNL     1       1.100  10.150  19.075  0.00  0.00    +0.000 A 
ATOM      8  C   UNL     1       1.653   9.501  17.962  0.00  0.00    +0.000 A 
ATOM      9  C   UNL     1       2.199   8.200  18.055  0.00  0.00    +0.000 A 
BRANCH   4  10
ATOM     10  O   UNL     1       2.738   6.280  19.528  0.00  0.00    +0.000 OA
BRANCH  10  16
ATOM     11  C   UNL     1       2.560   4.298  18.054  0.00  0.00    +0.000 A 
ATOM     12  C   UNL     1       3.264   3.419  17.213  0.00  0.00    +0.000 A 
ATOM     13  C   UNL     1       4.607   3.629  16.897  0.00  0.00    +0.000 A 
ATOM     14  C   UNL     1       5.261   4.747  17.397  0.00  0.00    +0.000 A 
ATOM     15  C   UNL     1       4.569   5.637  18.225  0.00  0.00    +0.000 A 
ATOM     16  C   UNL     1       3.219   5.428  18.561  0.00  0.00    +0.000 A 
BRANCH  11  18
ATOM     17  C   UNL     1       0.986   2.693  18.826  0.00  0.00    +0.000 C 
ATOM     18  O   UNL     1       1.251   3.954  18.225  0.00  0.00    +0.000 OA
ENDBRANCH  11  18
ENDBRANCH  10  16
ENDBRANCH   4  10
ENDBRANCH   1   7
BRANCH   3  19
ATOM     19  C   UNL     1      -0.880  13.522  19.086  0.00  0.00    +0.000 C 
BRANCH  19  20
ATOM     20  C   UNL     1      -1.150  14.122  20.480  0.00  0.00    +0.000 C 
BRANCH  20  21
ATOM     21  C   UNL     1      -0.953  13.166  21.668  0.00  0.00    +0.000 C 
BRANCH  21  22
ATOM     22  C   UNL     1      -1.769  13.565  22.883  0.00  0.00    +0.000 A 
ATOM     23  C   UNL     1      -1.313  14.584  23.734  0.00  0.00    +0.000 A 
ATOM     24  C   UNL     1      -2.052  14.966  24.856  0.00  0.00    +0.000 A 
ATOM     25  C   UNL     1      -3.256  14.329  25.150  0.00  0.00    +0.000 A 
ATOM     26  C   UNL     1      -3.716  13.305  24.326  0.00  0.00    +0.000 A 
ATOM     27  C   UNL     1      -2.973  12.927  23.196  0.00  0.00    +0.000 A 
ENDBRANCH  21  22
ENDBRANCH  20  21
ENDBRANCH  19  20
ENDBRANCH   3  19
BRANCH   3  28
ATOM     28  C   UNL     1      -1.837  11.227  19.098  0.00  0.00    +0.000 C 
BRANCH  28  29
ATOM     29  C   UNL     1      -2.415  10.811  17.762  0.00  0.00    +0.000 A 
ATOM     30  C   UNL     1      -3.432  11.537  17.125  0.00  0.00    +0.000 A 
ATOM     31  C   UNL     1      -3.854  11.193  15.837  0.00  0.00    +0.000 A 
ATOM     32  C   UNL     1      -3.259  10.122  15.160  0.00  0.00    +0.000 A 
ATOM     33  C   UNL     1      -2.246   9.388  15.784  0.00  0.00    +0.000 A 
ATOM     34  C   UNL     1      -1.834   9.731  17.077  0.00  0.00    +0.000 A 
BRANCH  32  35
ATOM     35  C   UNL     1      -3.689   9.856  13.763  0.00  0.00    +0.000 C 
ATOM     36  O   UNL     1      -2.896   9.771  12.841  0.00  0.00    +0.000 OA
BRANCH  35  37
ATOM     37  O   UNL     1      -5.020   9.716  13.599  0.00  0.00    +0.000 OA
ATOM     38  H   UNL     1      -5.523   9.542  14.412  0.00  0.00    +0.000 HD
ENDBRANCH  35  37
ENDBRANCH  32  35
ENDBRANCH  28  29
ENDBRANCH   3  28
TORSDOF 12
ENDMDL
MODEL 8
REMARK VINA RESULT:      -7.6      1.869      2.528
REMARK  Name = 
REMARK  13 active torsions:
REMARK  status: ('A' for Active; 'I' for Inactive)
REMARK    1  A    between atoms: C_1  and  O_2
REMARK    2  A    between atoms: O_2  and  C_3
REMARK    3  A    between atoms: C_8  and  O_9
REMARK    4  A    between atoms: O_9  and  C_10
REMARK    5  A    between atoms: C_13  and  C_14
REMARK    6  A    between atoms: N_16  and  C_17
REMARK    7  A    between atoms: N_16  and  C_26
REMARK    8  A    between atoms: C_17  and  C_18
REMARK    9  A    between atoms: C_18  and  C_19
REMARK   10  A    between atoms: C_19  and  C_20
REMARK   11  A    between atoms: C_26  and  C_27
REMARK   12  A    between atoms: C_30  and  C_31
REMARK   13  A    between atoms: C_31  and  O_33
REMARK                            x       y       z     vdW  Elec       q    Type
REMARK                         _______ _______ _______ _____ _____    ______ ____
ROOT
ATOM      1  C   UNL     1       0.871  11.170  18.771  0.00  0.00    +0.000 C 
ATOM      2  O   UNL     1       1.751  12.025  18.922  0.00  0.00    +0.000 OA
ATOM      3  N   UNL     1      -0.460  11.566  18.534  0.00  0.00    +0.000 N 
ENDROOT
BRANCH   1   7
ATOM      4  C   UNL     1       2.470   7.165  19.418  0.00  0.00    +0.000 A 
ATOM      5  C   UNL     1       1.673   7.817  20.366  0.00  0.00    +0.000 A 
ATOM      6  C   UNL     1       1.113   9.078  20.099  0.00  0.00    +0.000 A 
ATOM      7  C   UNL     1       1.335   9.733  18.875  0.00  0.00    +0.000 A 
ATOM      8  C   UNL     1       2.112   9.056  17.925  0.00  0.00    +0.000 A 
ATOM      9  C   UNL     1       2.673   7.786  18.191  0.00  0.00    +0.000 A 
BRANCH   4  10
ATOM     10  O   UNL     1       2.981   5.962  19.841  0.00  0.00    +0.000 OA
BRANCH  10  16
ATOM     11  C   UNL     1       2.595   4.102  18.253  0.00  0.00    +0.000 A 
ATOM     12  C   UNL     1       1.839   2.945  17.992  0.00  0.00    +0.000 A 
ATOM     13  C   UNL     1       0.938   2.435  18.928  0.00  0.00    +0.000 A 
ATOM     14  C   UNL     1       0.801   3.063  20.160  0.00  0.00    +0.000 A 
ATOM     15  C   UNL     1       1.558   4.207  20.437  0.00  0.00    +0.000 A 
ATOM     16  C   UNL     1       2.459   4.737  19.496  0.00  0.00    +0.000 A 
BRANCH  11  18
ATOM     17  C   UNL     1       4.839   4.309  17.498  0.00  0.00    +0.000 C 
ATOM     18  O   UNL     1       3.446   4.433  17.240  0.00  0.00    +0.000 OA
ENDBRANCH  11  18
ENDBRANCH  10  16
ENDBRANCH   4  10
ENDBRANCH   1   7
BRANCH   3  19
ATOM     19  C   UNL     1      -0.749  13.013  18.441  0.00  0.00    +0.000 C 
BRANCH  19  20
ATOM     20  C   UNL     1      -0.119  13.909  19.527  0.00  0.00    +0.000 C 
BRANCH  20  21
ATOM     21  C   UNL     1      -1.110  14.624  20.459  0.00  0.00    +0.000 C 
BRANCH  21  22
ATOM     22  C   UNL     1      -1.680  13.706  21.524  0.00  0.00    +0.000 A 
ATOM     23  C   UNL     1      -2.934  13.979  22.092  0.00  0.00    +0.000 A 
ATOM     24  C   UNL     1      -3.476  13.144  23.072  0.00  0.00    +0.000 A 
ATOM     25  C   UNL     1      -2.767  12.024  23.505  0.00  0.00    +0.000 A 
ATOM     26  C   UNL     1      -1.514  11.746  22.964  0.00  0.00    +0.000 A 
ATOM     27  C   UNL     1      -0.976  12.586  21.976  0.00  0.00    +0.000 A 
ENDBRANCH  21  22
ENDBRANCH  20  21
ENDBRANCH  19  20
ENDBRANCH   3  19
BRANCH   3  28
ATOM     28  C   UNL     1      -1.628  10.692  18.579  0.00  0.00    +0.000 C 
BRANCH  28  29
ATOM     29  C   UNL     1      -2.956  11.361  18.296  0.00  0.00    +0.000 A 
ATOM     30  C   UNL     1      -3.596  11.263  17.052  0.00  0.00    +0.000 A 
ATOM     31  C   UNL     1      -4.879  11.790  16.868  0.00  0.00    +0.000 A 
ATOM     32  C   UNL     1      -5.546  12.417  17.928  0.00  0.00    +0.000 A 
ATOM     33  C   UNL     1      -4.918  12.523  19.172  0.00  0.00    +0.000 A 
ATOM     34  C   UNL     1      -3.630  12.001  19.349  0.00  0.00    +0.000 A 
BRANCH  32  35
ATOM     35  C   UNL     1      -6.938  12.882  17.697  0.00  0.00    +0.000 C 
ATOM     36  O   UNL     1      -7.877  12.490  18.367  0.00  0.00    +0.000 OA
BRANCH  35  37
ATOM     37  O   UNL     1      -7.077  13.768  16.690  0.00  0.00    +0.000 OA
ATOM     38  H   UNL     1      -6.398  14.464  16.652  0.00  0.00    +0.000 HD
ENDBRANCH  35  37
ENDBRANCH  32  35
ENDBRANCH  28  29
ENDBRANCH   3  28
TORSDOF 12
ENDMDL
MODEL 9
REMARK VINA RESULT:      -7.6      2.618      4.985
REMARK  Name = 
REMARK  13 active torsions:
REMARK  status: ('A' for Active; 'I' for Inactive)
REMARK    1  A    between atoms: C_1  and  O_2
REMARK    2  A    between atoms: O_2  and  C_3
REMARK    3  A    between atoms: C_8  and  O_9
REMARK    4  A    between atoms: O_9  and  C_10
REMARK    5  A    between atoms: C_13  and  C_14
REMARK    6  A    between atoms: N_16  and  C_17
REMARK    7  A    between atoms: N_16  and  C_26
REMARK    8  A    between atoms: C_17  and  C_18
REMARK    9  A    between atoms: C_18  and  C_19
REMARK   10  A    between atoms: C_19  and  C_20
REMARK   11  A    between atoms: C_26  and  C_27
REMARK   12  A    between atoms: C_30  and  C_31
REMARK   13  A    between atoms: C_31  and  O_33
REMARK                            x       y       z     vdW  Elec       q    Type
REMARK                         _______ _______ _______ _____ _____    ______ ____
ROOT
ATOM      1  C   UNL     1      -0.205  10.447  18.821  0.00  0.00    +0.000 C 
ATOM      2  O   UNL     1      -1.020  10.176  17.931  0.00  0.00    +0.000 OA
ATOM      3  N   UNL     1      -0.272  11.690  19.480  0.00  0.00    +0.000 N 
ENDROOT
BRANCH   1   7
ATOM      4  C   UNL     1       2.547   7.105  19.340  0.00  0.00    +0.000 A 
ATOM      5  C   UNL     1       2.447   7.815  18.138  0.00  0.00    +0.000 A 
ATOM      6  C   UNL     1       1.603   8.932  18.024  0.00  0.00    +0.000 A 
ATOM      7  C   UNL     1       0.825   9.376  19.108  0.00  0.00    +0.000 A 
ATOM      8  C   UNL     1       0.956   8.672  20.312  0.00  0.00    +0.000 A 
ATOM      9  C   UNL     1       1.808   7.550  20.430  0.00  0.00    +0.000 A 
BRANCH   4  10
ATOM     10  O   UNL     1       3.378   6.012  19.283  0.00  0.00    +0.000 OA
BRANCH  10  16
ATOM     11  C   UNL     1       2.303   3.802  19.588  0.00  0.00    +0.000 A 
ATOM     12  C   UNL     1       2.152   2.509  19.057  0.00  0.00    +0.000 A 
ATOM     13  C   UNL     1       2.694   2.160  17.819  0.00  0.00    +0.000 A 
ATOM     14  C   UNL     1       3.375   3.116  17.076  0.00  0.00    +0.000 A 
ATOM     15  C   UNL     1       3.521   4.410  17.587  0.00  0.00    +0.000 A 
ATOM     16  C   UNL     1       2.990   4.769  18.840  0.00  0.00    +0.000 A 
BRANCH  11  18
ATOM     17  C   UNL     1       1.694   2.869  21.687  0.00  0.00    +0.000 C 
ATOM     18  O   UNL     1       1.679   3.971  20.789  0.00  0.00    +0.000 OA
ENDBRANCH  11  18
ENDBRANCH  10  16
ENDBRANCH   4  10
ENDBRANCH   1   7
BRANCH   3  19
ATOM     19  C   UNL     1      -1.354  12.623  19.096  0.00  0.00    +0.000 C 
BRANCH  19  20
ATOM     20  C   UNL     1      -2.599  12.639  20.005  0.00  0.00    +0.000 C 
BRANCH  20  21
ATOM     21  C   UNL     1      -2.503  13.531  21.253  0.00  0.00    +0.000 C 
BRANCH  21  22
ATOM     22  C   UNL     1      -3.574  13.220  22.281  0.00  0.00    +0.000 A 
ATOM     23  C   UNL     1      -3.220  12.673  23.524  0.00  0.00    +0.000 A 
ATOM     24  C   UNL     1      -4.192  12.383  24.484  0.00  0.00    +0.000 A 
ATOM     25  C   UNL     1      -5.538  12.628  24.212  0.00  0.00    +0.000 A 
ATOM     26  C   UNL     1      -5.909  13.154  22.978  0.00  0.00    +0.000 A 
ATOM     27  C   UNL     1      -4.928  13.449  22.017  0.00  0.00    +0.000 A 
ENDBRANCH  21  22
ENDBRANCH  20  21
ENDBRANCH  19  20
ENDBRANCH   3  19
BRANCH   3  28
ATOM     28  C   UNL     1       0.751  12.241  20.363  0.00  0.00    +0.000 C 
BRANCH  28  29
ATOM     29  C   UNL     1       1.561  13.384  19.790  0.00  0.00    +0.000 A 
ATOM     30  C   UNL     1       2.348  13.244  18.637  0.00  0.00    +0.000 A 
ATOM     31  C   UNL     1       2.982  14.352  18.068  0.00  0.00    +0.000 A 
ATOM     32  C   UNL     1       2.834  15.623  18.638  0.00  0.00    +0.000 A 
ATOM     33  C   UNL     1       2.054  15.776  19.788  0.00  0.00    +0.000 A 
ATOM     34  C   UNL     1       1.429  14.661  20.359  0.00  0.00    +0.000 A 
BRANCH  32  35
ATOM     35  C   UNL     1       3.461  16.775  17.942  0.00  0.00    +0.000 C 
ATOM     36  O   UNL     1       2.922  17.349  17.012  0.00  0.00    +0.000 OA
BRANCH  35  37
ATOM     37  O   UNL     1       4.670  17.134  18.422  0.00  0.00    +0.000 OA
ATOM     38  H   UNL     1       4.654  17.779  19.149  0.00  0.00    +0.000 HD
ENDBRANCH  35  37
ENDBRANCH  32  35
ENDBRANCH  28  29
ENDBRANCH   3  28
TORSDOF 12
ENDMDL
