MODEL 1
REMARK VINA RESULT:      -7.5      0.000      0.000
REMARK  Name = 
REMARK  4 active torsions:
REMARK  status: ('A' for Active; 'I' for Inactive)
REMARK    1  A    between atoms: C_1  and  C_2
REMARK    2  A    between atoms: N_7  and  C_8
REMARK    3  A    between atoms: N_10  and  C_11
REMARK    4  A    between atoms: N_20  and  C_21
REMARK                            x       y       z     vdW  Elec       q    Type
REMARK                         _______ _______ _______ _____ _____    ______ ____
ROOT
ATOM      1  C   UNL     1      -0.551  10.349  21.809  0.00  0.00    +0.000 C 
ATOM      2  C   UNL     1      -0.446  11.821  22.057  0.00  0.00    +0.000 A 
ATOM      3  N   UNL     1       0.596  12.420  21.459  0.00  0.00    +0.000 NA
ATOM      4  C   UNL     1       0.734  13.745  21.598  0.00  0.00    +0.000 A 
ATOM      5  N   UNL     1       1.656  14.395  20.776  0.00  0.00    +0.000 N 
ATOM      6  C   UNL     1       2.241  13.828  19.670  0.00  0.00    +0.000 C 
ATOM      7  N   UNL     1       1.746  13.061  18.739  0.00  0.00    +0.000 NA
ATOM      8  N   UNL     1       3.580  14.130  19.422  0.00  0.00    +0.000 N 
ATOM      9  C   UNL     1       4.403  14.963  20.159  0.00  0.00    +0.000 C 
ATOM     10  O   UNL     1       4.118  15.313  21.303  0.00  0.00    +0.000 OA
ATOM     11  N   UNL     1       5.536  15.369  19.462  0.00  0.00    +0.000 N 
ATOM     12  N   UNL     1      -0.008  14.469  22.455  0.00  0.00    +0.000 NA
ATOM     13  C   UNL     1      -1.074  13.871  23.029  0.00  0.00    +0.000 A 
ATOM     14  C   UNL     1      -1.948  14.592  23.846  0.00  0.00    +0.000 A 
ATOM     15  C   UNL     1      -3.115  14.028  24.384  0.00  0.00    +0.000 A 
ATOM     16  C   UNL     1      -3.435  12.706  24.107  0.00  0.00    +0.000 A 
ATOM     17  C   UNL     1      -2.562  11.950  23.336  0.00  0.00    +0.000 A 
ATOM     18  C   UNL     1      -1.377  12.522  22.814  0.00  0.00    +0.000 A 
ATOM     19  H   UNL     1       2.177  15.085  21.306  0.00  0.00    +0.000 HD
ATOM     20  H   UNL     1       3.947  13.716  18.581  0.00  0.00    +0.000 HD
ATOM     21  H   UNL     1       5.404  15.494  18.467  0.00  0.00    +0.000 HD
ENDROOT
BRANCH  11  22
ATOM     22  C   UNL     1       6.524  16.191  20.062  0.00  0.00    +0.000 A 
ATOM     23  C   UNL     1       6.462  17.587  19.979  0.00  0.00    +0.000 A 
ATOM     24  C   UNL     1       7.465  18.378  20.547  0.00  0.00    +0.000 A 
ATOM     25  C   UNL     1       8.547  17.780  21.188  0.00  0.00    +0.000 A 
ATOM     26  C   UNL     1       8.607  16.391  21.290  0.00  0.00    +0.000 A 
ATOM     27  C   UNL     1       7.585  15.598  20.754  0.00  0.00    +0.000 A 
ENDBRANCH  11  22
BRANCH   7  28
ATOM     28  C   UNL     1       0.373  12.973  18.630  0.00  0.00    +0.000 C 
ATOM     29  O   UNL     1      -0.331  13.958  18.439  0.00  0.00    +0.000 OA
ATOM     30  N   UNL     1      -0.094  11.671  18.628  0.00  0.00    +0.000 N 
ATOM     31  H   UNL     1       0.607  10.983  18.855  0.00  0.00    +0.000 HD
BRANCH  30  32
ATOM     32  C   UNL     1      -1.389  11.228  18.250  0.00  0.00    +0.000 A 
ATOM     33  C   UNL     1      -2.571  11.790  18.746  0.00  0.00    +0.000 A 
ATOM     34  C   UNL     1      -3.825  11.406  18.254  0.00  0.00    +0.000 A 
ATOM     35  C   UNL     1      -3.922  10.438  17.263  0.00  0.00    +0.000 A 
ATOM     36  C   UNL     1      -2.762   9.831  16.788  0.00  0.00    +0.000 A 
ATOM     37  C   UNL     1      -1.503  10.220  17.280  0.00  0.00    +0.000 A 
ENDBRANCH  30  32
ENDBRANCH   7  28
TORSDOF 3
ENDMDL
MODEL 2
REMARK VINA RESULT:      -7.4      4.643      7.870
REMARK  Name = 
REMARK  4 active torsions:
REMARK  status: ('A' for Active; 'I' for Inactive)
REMARK    1  A    between atoms: C_1  and  C_2
REMARK    2  A    between atoms: N_7  and  C_8
REMARK    3  A    between atoms: N_10  and  C_11
REMARK    4  A    between atoms: N_20  and  C_21
REMARK                            x       y       z     vdW  Elec       q    Type
REMARK                         _______ _______ _______ _____ _____    ______ ____
ROOT
ATOM      1  C   UNL     1      -1.914  12.358  18.316  0.00  0.00    +0.000 C 
ATOM      2  C   UNL     1      -1.302  11.583  19.441  0.00  0.00    +0.000 A 
ATOM      3  N   UNL     1      -0.357  10.704  19.070  0.00  0.00    +0.000 NA
ATOM      4  C   UNL     1       0.269  10.002  20.023  0.00  0.00    +0.000 A 
ATOM      5  N   UNL     1       1.414   9.288  19.664  0.00  0.00    +0.000 N 
ATOM      6  C   UNL     1       2.087   9.453  18.478  0.00  0.00    +0.000 C 
ATOM      7  N   UNL     1       2.381  10.530  17.804  0.00  0.00    +0.000 NA
ATOM      8  N   UNL     1       2.615   8.313  17.871  0.00  0.00    +0.000 N 
ATOM      9  C   UNL     1       2.555   7.011  18.336  0.00  0.00    +0.000 C 
ATOM     10  O   UNL     1       1.766   6.670  19.215  0.00  0.00    +0.000 OA
ATOM     11  N   UNL     1       3.487   6.173  17.734  0.00  0.00    +0.000 N 
ATOM     12  N   UNL     1      -0.130   9.999  21.308  0.00  0.00    +0.000 NA
ATOM     13  C   UNL     1      -1.058  10.907  21.682  0.00  0.00    +0.000 A 
ATOM     14  C   UNL     1      -1.442  11.031  23.020  0.00  0.00    +0.000 A 
ATOM     15  C   UNL     1      -2.332  12.023  23.460  0.00  0.00    +0.000 A 
ATOM     16  C   UNL     1      -2.863  12.927  22.551  0.00  0.00    +0.000 A 
ATOM     17  C   UNL     1      -2.537  12.800  21.207  0.00  0.00    +0.000 A 
ATOM     18  C   UNL     1      -1.653  11.785  20.770  0.00  0.00    +0.000 A 
ATOM     19  H   UNL     1       1.412   8.374  20.103  0.00  0.00    +0.000 HD
ATOM     20  H   UNL     1       3.127   8.496  17.024  0.00  0.00    +0.000 HD
ATOM     21  H   UNL     1       4.364   6.613  17.491  0.00  0.00    +0.000 HD
ENDROOT
BRANCH  11  22
ATOM     22  C   UNL     1       3.555   4.790  18.045  0.00  0.00    +0.000 A 
ATOM     23  C   UNL     1       2.755   3.852  17.382  0.00  0.00    +0.000 A 
ATOM     24  C   UNL     1       2.812   2.498  17.728  0.00  0.00    +0.000 A 
ATOM     25  C   UNL     1       3.657   2.074  18.750  0.00  0.00    +0.000 A 
ATOM     26  C   UNL     1       4.470   3.000  19.404  0.00  0.00    +0.000 A 
ATOM     27  C   UNL     1       4.441   4.350  19.034  0.00  0.00    +0.000 A 
ENDBRANCH  11  22
BRANCH   7  28
ATOM     28  C   UNL     1       2.264  11.749  18.441  0.00  0.00    +0.000 C 
ATOM     29  O   UNL     1       2.450  11.876  19.645  0.00  0.00    +0.000 OA
ATOM     30  N   UNL     1       2.050  12.803  17.571  0.00  0.00    +0.000 N 
ATOM     31  H   UNL     1       1.861  12.520  16.623  0.00  0.00    +0.000 HD
BRANCH  30  32
ATOM     32  C   UNL     1       2.170  14.187  17.860  0.00  0.00    +0.000 A 
ATOM     33  C   UNL     1       3.248  14.973  17.436  0.00  0.00    +0.000 A 
ATOM     34  C   UNL     1       3.265  16.359  17.638  0.00  0.00    +0.000 A 
ATOM     35  C   UNL     1       2.208  16.986  18.285  0.00  0.00    +0.000 A 
ATOM     36  C   UNL     1       1.148  16.219  18.758  0.00  0.00    +0.000 A 
ATOM     37  C   UNL     1       1.129  14.827  18.552  0.00  0.00    +0.000 A 
ENDBRANCH  30  32
ENDBRANCH   7  28
TORSDOF 3
ENDMDL
MODEL 3
REMARK VINA RESULT:      -7.3      4.585      7.842
REMARK  Name = 
REMARK  4 active torsions:
REMARK  status: ('A' for Active; 'I' for Inactive)
REMARK    1  A    between atoms: C_1  and  C_2
REMARK    2  A    between atoms: N_7  and  C_8
REMARK    3  A    between atoms: N_10  and  C_11
REMARK    4  A    between atoms: N_20  and  C_21
REMARK                            x       y       z     vdW  Elec       q    Type
REMARK                         _______ _______ _______ _____ _____    ______ ____
ROOT
ATOM      1  C   UNL     1      -1.973  12.427  18.370  0.00  0.00    +0.000 C 
ATOM      2  C   UNL     1      -1.358  11.654  19.495  0.00  0.00    +0.000 A 
ATOM      3  N   UNL     1      -0.416  10.772  19.124  0.00  0.00    +0.000 NA
ATOM      4  C   UNL     1       0.212  10.073  20.077  0.00  0.00    +0.000 A 
ATOM      5  N   UNL     1       1.355   9.356  19.715  0.00  0.00    +0.000 N 
ATOM      6  C   UNL     1       2.025   9.517  18.527  0.00  0.00    +0.000 C 
ATOM      7  N   UNL     1       2.319  10.592  17.850  0.00  0.00    +0.000 NA
ATOM      8  N   UNL     1       2.549   8.375  17.921  0.00  0.00    +0.000 N 
ATOM      9  C   UNL     1       2.489   7.074  18.390  0.00  0.00    +0.000 C 
ATOM     10  O   UNL     1       1.702   6.736  19.271  0.00  0.00    +0.000 OA
ATOM     11  N   UNL     1       3.418   6.233  17.787  0.00  0.00    +0.000 N 
ATOM     12  N   UNL     1      -0.184  10.073  21.362  0.00  0.00    +0.000 NA
ATOM     13  C   UNL     1      -1.109  10.983  21.738  0.00  0.00    +0.000 A 
ATOM     14  C   UNL     1      -1.488  11.110  23.076  0.00  0.00    +0.000 A 
ATOM     15  C   UNL     1      -2.376  12.105  23.516  0.00  0.00    +0.000 A 
ATOM     16  C   UNL     1      -2.908  13.008  22.606  0.00  0.00    +0.000 A 
ATOM     17  C   UNL     1      -2.586  12.877  21.262  0.00  0.00    +0.000 A 
ATOM     18  C   UNL     1      -1.705  11.860  20.824  0.00  0.00    +0.000 A 
ATOM     19  H   UNL     1       1.353   8.443  20.157  0.00  0.00    +0.000 HD
ATOM     20  H   UNL     1       3.060   8.556  17.073  0.00  0.00    +0.000 HD
ATOM     21  H   UNL     1       4.295   6.672  17.540  0.00  0.00    +0.000 HD
ENDROOT
BRANCH  11  22
ATOM     22  C   UNL     1       3.485   4.852  18.101  0.00  0.00    +0.000 A 
ATOM     23  C   UNL     1       4.351   4.368  19.087  0.00  0.00    +0.000 A 
ATOM     24  C   UNL     1       4.428   2.998  19.358  0.00  0.00    +0.000 A 
ATOM     25  C   UNL     1       3.650   2.099  18.632  0.00  0.00    +0.000 A 
ATOM     26  C   UNL     1       2.771   2.574  17.659  0.00  0.00    +0.000 A 
ATOM     27  C   UNL     1       2.667   3.949  17.413  0.00  0.00    +0.000 A 
ENDBRANCH  11  22
BRANCH   7  28
ATOM     28  C   UNL     1       2.205  11.813  18.484  0.00  0.00    +0.000 C 
ATOM     29  O   UNL     1       2.431  11.950  19.681  0.00  0.00    +0.000 OA
ATOM     30  N   UNL     1       1.944  12.859  17.617  0.00  0.00    +0.000 N 
ATOM     31  H   UNL     1       1.726  12.568  16.678  0.00  0.00    +0.000 HD
BRANCH  30  32
ATOM     32  C   UNL     1       2.052  14.246  17.895  0.00  0.00    +0.000 A 
ATOM     33  C   UNL     1       1.064  14.978  18.564  0.00  0.00    +0.000 A 
ATOM     34  C   UNL     1       1.265  16.316  18.926  0.00  0.00    +0.000 A 
ATOM     35  C   UNL     1       2.457  16.955  18.611  0.00  0.00    +0.000 A 
ATOM     36  C   UNL     1       3.435  16.261  17.904  0.00  0.00    +0.000 A 
ATOM     37  C   UNL     1       3.234  14.917  17.544  0.00  0.00    +0.000 A 
ENDBRANCH  30  32
ENDBRANCH   7  28
TORSDOF 3
ENDMDL
MODEL 4
REMARK VINA RESULT:      -7.1      4.256      7.488
REMARK  Name = 
REMARK  4 active torsions:
REMARK  status: ('A' for Active; 'I' for Inactive)
REMARK    1  A    between atoms: C_1  and  C_2
REMARK    2  A    between atoms: N_7  and  C_8
REMARK    3  A    between atoms: N_10  and  C_11
REMARK    4  A    between atoms: N_20  and  C_21
REMARK                            x       y       z     vdW  Elec       q    Type
REMARK                         _______ _______ _______ _____ _____    ______ ____
ROOT
ATOM      1  C   UNL     1       1.169  14.047  21.731  0.00  0.00    +0.000 C 
ATOM      2  C   UNL     1       1.648  13.784  20.338  0.00  0.00    +0.000 A 
ATOM      3  N   UNL     1       1.621  12.493  19.967  0.00  0.00    +0.000 NA
ATOM      4  C   UNL     1       1.994  12.182  18.719  0.00  0.00    +0.000 A 
ATOM      5  N   UNL     1       1.723  10.892  18.259  0.00  0.00    +0.000 N 
ATOM      6  C   UNL     1       0.884  10.007  18.890  0.00  0.00    +0.000 C 
ATOM      7  N   UNL     1      -0.269  10.188  19.473  0.00  0.00    +0.000 NA
ATOM      8  N   UNL     1       1.250   8.660  18.894  0.00  0.00    +0.000 N 
ATOM      9  C   UNL     1       2.371   8.094  18.312  0.00  0.00    +0.000 C 
ATOM     10  O   UNL     1       3.336   8.772  17.965  0.00  0.00    +0.000 OA
ATOM     11  N   UNL     1       2.263   6.718  18.145  0.00  0.00    +0.000 N 
ATOM     12  N   UNL     1       2.568  13.069  17.887  0.00  0.00    +0.000 NA
ATOM     13  C   UNL     1       2.564  14.370  18.250  0.00  0.00    +0.000 A 
ATOM     14  C   UNL     1       3.048  15.358  17.388  0.00  0.00    +0.000 A 
ATOM     15  C   UNL     1       2.974  16.726  17.694  0.00  0.00    +0.000 A 
ATOM     16  C   UNL     1       2.403  17.137  18.889  0.00  0.00    +0.000 A 
ATOM     17  C   UNL     1       1.956  16.177  19.787  0.00  0.00    +0.000 A 
ATOM     18  C   UNL     1       2.051  14.799  19.480  0.00  0.00    +0.000 A 
ATOM     19  H   UNL     1       2.514  10.530  17.737  0.00  0.00    +0.000 HD
ATOM     20  H   UNL     1       0.582   8.053  19.339  0.00  0.00    +0.000 HD
ATOM     21  H   UNL     1       1.330   6.383  17.943  0.00  0.00    +0.000 HD
ENDROOT
BRANCH  11  22
ATOM     22  C   UNL     1       3.326   5.948  17.606  0.00  0.00    +0.000 A 
ATOM     23  C   UNL     1       4.362   6.543  16.877  0.00  0.00    +0.000 A 
ATOM     24  C   UNL     1       5.382   5.762  16.325  0.00  0.00    +0.000 A 
ATOM     25  C   UNL     1       5.365   4.379  16.482  0.00  0.00    +0.000 A 
ATOM     26  C   UNL     1       4.346   3.780  17.221  0.00  0.00    +0.000 A 
ATOM     27  C   UNL     1       3.344   4.564  17.806  0.00  0.00    +0.000 A 
ENDBRANCH  11  22
BRANCH   7  28
ATOM     28  C   UNL     1      -0.940  11.370  19.235  0.00  0.00    +0.000 C 
ATOM     29  O   UNL     1      -1.142  11.789  18.101  0.00  0.00    +0.000 OA
ATOM     30  N   UNL     1      -1.461  11.945  20.381  0.00  0.00    +0.000 N 
ATOM     31  H   UNL     1      -1.153  11.508  21.235  0.00  0.00    +0.000 HD
BRANCH  30  32
ATOM     32  C   UNL     1      -2.427  12.981  20.453  0.00  0.00    +0.000 A 
ATOM     33  C   UNL     1      -3.803  12.764  20.318  0.00  0.00    +0.000 A 
ATOM     34  C   UNL     1      -4.729  13.795  20.519  0.00  0.00    +0.000 A 
ATOM     35  C   UNL     1      -4.294  15.074  20.843  0.00  0.00    +0.000 A 
ATOM     36  C   UNL     1      -2.928  15.325  20.936  0.00  0.00    +0.000 A 
ATOM     37  C   UNL     1      -1.999  14.287  20.738  0.00  0.00    +0.000 A 
ENDBRANCH  30  32
ENDBRANCH   7  28
TORSDOF 3
ENDMDL
MODEL 5
REMARK VINA RESULT:      -7.1      0.914      1.230
REMARK  Name = 
REMARK  4 active torsions:
REMARK  status: ('A' for Active; 'I' for Inactive)
REMARK    1  A    between atoms: C_1  and  C_2
REMARK    2  A    between atoms: N_7  and  C_8
REMARK    3  A    between atoms: N_10  and  C_11
REMARK    4  A    between atoms: N_20  and  C_21
REMARK                            x       y       z     vdW  Elec       q    Type
REMARK                         _______ _______ _______ _____ _____    ______ ____
ROOT
ATOM      1  C   UNL     1      -0.719  10.932  21.810  0.00  0.00    +0.000 C 
ATOM      2  C   UNL     1      -0.401  12.386  21.969  0.00  0.00    +0.000 A 
ATOM      3  N   UNL     1       0.637  12.820  21.236  0.00  0.00    +0.000 NA
ATOM      4  C   UNL     1       0.957  14.119  21.290  0.00  0.00    +0.000 A 
ATOM      5  N   UNL     1       1.858  14.610  20.344  0.00  0.00    +0.000 N 
ATOM      6  C   UNL     1       2.240  13.929  19.214  0.00  0.00    +0.000 C 
ATOM      7  N   UNL     1       1.552  13.199  18.381  0.00  0.00    +0.000 NA
ATOM      8  N   UNL     1       3.572  14.042  18.811  0.00  0.00    +0.000 N 
ATOM      9  C   UNL     1       4.570  14.787  19.415  0.00  0.00    +0.000 C 
ATOM     10  O   UNL     1       4.460  15.214  20.562  0.00  0.00    +0.000 OA
ATOM     11  N   UNL     1       5.661  15.013  18.583  0.00  0.00    +0.000 N 
ATOM     12  N   UNL     1       0.412  14.967  22.182  0.00  0.00    +0.000 NA
ATOM     13  C   UNL     1      -0.651  14.536  22.894  0.00  0.00    +0.000 A 
ATOM     14  C   UNL     1      -1.331  15.397  23.760  0.00  0.00    +0.000 A 
ATOM     15  C   UNL     1      -2.494  15.012  24.445  0.00  0.00    +0.000 A 
ATOM     16  C   UNL     1      -3.008  13.735  24.271  0.00  0.00    +0.000 A 
ATOM     17  C   UNL     1      -2.328  12.842  23.454  0.00  0.00    +0.000 A 
ATOM     18  C   UNL     1      -1.146  13.232  22.782  0.00  0.00    +0.000 A 
ATOM     19  H   UNL     1       2.518  15.244  20.780  0.00  0.00    +0.000 HD
ATOM     20  H   UNL     1       3.788  13.552  17.959  0.00  0.00    +0.000 HD
ATOM     21  H   UNL     1       5.437  15.116  17.602  0.00  0.00    +0.000 HD
ENDROOT
BRANCH  11  22
ATOM     22  C   UNL     1       6.806  15.719  19.032  0.00  0.00    +0.000 A 
ATOM     23  C   UNL     1       6.933  17.100  18.844  0.00  0.00    +0.000 A 
ATOM     24  C   UNL     1       8.085  17.772  19.264  0.00  0.00    +0.000 A 
ATOM     25  C   UNL     1       9.127  17.065  19.860  0.00  0.00    +0.000 A 
ATOM     26  C   UNL     1       9.001  15.692  20.067  0.00  0.00    +0.000 A 
ATOM     27  C   UNL     1       7.833  15.024  19.681  0.00  0.00    +0.000 A 
ENDBRANCH  11  22
BRANCH   7  28
ATOM     28  C   UNL     1       0.175  13.290  18.421  0.00  0.00    +0.000 C 
ATOM     29  O   UNL     1      -0.409  14.367  18.413  0.00  0.00    +0.000 OA
ATOM     30  N   UNL     1      -0.457  12.062  18.339  0.00  0.00    +0.000 N 
ATOM     31  H   UNL     1       0.167  11.274  18.413  0.00  0.00    +0.000 HD
BRANCH  30  32
ATOM     32  C   UNL     1      -1.829  11.824  18.068  0.00  0.00    +0.000 A 
ATOM     33  C   UNL     1      -2.294  11.264  16.871  0.00  0.00    +0.000 A 
ATOM     34  C   UNL     1      -3.643  10.933  16.695  0.00  0.00    +0.000 A 
ATOM     35  C   UNL     1      -4.561  11.171  17.709  0.00  0.00    +0.000 A 
ATOM     36  C   UNL     1      -4.131  11.771  18.890  0.00  0.00    +0.000 A 
ATOM     37  C   UNL     1      -2.775  12.100  19.068  0.00  0.00    +0.000 A 
ENDBRANCH  30  32
ENDBRANCH   7  28
TORSDOF 3
ENDMDL
MODEL 6
REMARK VINA RESULT:      -6.8      7.744     11.502
REMARK  Name = 
REMARK  4 active torsions:
REMARK  status: ('A' for Active; 'I' for Inactive)
REMARK    1  A    between atoms: C_1  and  C_2
REMARK    2  A    between atoms: N_7  and  C_8
REMARK    3  A    between atoms: N_10  and  C_11
REMARK    4  A    between atoms: N_20  and  C_21
REMARK                            x       y       z     vdW  Elec       q    Type
REMARK                         _______ _______ _______ _____ _____    ______ ____
ROOT
ATOM      1  C   UNL     1      12.175  14.329  17.865  0.00  0.00    +0.000 C 
ATOM      2  C   UNL     1      10.696  14.177  18.038  0.00  0.00    +0.000 A 
ATOM      3  N   UNL     1      10.270  12.911  18.170  0.00  0.00    +0.000 NA
ATOM      4  C   UNL     1       8.964  12.695  18.372  0.00  0.00    +0.000 A 
ATOM      5  N   UNL     1       8.566  11.415  18.762  0.00  0.00    +0.000 N 
ATOM      6  C   UNL     1       9.426  10.438  19.200  0.00  0.00    +0.000 C 
ATOM      7  N   UNL     1      10.466  10.502  19.985  0.00  0.00    +0.000 NA
ATOM      8  N   UNL     1       9.161   9.124  18.813  0.00  0.00    +0.000 N 
ATOM      9  C   UNL     1       8.105   8.674  18.039  0.00  0.00    +0.000 C 
ATOM     10  O   UNL     1       7.427   9.439  17.356  0.00  0.00    +0.000 OA
ATOM     11  N   UNL     1       7.891   7.305  18.151  0.00  0.00    +0.000 N 
ATOM     12  N   UNL     1       8.040  13.666  18.261  0.00  0.00    +0.000 NA
ATOM     13  C   UNL     1       8.472  14.942  18.160  0.00  0.00    +0.000 A 
ATOM     14  C   UNL     1       7.569  16.007  18.148  0.00  0.00    +0.000 A 
ATOM     15  C   UNL     1       7.985  17.348  18.138  0.00  0.00    +0.000 A 
ATOM     16  C   UNL     1       9.339  17.651  18.141  0.00  0.00    +0.000 A 
ATOM     17  C   UNL     1      10.261  16.614  18.106  0.00  0.00    +0.000 A 
ATOM     18  C   UNL     1       9.833  15.265  18.097  0.00  0.00    +0.000 A 
ATOM     19  H   UNL     1       7.724  11.142  18.268  0.00  0.00    +0.000 HD
ATOM     20  H   UNL     1       9.802   8.446  19.190  0.00  0.00    +0.000 HD
ATOM     21  H   UNL     1       8.089   6.914  19.062  0.00  0.00    +0.000 HD
ENDROOT
BRANCH  11  22
ATOM     22  C   UNL     1       6.882   6.646  17.402  0.00  0.00    +0.000 A 
ATOM     23  C   UNL     1       5.531   6.744  17.753  0.00  0.00    +0.000 A 
ATOM     24  C   UNL     1       4.555   6.059  17.023  0.00  0.00    +0.000 A 
ATOM     25  C   UNL     1       4.924   5.256  15.946  0.00  0.00    +0.000 A 
ATOM     26  C   UNL     1       6.266   5.167  15.579  0.00  0.00    +0.000 A 
ATOM     27  C   UNL     1       7.241   5.882  16.287  0.00  0.00    +0.000 A 
ENDBRANCH  11  22
BRANCH   7  28
ATOM     28  C   UNL     1      10.641  11.642  20.742  0.00  0.00    +0.000 C 
ATOM     29  O   UNL     1      11.633  12.353  20.632  0.00  0.00    +0.000 OA
ATOM     30  N   UNL     1       9.541  11.956  21.521  0.00  0.00    +0.000 N 
ATOM     31  H   UNL     1       8.835  11.237  21.542  0.00  0.00    +0.000 HD
BRANCH  30  32
ATOM     32  C   UNL     1       9.284  13.186  22.179  0.00  0.00    +0.000 A 
ATOM     33  C   UNL     1       9.597  14.435  21.630  0.00  0.00    +0.000 A 
ATOM     34  C   UNL     1       9.214  15.627  22.258  0.00  0.00    +0.000 A 
ATOM     35  C   UNL     1       8.522  15.593  23.462  0.00  0.00    +0.000 A 
ATOM     36  C   UNL     1       8.242  14.363  24.051  0.00  0.00    +0.000 A 
ATOM     37  C   UNL     1       8.623  13.167  23.418  0.00  0.00    +0.000 A 
ENDBRANCH  30  32
ENDBRANCH   7  28
TORSDOF 3
ENDMDL
MODEL 7
REMARK VINA RESULT:      -6.7      4.175      7.506
REMARK  Name = 
REMARK  4 active torsions:
REMARK  status: ('A' for Active; 'I' for Inactive)
REMARK    1  A    between atoms: C_1  and  C_2
REMARK    2  A    between atoms: N_7  and  C_8
REMARK    3  A    between atoms: N_10  and  C_11
REMARK    4  A    between atoms: N_20  and  C_21
REMARK                            x       y       z     vdW  Elec       q    Type
REMARK                         _______ _______ _______ _____ _____    ______ ____
ROOT
ATOM      1  C   UNL     1      -2.624  12.635  18.928  0.00  0.00    +0.000 C 
ATOM      2  C   UNL     1      -2.071  12.037  20.183  0.00  0.00    +0.000 A 
ATOM      3  N   UNL     1      -1.099  11.129  19.995  0.00  0.00    +0.000 NA
ATOM      4  C   UNL     1      -0.524  10.580  21.072  0.00  0.00    +0.000 A 
ATOM      5  N   UNL     1       0.645   9.840  20.882  0.00  0.00    +0.000 N 
ATOM      6  C   UNL     1       1.385   9.847  19.724  0.00  0.00    +0.000 C 
ATOM      7  N   UNL     1       1.709  10.822  18.921  0.00  0.00    +0.000 NA
ATOM      8  N   UNL     1       1.955   8.641  19.316  0.00  0.00    +0.000 N 
ATOM      9  C   UNL     1       1.879   7.417  19.958  0.00  0.00    +0.000 C 
ATOM     10  O   UNL     1       1.043   7.191  20.830  0.00  0.00    +0.000 OA
ATOM     11  N   UNL     1       2.851   6.517  19.534  0.00  0.00    +0.000 N 
ATOM     12  N   UNL     1      -0.997  10.752  22.319  0.00  0.00    +0.000 NA
ATOM     13  C   UNL     1      -1.951  11.689  22.509  0.00  0.00    +0.000 A 
ATOM     14  C   UNL     1      -2.413  11.994  23.792  0.00  0.00    +0.000 A 
ATOM     15  C   UNL     1      -3.334  13.024  24.035  0.00  0.00    +0.000 A 
ATOM     16  C   UNL     1      -3.819  13.782  22.979  0.00  0.00    +0.000 A 
ATOM     17  C   UNL     1      -3.415  13.472  21.687  0.00  0.00    +0.000 A 
ATOM     18  C   UNL     1      -2.500  12.419  21.448  0.00  0.00    +0.000 A 
ATOM     19  H   UNL     1       0.626   8.998  21.446  0.00  0.00    +0.000 HD
ATOM     20  H   UNL     1       2.515   8.711  18.482  0.00  0.00    +0.000 HD
ATOM     21  H   UNL     1       3.737   6.932  19.280  0.00  0.00    +0.000 HD
ENDROOT
BRANCH  11  22
ATOM     22  C   UNL     1       2.911   5.194  20.041  0.00  0.00    +0.000 A 
ATOM     23  C   UNL     1       3.808   4.253  19.522  0.00  0.00    +0.000 A 
ATOM     24  C   UNL     1       3.829   2.944  20.013  0.00  0.00    +0.000 A 
ATOM     25  C   UNL     1       2.941   2.560  21.015  0.00  0.00    +0.000 A 
ATOM     26  C   UNL     1       2.056   3.496  21.549  0.00  0.00    +0.000 A 
ATOM     27  C   UNL     1       2.060   4.817  21.085  0.00  0.00    +0.000 A 
ENDBRANCH  11  22
BRANCH   7  28
ATOM     28  C   UNL     1       1.545  12.117  19.371  0.00  0.00    +0.000 C 
ATOM     29  O   UNL     1       1.867  12.460  20.503  0.00  0.00    +0.000 OA
ATOM     30  N   UNL     1       1.113  12.988  18.387  0.00  0.00    +0.000 N 
ATOM     31  H   UNL     1       0.837  12.535  17.531  0.00  0.00    +0.000 HD
BRANCH  30  32
ATOM     32  C   UNL     1       1.123  14.406  18.438  0.00  0.00    +0.000 A 
ATOM     33  C   UNL     1       2.273  15.178  18.234  0.00  0.00    +0.000 A 
ATOM     34  C   UNL     1       2.214  16.576  18.171  0.00  0.00    +0.000 A 
ATOM     35  C   UNL     1       1.000  17.233  18.327  0.00  0.00    +0.000 A 
ATOM     36  C   UNL     1      -0.150  16.489  18.578  0.00  0.00    +0.000 A 
ATOM     37  C   UNL     1      -0.089  15.085  18.638  0.00  0.00    +0.000 A 
ENDBRANCH  30  32
ENDBRANCH   7  28
TORSDOF 3
ENDMDL
MODEL 8
REMARK VINA RESULT:      -6.6      1.066      1.365
REMARK  Name = 
REMARK  4 active torsions:
REMARK  status: ('A' for Active; 'I' for Inactive)
REMARK    1  A    between atoms: C_1  and  C_2
REMARK    2  A    between atoms: N_7  and  C_8
REMARK    3  A    between atoms: N_10  and  C_11
REMARK    4  A    between atoms: N_20  and  C_21
REMARK                            x       y       z     vdW  Elec       q    Type
REMARK                         _______ _______ _______ _____ _____    ______ ____
ROOT
ATOM      1  C   UNL     1      -1.119  11.571  22.703  0.00  0.00    +0.000 C 
ATOM      2  C   UNL     1      -0.727  13.015  22.695  0.00  0.00    +0.000 A 
ATOM      3  N   UNL     1       0.320  13.311  21.908  0.00  0.00    +0.000 NA
ATOM      4  C   UNL     1       0.705  14.590  21.813  0.00  0.00    +0.000 A 
ATOM      5  N   UNL     1       1.616  14.925  20.810  0.00  0.00    +0.000 N 
ATOM      6  C   UNL     1       1.948  14.103  19.761  0.00  0.00    +0.000 C 
ATOM      7  N   UNL     1       1.213  13.320  19.021  0.00  0.00    +0.000 NA
ATOM      8  N   UNL     1       3.278  14.103  19.337  0.00  0.00    +0.000 N 
ATOM      9  C   UNL     1       4.320  14.859  19.845  0.00  0.00    +0.000 C 
ATOM     10  O   UNL     1       4.247  15.417  20.938  0.00  0.00    +0.000 OA
ATOM     11  N   UNL     1       5.409  14.935  18.984  0.00  0.00    +0.000 N 
ATOM     12  N   UNL     1       0.215  15.559  22.608  0.00  0.00    +0.000 NA
ATOM     13  C   UNL     1      -0.858  15.266  23.373  0.00  0.00    +0.000 A 
ATOM     14  C   UNL     1      -1.482  16.252  24.142  0.00  0.00    +0.000 A 
ATOM     15  C   UNL     1      -2.653  16.005  24.875  0.00  0.00    +0.000 A 
ATOM     16  C   UNL     1      -3.232  14.744  24.851  0.00  0.00    +0.000 A 
ATOM     17  C   UNL     1      -2.609  13.732  24.135  0.00  0.00    +0.000 A 
ATOM     18  C   UNL     1      -1.418  13.984  23.413  0.00  0.00    +0.000 A 
ATOM     19  H   UNL     1       2.312  15.570  21.167  0.00  0.00    +0.000 HD
ATOM     20  H   UNL     1       3.458  13.510  18.544  0.00  0.00    +0.000 HD
ATOM     21  H   UNL     1       5.177  14.939  17.999  0.00  0.00    +0.000 HD
ENDROOT
BRANCH  11  22
ATOM     22  C   UNL     1       6.594  15.628  19.341  0.00  0.00    +0.000 A 
ATOM     23  C   UNL     1       6.773  16.979  19.024  0.00  0.00    +0.000 A 
ATOM     24  C   UNL     1       7.963  17.635  19.355  0.00  0.00    +0.000 A 
ATOM     25  C   UNL     1       8.990  16.941  19.991  0.00  0.00    +0.000 A 
ATOM     26  C   UNL     1       8.812  15.599  20.326  0.00  0.00    +0.000 A 
ATOM     27  C   UNL     1       7.607  14.951  20.028  0.00  0.00    +0.000 A 
ENDBRANCH  11  22
BRANCH   7  28
ATOM     28  C   UNL     1      -0.157  13.484  19.062  0.00  0.00    +0.000 C 
ATOM     29  O   UNL     1      -0.690  14.569  18.864  0.00  0.00    +0.000 OA
ATOM     30  N   UNL     1      -0.846  12.295  19.216  0.00  0.00    +0.000 N 
ATOM     31  H   UNL     1      -0.258  11.504  19.426  0.00  0.00    +0.000 HD
BRANCH  30  32
ATOM     32  C   UNL     1      -2.234  12.079  19.012  0.00  0.00    +0.000 A 
ATOM     33  C   UNL     1      -3.220  12.502  19.910  0.00  0.00    +0.000 A 
ATOM     34  C   UNL     1      -4.583  12.378  19.611  0.00  0.00    +0.000 A 
ATOM     35  C   UNL     1      -4.987  11.813  18.408  0.00  0.00    +0.000 A 
ATOM     36  C   UNL     1      -4.024  11.341  17.520  0.00  0.00    +0.000 A 
ATOM     37  C   UNL     1      -2.656  11.469  17.820  0.00  0.00    +0.000 A 
ENDBRANCH  30  32
ENDBRANCH   7  28
TORSDOF 3
ENDMDL
MODEL 9
REMARK VINA RESULT:      -6.6      4.138      7.471
REMARK  Name = 
REMARK  4 active torsions:
REMARK  status: ('A' for Active; 'I' for Inactive)
REMARK    1  A    between atoms: C_1  and  C_2
REMARK    2  A    between atoms: N_7  and  C_8
REMARK    3  A    between atoms: N_10  and  C_11
REMARK    4  A    between atoms: N_20  and  C_21
REMARK                            x       y       z     vdW  Elec       q    Type
REMARK                         _______ _______ _______ _____ _____    ______ ____
ROOT
ATOM      1  C   UNL     1      -2.626  12.756  18.961  0.00  0.00    +0.000 C 
ATOM      2  C   UNL     1      -2.121  12.125  20.221  0.00  0.00    +0.000 A 
ATOM      3  N   UNL     1      -1.150  11.214  20.045  0.00  0.00    +0.000 NA
ATOM      4  C   UNL     1      -0.616  10.636  21.129  0.00  0.00    +0.000 A 
ATOM      5  N   UNL     1       0.553   9.891  20.962  0.00  0.00    +0.000 N 
ATOM      6  C   UNL     1       1.331   9.917  19.832  0.00  0.00    +0.000 C 
ATOM      7  N   UNL     1       1.691  10.907  19.062  0.00  0.00    +0.000 NA
ATOM      8  N   UNL     1       1.906   8.715  19.416  0.00  0.00    +0.000 N 
ATOM      9  C   UNL     1       1.799   7.479  20.027  0.00  0.00    +0.000 C 
ATOM     10  O   UNL     1       0.932   7.240  20.865  0.00  0.00    +0.000 OA
ATOM     11  N   UNL     1       2.777   6.580  19.617  0.00  0.00    +0.000 N 
ATOM     12  N   UNL     1      -1.131  10.785  22.363  0.00  0.00    +0.000 NA
ATOM     13  C   UNL     1      -2.084  11.725  22.540  0.00  0.00    +0.000 A 
ATOM     14  C   UNL     1      -2.587  12.006  23.813  0.00  0.00    +0.000 A 
ATOM     15  C   UNL     1      -3.509  13.038  24.048  0.00  0.00    +0.000 A 
ATOM     16  C   UNL     1      -3.951  13.823  22.993  0.00  0.00    +0.000 A 
ATOM     17  C   UNL     1      -3.505  13.538  21.709  0.00  0.00    +0.000 A 
ATOM     18  C   UNL     1      -2.590  12.483  21.478  0.00  0.00    +0.000 A 
ATOM     19  H   UNL     1       0.507   9.037  21.507  0.00  0.00    +0.000 HD
ATOM     20  H   UNL     1       2.495   8.799  18.603  0.00  0.00    +0.000 HD
ATOM     21  H   UNL     1       3.676   6.993  19.403  0.00  0.00    +0.000 HD
ENDROOT
BRANCH  11  22
ATOM     22  C   UNL     1       2.810   5.245  20.096  0.00  0.00    +0.000 A 
ATOM     23  C   UNL     1       1.968   4.819  21.129  0.00  0.00    +0.000 A 
ATOM     24  C   UNL     1       2.040   3.508  21.611  0.00  0.00    +0.000 A 
ATOM     25  C   UNL     1       2.968   2.618  21.075  0.00  0.00    +0.000 A 
ATOM     26  C   UNL     1       3.799   3.030  20.034  0.00  0.00    +0.000 A 
ATOM     27  C   UNL     1       3.702   4.331  19.525  0.00  0.00    +0.000 A 
ENDBRANCH  11  22
BRANCH   7  28
ATOM     28  C   UNL     1       1.522  12.193  19.535  0.00  0.00    +0.000 C 
ATOM     29  O   UNL     1       1.896  12.532  20.652  0.00  0.00    +0.000 OA
ATOM     30  N   UNL     1       1.017  13.064  18.586  0.00  0.00    +0.000 N 
ATOM     31  H   UNL     1       0.705  12.613  17.741  0.00  0.00    +0.000 HD
BRANCH  30  32
ATOM     32  C   UNL     1       0.996  14.481  18.653  0.00  0.00    +0.000 A 
ATOM     33  C   UNL     1      -0.142  15.220  18.997  0.00  0.00    +0.000 A 
ATOM     34  C   UNL     1      -0.086  16.609  19.170  0.00  0.00    +0.000 A 
ATOM     35  C   UNL     1       1.110  17.290  18.987  0.00  0.00    +0.000 A 
ATOM     36  C   UNL     1       2.244  16.582  18.597  0.00  0.00    +0.000 A 
ATOM     37  C   UNL     1       2.188  15.187  18.427  0.00  0.00    +0.000 A 
ENDBRANCH  30  32
ENDBRANCH   7  28
TORSDOF 3
ENDMDL
