MODEL 1
REMARK VINA RESULT:      -8.4      0.000      0.000
REMARK  Name = 
REMARK  2 active torsions:
REMARK  status: ('A' for Active; 'I' for Inactive)
REMARK    1  A    between atoms: C_1  and  C_2
REMARK    2  A    between atoms: C_5  and  C_6
REMARK                            x       y       z     vdW  Elec       q    Type
REMARK                         _______ _______ _______ _____ _____    ______ ____
ROOT
ATOM      1  C   UNL     1       4.882   4.172  18.258  0.00  0.00    +0.000 C 
ATOM      2  N   UNL     1       5.301   2.949  18.869  0.00  0.00    +0.000 N 
ATOM      3  C   UNL     1       4.673   2.488  19.996  0.00  0.00    +0.000 C 
ATOM      4  O   UNL     1       5.228   1.723  20.775  0.00  0.00    +0.000 OA
ATOM      5  C   UNL     1       3.286   2.955  20.200  0.00  0.00    +0.000 A 
ATOM      6  C   UNL     1       2.552   2.549  21.321  0.00  0.00    +0.000 A 
ATOM      7  C   UNL     1       1.219   2.935  21.446  0.00  0.00    +0.000 A 
ATOM      8  C   UNL     1       0.625   3.706  20.446  0.00  0.00    +0.000 A 
ATOM      9  C   UNL     1       1.367   4.113  19.331  0.00  0.00    +0.000 A 
ATOM     10  C   UNL     1       2.719   3.777  19.215  0.00  0.00    +0.000 A 
ATOM     11  N   UNL     1       3.443   4.125  18.059  0.00  0.00    +0.000 N 
ATOM     12  H   UNL     1       6.275   2.691  18.799  0.00  0.00    +0.000 HD
ATOM     13  H   UNL     1       3.092   4.966  17.614  0.00  0.00    +0.000 HD
ENDROOT
BRANCH   1  18
ATOM     14  C   UNL     1       7.564   4.992  13.132  0.00  0.00    +0.000 C 
ATOM     15  C   UNL     1       6.881   4.809  14.455  0.00  0.00    +0.000 A 
ATOM     16  C   UNL     1       7.558   5.043  15.656  0.00  0.00    +0.000 A 
ATOM     17  C   UNL     1       6.916   4.844  16.883  0.00  0.00    +0.000 A 
ATOM     18  C   UNL     1       5.581   4.408  16.935  0.00  0.00    +0.000 A 
ATOM     19  C   UNL     1       4.906   4.184  15.725  0.00  0.00    +0.000 A 
ATOM     20  C   UNL     1       5.551   4.381  14.499  0.00  0.00    +0.000 A 
ENDBRANCH   1  18
TORSDOF 1
ENDMDL
MODEL 2
REMARK VINA RESULT:      -8.4      0.052      1.137
REMARK  Name = 
REMARK  2 active torsions:
REMARK  status: ('A' for Active; 'I' for Inactive)
REMARK    1  A    between atoms: C_1  and  C_2
REMARK    2  A    between atoms: C_5  and  C_6
REMARK                            x       y       z     vdW  Elec       q    Type
REMARK                         _______ _______ _______ _____ _____    ______ ____
ROOT
ATOM      1  C   UNL     1       4.866   4.135  18.247  0.00  0.00    +0.000 C 
ATOM      2  N   UNL     1       5.300   2.932  18.888  0.00  0.00    +0.000 N 
ATOM      3  C   UNL     1       4.673   2.489  20.023  0.00  0.00    +0.000 C 
ATOM      4  O   UNL     1       5.236   1.750  20.822  0.00  0.00    +0.000 OA
ATOM      5  C   UNL     1       3.279   2.940  20.211  0.00  0.00    +0.000 A 
ATOM      6  C   UNL     1       2.547   2.550  21.339  0.00  0.00    +0.000 A 
ATOM      7  C   UNL     1       1.208   2.920  21.449  0.00  0.00    +0.000 A 
ATOM      8  C   UNL     1       0.607   3.659  20.429  0.00  0.00    +0.000 A 
ATOM      9  C   UNL     1       1.347   4.051  19.308  0.00  0.00    +0.000 A 
ATOM     10  C   UNL     1       2.705   3.732  19.205  0.00  0.00    +0.000 A 
ATOM     11  N   UNL     1       3.429   4.063  18.044  0.00  0.00    +0.000 N 
ATOM     12  H   UNL     1       6.277   2.687  18.828  0.00  0.00    +0.000 HD
ATOM     13  H   UNL     1       3.068   4.888  17.578  0.00  0.00    +0.000 HD
ENDROOT
BRANCH   1  18
ATOM     14  C   UNL     1       7.588   5.059  13.160  0.00  0.00    +0.000 C 
ATOM     15  C   UNL     1       6.883   4.795  14.458  0.00  0.00    +0.000 A 
ATOM     16  C   UNL     1       5.543   4.395  14.484  0.00  0.00    +0.000 A 
ATOM     17  C   UNL     1       4.892   4.177  15.702  0.00  0.00    +0.000 A 
ATOM     18  C   UNL     1       5.568   4.351  16.922  0.00  0.00    +0.000 A 
ATOM     19  C   UNL     1       6.915   4.743  16.887  0.00  0.00    +0.000 A 
ATOM     20  C   UNL     1       7.564   4.964  15.668  0.00  0.00    +0.000 A 
ENDBRANCH   1  18
TORSDOF 1
ENDMDL
MODEL 3
REMARK VINA RESULT:      -7.7      2.139      6.760
REMARK  Name = 
REMARK  2 active torsions:
REMARK  status: ('A' for Active; 'I' for Inactive)
REMARK    1  A    between atoms: C_1  and  C_2
REMARK    2  A    between atoms: C_5  and  C_6
REMARK                            x       y       z     vdW  Elec       q    Type
REMARK                         _______ _______ _______ _____ _____    ______ ____
ROOT
ATOM      1  C   UNL     1       5.331   4.006  16.868  0.00  0.00    +0.000 C 
ATOM      2  N   UNL     1       5.919   5.306  16.964  0.00  0.00    +0.000 N 
ATOM      3  C   UNL     1       6.860   5.708  16.053  0.00  0.00    +0.000 C 
ATOM      4  O   UNL     1       7.674   6.586  16.313  0.00  0.00    +0.000 OA
ATOM      5  C   UNL     1       6.818   5.034  14.739  0.00  0.00    +0.000 A 
ATOM      6  C   UNL     1       7.737   5.365  13.736  0.00  0.00    +0.000 A 
ATOM      7  C   UNL     1       7.623   4.776  12.479  0.00  0.00    +0.000 A 
ATOM      8  C   UNL     1       6.586   3.876  12.227  0.00  0.00    +0.000 A 
ATOM      9  C   UNL     1       5.675   3.544  13.237  0.00  0.00    +0.000 A 
ATOM     10  C   UNL     1       5.805   4.088  14.519  0.00  0.00    +0.000 A 
ATOM     11  N   UNL     1       4.847   3.811  15.512  0.00  0.00    +0.000 N 
ATOM     12  H   UNL     1       6.025   5.713  17.882  0.00  0.00    +0.000 HD
ATOM     13  H   UNL     1       4.406   2.906  15.390  0.00  0.00    +0.000 HD
ENDROOT
BRANCH   1  18
ATOM     14  C   UNL     1       0.972   3.221  20.679  0.00  0.00    +0.000 C 
ATOM     15  C   UNL     1       2.084   3.450  19.699  0.00  0.00    +0.000 A 
ATOM     16  C   UNL     1       1.829   3.971  18.426  0.00  0.00    +0.000 A 
ATOM     17  C   UNL     1       2.874   4.156  17.513  0.00  0.00    +0.000 A 
ATOM     18  C   UNL     1       4.196   3.827  17.855  0.00  0.00    +0.000 A 
ATOM     19  C   UNL     1       4.444   3.313  19.137  0.00  0.00    +0.000 A 
ATOM     20  C   UNL     1       3.399   3.126  20.047  0.00  0.00    +0.000 A 
ENDBRANCH   1  18
TORSDOF 1
ENDMDL
MODEL 4
REMARK VINA RESULT:      -7.7      2.143      6.686
REMARK  Name = 
REMARK  2 active torsions:
REMARK  status: ('A' for Active; 'I' for Inactive)
REMARK    1  A    between atoms: C_1  and  C_2
REMARK    2  A    between atoms: C_5  and  C_6
REMARK                            x       y       z     vdW  Elec       q    Type
REMARK                         _______ _______ _______ _____ _____    ______ ____
ROOT
ATOM      1  C   UNL     1       5.331   3.974  16.839  0.00  0.00    +0.000 C 
ATOM      2  N   UNL     1       5.918   5.274  16.948  0.00  0.00    +0.000 N 
ATOM      3  C   UNL     1       6.859   5.685  16.040  0.00  0.00    +0.000 C 
ATOM      4  O   UNL     1       7.671   6.562  16.309  0.00  0.00    +0.000 OA
ATOM      5  C   UNL     1       6.818   5.023  14.720  0.00  0.00    +0.000 A 
ATOM      6  C   UNL     1       7.736   5.364  13.720  0.00  0.00    +0.000 A 
ATOM      7  C   UNL     1       7.623   4.786  12.458  0.00  0.00    +0.000 A 
ATOM      8  C   UNL     1       6.587   3.887  12.198  0.00  0.00    +0.000 A 
ATOM      9  C   UNL     1       5.676   3.546  13.205  0.00  0.00    +0.000 A 
ATOM     10  C   UNL     1       5.806   4.078  14.491  0.00  0.00    +0.000 A 
ATOM     11  N   UNL     1       4.847   3.791  15.482  0.00  0.00    +0.000 N 
ATOM     12  H   UNL     1       6.023   5.673  17.869  0.00  0.00    +0.000 HD
ATOM     13  H   UNL     1       4.408   2.887  15.352  0.00  0.00    +0.000 HD
ENDROOT
BRANCH   1  18
ATOM     14  C   UNL     1       0.929   3.337  20.629  0.00  0.00    +0.000 C 
ATOM     15  C   UNL     1       2.067   3.473  19.660  0.00  0.00    +0.000 A 
ATOM     16  C   UNL     1       3.384   3.213  20.052  0.00  0.00    +0.000 A 
ATOM     17  C   UNL     1       4.438   3.368  19.145  0.00  0.00    +0.000 A 
ATOM     18  C   UNL     1       4.196   3.785  17.825  0.00  0.00    +0.000 A 
ATOM     19  C   UNL     1       2.871   4.035  17.437  0.00  0.00    +0.000 A 
ATOM     20  C   UNL     1       1.819   3.882  18.346  0.00  0.00    +0.000 A 
ENDBRANCH   1  18
TORSDOF 1
ENDMDL
MODEL 5
REMARK VINA RESULT:      -7.4      1.273      1.309
REMARK  Name = 
REMARK  2 active torsions:
REMARK  status: ('A' for Active; 'I' for Inactive)
REMARK    1  A    between atoms: C_1  and  C_2
REMARK    2  A    between atoms: C_5  and  C_6
REMARK                            x       y       z     vdW  Elec       q    Type
REMARK                         _______ _______ _______ _____ _____    ______ ____
ROOT
ATOM      1  C   UNL     1       5.003   3.929  17.501  0.00  0.00    +0.000 C 
ATOM      2  N   UNL     1       4.439   2.615  17.457  0.00  0.00    +0.000 N 
ATOM      3  C   UNL     1       3.621   2.180  18.466  0.00  0.00    +0.000 C 
ATOM      4  O   UNL     1       3.463   0.988  18.698  0.00  0.00    +0.000 OA
ATOM      5  C   UNL     1       2.930   3.233  19.239  0.00  0.00    +0.000 A 
ATOM      6  C   UNL     1       2.073   2.900  20.295  0.00  0.00    +0.000 A 
ATOM      7  C   UNL     1       1.369   3.907  20.952  0.00  0.00    +0.000 A 
ATOM      8  C   UNL     1       1.511   5.233  20.540  0.00  0.00    +0.000 A 
ATOM      9  C   UNL     1       2.374   5.559  19.487  0.00  0.00    +0.000 A 
ATOM     10  C   UNL     1       3.126   4.567  18.851  0.00  0.00    +0.000 A 
ATOM     11  N   UNL     1       3.938   4.886  17.745  0.00  0.00    +0.000 N 
ATOM     12  H   UNL     1       4.969   1.885  17.005  0.00  0.00    +0.000 HD
ATOM     13  H   UNL     1       4.281   5.840  17.773  0.00  0.00    +0.000 HD
ENDROOT
BRANCH   1  18
ATOM     14  C   UNL     1       7.808   5.167  12.527  0.00  0.00    +0.000 C 
ATOM     15  C   UNL     1       7.085   4.877  13.809  0.00  0.00    +0.000 A 
ATOM     16  C   UNL     1       7.558   5.365  15.032  0.00  0.00    +0.000 A 
ATOM     17  C   UNL     1       6.888   5.065  16.222  0.00  0.00    +0.000 A 
ATOM     18  C   UNL     1       5.726   4.274  16.216  0.00  0.00    +0.000 A 
ATOM     19  C   UNL     1       5.253   3.797  14.984  0.00  0.00    +0.000 A 
ATOM     20  C   UNL     1       5.926   4.094  13.795  0.00  0.00    +0.000 A 
ENDBRANCH   1  18
TORSDOF 1
ENDMDL
MODEL 6
REMARK VINA RESULT:      -7.4      1.295      1.742
REMARK  Name = 
REMARK  2 active torsions:
REMARK  status: ('A' for Active; 'I' for Inactive)
REMARK    1  A    between atoms: C_1  and  C_2
REMARK    2  A    between atoms: C_5  and  C_6
REMARK                            x       y       z     vdW  Elec       q    Type
REMARK                         _______ _______ _______ _____ _____    ______ ____
ROOT
ATOM      1  C   UNL     1       5.031   3.919  17.490  0.00  0.00    +0.000 C 
ATOM      2  N   UNL     1       4.436   2.619  17.456  0.00  0.00    +0.000 N 
ATOM      3  C   UNL     1       3.611   2.210  18.470  0.00  0.00    +0.000 C 
ATOM      4  O   UNL     1       3.426   1.023  18.711  0.00  0.00    +0.000 OA
ATOM      5  C   UNL     1       2.946   3.284  19.237  0.00  0.00    +0.000 A 
ATOM      6  C   UNL     1       2.085   2.978  20.298  0.00  0.00    +0.000 A 
ATOM      7  C   UNL     1       1.406   4.006  20.949  0.00  0.00    +0.000 A 
ATOM      8  C   UNL     1       1.577   5.326  20.527  0.00  0.00    +0.000 A 
ATOM      9  C   UNL     1       2.446   5.624  19.470  0.00  0.00    +0.000 A 
ATOM     10  C   UNL     1       3.173   4.610  18.839  0.00  0.00    +0.000 A 
ATOM     11  N   UNL     1       3.988   4.903  17.729  0.00  0.00    +0.000 N 
ATOM     12  H   UNL     1       4.948   1.873  17.008  0.00  0.00    +0.000 HD
ATOM     13  H   UNL     1       4.354   5.848  17.750  0.00  0.00    +0.000 HD
ENDROOT
BRANCH   1  18
ATOM     14  C   UNL     1       7.825   5.245  12.532  0.00  0.00    +0.000 C 
ATOM     15  C   UNL     1       7.111   4.877  13.799  0.00  0.00    +0.000 A 
ATOM     16  C   UNL     1       5.958   4.084  13.775  0.00  0.00    +0.000 A 
ATOM     17  C   UNL     1       5.289   3.769  14.962  0.00  0.00    +0.000 A 
ATOM     18  C   UNL     1       5.759   4.238  16.200  0.00  0.00    +0.000 A 
ATOM     19  C   UNL     1       6.920   5.026  16.216  0.00  0.00    +0.000 A 
ATOM     20  C   UNL     1       7.587   5.342  15.029  0.00  0.00    +0.000 A 
ENDBRANCH   1  18
TORSDOF 1
ENDMDL
MODEL 7
REMARK VINA RESULT:      -7.3      3.382      6.516
REMARK  Name = 
REMARK  2 active torsions:
REMARK  status: ('A' for Active; 'I' for Inactive)
REMARK    1  A    between atoms: C_1  and  C_2
REMARK    2  A    between atoms: C_5  and  C_6
REMARK                            x       y       z     vdW  Elec       q    Type
REMARK                         _______ _______ _______ _____ _____    ______ ____
ROOT
ATOM      1  C   UNL     1       3.143   6.308  18.316  0.00  0.00    +0.000 C 
ATOM      2  N   UNL     1       4.013   5.642  19.235  0.00  0.00    +0.000 N 
ATOM      3  C   UNL     1       4.921   4.720  18.783  0.00  0.00    +0.000 C 
ATOM      4  O   UNL     1       5.369   3.846  19.515  0.00  0.00    +0.000 OA
ATOM      5  C   UNL     1       5.335   4.859  17.372  0.00  0.00    +0.000 A 
ATOM      6  C   UNL     1       6.255   3.967  16.806  0.00  0.00    +0.000 A 
ATOM      7  C   UNL     1       6.693   4.170  15.499  0.00  0.00    +0.000 A 
ATOM      8  C   UNL     1       6.226   5.268  14.774  0.00  0.00    +0.000 A 
ATOM      9  C   UNL     1       5.301   6.151  15.344  0.00  0.00    +0.000 A 
ATOM     10  C   UNL     1       4.813   5.933  16.636  0.00  0.00    +0.000 A 
ATOM     11  N   UNL     1       3.940   6.862  17.235  0.00  0.00    +0.000 N 
ATOM     12  H   UNL     1       3.676   5.472  20.171  0.00  0.00    +0.000 HD
ATOM     13  H   UNL     1       3.372   7.359  16.558  0.00  0.00    +0.000 HD
ENDROOT
BRANCH   1  18
ATOM     14  C   UNL     1       0.005  10.485  20.933  0.00  0.00    +0.000 C 
ATOM     15  C   UNL     1       0.831   9.431  20.255  0.00  0.00    +0.000 A 
ATOM     16  C   UNL     1       1.203   9.559  18.913  0.00  0.00    +0.000 A 
ATOM     17  C   UNL     1       1.952   8.557  18.286  0.00  0.00    +0.000 A 
ATOM     18  C   UNL     1       2.347   7.407  18.990  0.00  0.00    +0.000 A 
ATOM     19  C   UNL     1       1.976   7.291  20.338  0.00  0.00    +0.000 A 
ATOM     20  C   UNL     1       1.225   8.292  20.962  0.00  0.00    +0.000 A 
ENDBRANCH   1  18
TORSDOF 1
ENDMDL
MODEL 8
REMARK VINA RESULT:      -7.3      3.425      6.482
REMARK  Name = 
REMARK  2 active torsions:
REMARK  status: ('A' for Active; 'I' for Inactive)
REMARK    1  A    between atoms: C_1  and  C_2
REMARK    2  A    between atoms: C_5  and  C_6
REMARK                            x       y       z     vdW  Elec       q    Type
REMARK                         _______ _______ _______ _____ _____    ______ ____
ROOT
ATOM      1  C   UNL     1       3.157   6.338  18.284  0.00  0.00    +0.000 C 
ATOM      2  N   UNL     1       4.034   5.705  19.220  0.00  0.00    +0.000 N 
ATOM      3  C   UNL     1       4.956   4.786  18.791  0.00  0.00    +0.000 C 
ATOM      4  O   UNL     1       5.414   3.935  19.543  0.00  0.00    +0.000 OA
ATOM      5  C   UNL     1       5.372   4.898  17.378  0.00  0.00    +0.000 A 
ATOM      6  C   UNL     1       6.306   4.007  16.835  0.00  0.00    +0.000 A 
ATOM      7  C   UNL     1       6.745   4.187  15.525  0.00  0.00    +0.000 A 
ATOM      8  C   UNL     1       6.264   5.262  14.774  0.00  0.00    +0.000 A 
ATOM      9  C   UNL     1       5.326   6.144  15.322  0.00  0.00    +0.000 A 
ATOM     10  C   UNL     1       4.837   5.949  16.618  0.00  0.00    +0.000 A 
ATOM     11  N   UNL     1       3.950   6.878  17.193  0.00  0.00    +0.000 N 
ATOM     12  H   UNL     1       3.697   5.551  20.159  0.00  0.00    +0.000 HD
ATOM     13  H   UNL     1       3.377   7.352  16.504  0.00  0.00    +0.000 HD
ENDROOT
BRANCH   1  18
ATOM     14  C   UNL     1       0.094  10.654  20.760  0.00  0.00    +0.000 C 
ATOM     15  C   UNL     1       0.860   9.527  20.132  0.00  0.00    +0.000 A 
ATOM     16  C   UNL     1       1.234   8.404  20.877  0.00  0.00    +0.000 A 
ATOM     17  C   UNL     1       1.970   7.372  20.284  0.00  0.00    +0.000 A 
ATOM     18  C   UNL     1       2.345   7.440  18.931  0.00  0.00    +0.000 A 
ATOM     19  C   UNL     1       1.958   8.567  18.189  0.00  0.00    +0.000 A 
ATOM     20  C   UNL     1       1.225   9.599  18.784  0.00  0.00    +0.000 A 
ENDBRANCH   1  18
TORSDOF 1
ENDMDL
MODEL 9
REMARK VINA RESULT:      -7.2      3.204      3.791
REMARK  Name = 
REMARK  2 active torsions:
REMARK  status: ('A' for Active; 'I' for Inactive)
REMARK    1  A    between atoms: C_1  and  C_2
REMARK    2  A    between atoms: C_5  and  C_6
REMARK                            x       y       z     vdW  Elec       q    Type
REMARK                         _______ _______ _______ _____ _____    ______ ____
ROOT
ATOM      1  C   UNL     1       3.850   6.295  18.370  0.00  0.00    +0.000 C 
ATOM      2  N   UNL     1       3.134   5.351  19.172  0.00  0.00    +0.000 N 
ATOM      3  C   UNL     1       2.359   5.779  20.218  0.00  0.00    +0.000 C 
ATOM      4  O   UNL     1       2.083   5.043  21.158  0.00  0.00    +0.000 OA
ATOM      5  C   UNL     1       1.866   7.169  20.131  0.00  0.00    +0.000 A 
ATOM      6  C   UNL     1       1.070   7.710  21.148  0.00  0.00    +0.000 A 
ATOM      7  C   UNL     1       0.547   8.993  21.001  0.00  0.00    +0.000 A 
ATOM      8  C   UNL     1       0.808   9.719  19.837  0.00  0.00    +0.000 A 
ATOM      9  C   UNL     1       1.611   9.174  18.828  0.00  0.00    +0.000 A 
ATOM     10  C   UNL     1       2.184   7.907  18.981  0.00  0.00    +0.000 A 
ATOM     11  N   UNL     1       2.929   7.331  17.935  0.00  0.00    +0.000 N 
ATOM     12  H   UNL     1       3.534   4.433  19.297  0.00  0.00    +0.000 HD
ATOM     13  H   UNL     1       3.383   8.023  17.349  0.00  0.00    +0.000 HD
ENDROOT
BRANCH   1  18
ATOM     14  C   UNL     1       6.276   3.798  13.678  0.00  0.00    +0.000 C 
ATOM     15  C   UNL     1       5.672   4.426  14.899  0.00  0.00    +0.000 A 
ATOM     16  C   UNL     1       5.184   3.640  15.949  0.00  0.00    +0.000 A 
ATOM     17  C   UNL     1       4.601   4.239  17.071  0.00  0.00    +0.000 A 
ATOM     18  C   UNL     1       4.496   5.637  17.169  0.00  0.00    +0.000 A 
ATOM     19  C   UNL     1       4.997   6.417  16.115  0.00  0.00    +0.000 A 
ATOM     20  C   UNL     1       5.577   5.817  14.993  0.00  0.00    +0.000 A 
ENDBRANCH   1  18
TORSDOF 1
ENDMDL
