MODEL 1
REMARK VINA RESULT:      -7.5      0.000      0.000
REMARK  Name = 
REMARK  8 active torsions:
REMARK  status: ('A' for Active; 'I' for Inactive)
REMARK    1  A    between atoms: CB_1  and  CA_2
REMARK    2  A    between atoms: CA_2  and  C_3
REMARK    3  A    between atoms: CA_2  and  N_5
REMARK    4  A    between atoms: C_3  and  O_4
REMARK    5  A    between atoms: N_5  and  C_6
REMARK    6  A    between atoms: C_8  and  S_9
REMARK    7  A    between atoms: S_9  and  C_10
REMARK    8  A    between atoms: C_10  and  C_11
REMARK                            x       y       z     vdW  Elec       q    Type
REMARK                         _______ _______ _______ _____ _____    ______ ____
ROOT
ATOM      1  C   UNK A   0       3.926   5.135  17.881  0.00  0.00    +0.000 A 
ATOM      2  N   UNK A   0       3.574   6.407  17.581  0.00  0.00    +0.000 NA
ATOM      3  C   UNK A   0       2.715   7.072  18.378  0.00  0.00    +0.000 A 
ATOM      4  N   UNK A   0       2.135   6.596  19.477  0.00  0.00    +0.000 NA
ATOM      5  C   UNK A   0       2.492   5.338  19.792  0.00  0.00    +0.000 A 
ATOM      6  N   UNK A   0       1.995   4.730  20.924  0.00  0.00    +0.000 NA
ATOM      7  C   UNK A   0       2.495   3.528  21.032  0.00  0.00    +0.000 A 
ATOM      8  N   UNK A   0       2.200   2.712  22.057  0.00  0.00    +0.000 N 
ATOM      9  S   UNK A   0       3.580   3.054  19.792  0.00  0.00    +0.000 S 
ATOM     10  C   UNK A   0       3.376   4.583  19.036  0.00  0.00    +0.000 A 
ATOM     11  H   UNK A   0       1.754   3.152  22.855  0.00  0.00    +0.000 HD
ATOM     12  H   UNK A   0       2.858   1.983  22.301  0.00  0.00    +0.000 HD
ENDROOT
BRANCH   1  13
ATOM     13  N   ALA A   1       4.785   4.411  17.048  0.00  0.00    +0.000 N 
ATOM     14  H   ALA A   1       4.849   3.440  17.349  0.00  0.00    +0.000 HD
BRANCH  13  16
ATOM     15  CB  ALA A   1       6.667   4.348  15.519  0.00  0.00    +0.000 C 
ATOM     16  CA  ALA A   1       6.106   4.997  16.788  0.00  0.00    +0.000 C 
BRANCH  16  17
ATOM     17  C   ALA A   1       7.027   4.728  17.998  0.00  0.00    +0.000 C 
BRANCH  17  18
ATOM     18  O   ALA A   1       8.226   4.052  17.600  0.00  0.00    +0.000 OA
ATOM     19  H   ALA A   1       8.341   4.190  16.645  0.00  0.00    +0.000 HD
ENDBRANCH  17  18
ENDBRANCH  16  17
ENDBRANCH  13  16
ENDBRANCH   1  13
BRANCH   3  20
ATOM     20  S   UNK A   0       2.336   8.750  17.909  0.00  0.00    +0.000 S 
BRANCH  20  21
ATOM     21  C   UNK A   0       1.245   9.198  19.299  0.00  0.00    +0.000 C 
BRANCH  21  22
ATOM     22  C   UNK A   0       0.198  10.215  18.901  0.00  0.00    +0.000 A 
ATOM     23  C   UNK A   0      -0.764   9.841  17.942  0.00  0.00    +0.000 A 
ATOM     24  C   UNK A   0      -1.762  10.727  17.539  0.00  0.00    +0.000 A 
ATOM     25  C   UNK A   0      -1.811  12.010  18.081  0.00  0.00    +0.000 A 
ATOM     26  C   UNK A   0      -0.863  12.406  19.028  0.00  0.00    +0.000 A 
ATOM     27 CL   UNK A   0      -0.998  14.016  19.647  0.00  0.00    +0.000 Cl
ATOM     28  C   UNK A   0       0.143  11.516  19.445  0.00  0.00    +0.000 A 
ATOM     29 CL   UNK A   0       1.306  12.010  20.635  0.00  0.00    +0.000 Cl
ENDBRANCH  21  22
ENDBRANCH  20  21
ENDBRANCH   3  20
TORSDOF 7
ENDMDL
MODEL 2
REMARK VINA RESULT:      -7.4      1.001      1.011
REMARK  Name = 
REMARK  8 active torsions:
REMARK  status: ('A' for Active; 'I' for Inactive)
REMARK    1  A    between atoms: CB_1  and  CA_2
REMARK    2  A    between atoms: CA_2  and  C_3
REMARK    3  A    between atoms: CA_2  and  N_5
REMARK    4  A    between atoms: C_3  and  O_4
REMARK    5  A    between atoms: N_5  and  C_6
REMARK    6  A    between atoms: C_8  and  S_9
REMARK    7  A    between atoms: S_9  and  C_10
REMARK    8  A    between atoms: C_10  and  C_11
REMARK                            x       y       z     vdW  Elec       q    Type
REMARK                         _______ _______ _______ _____ _____    ______ ____
ROOT
ATOM      1  C   UNK A   0       3.683   5.225  17.893  0.00  0.00    +0.000 A 
ATOM      2  N   UNK A   0       3.357   6.508  17.612  0.00  0.00    +0.000 NA
ATOM      3  C   UNK A   0       2.545   7.192  18.441  0.00  0.00    +0.000 A 
ATOM      4  N   UNK A   0       1.989   6.727  19.556  0.00  0.00    +0.000 NA
ATOM      5  C   UNK A   0       2.320   5.458  19.853  0.00  0.00    +0.000 A 
ATOM      6  N   UNK A   0       1.844   4.857  20.998  0.00  0.00    +0.000 NA
ATOM      7  C   UNK A   0       2.313   3.642  21.084  0.00  0.00    +0.000 A 
ATOM      8  N   UNK A   0       2.030   2.828  22.114  0.00  0.00    +0.000 N 
ATOM      9  S   UNK A   0       3.342   3.143  19.806  0.00  0.00    +0.000 S 
ATOM     10  C   UNK A   0       3.156   4.682  19.064  0.00  0.00    +0.000 A 
ATOM     11  H   UNK A   0       1.624   3.276  22.929  0.00  0.00    +0.000 HD
ATOM     12  H   UNK A   0       2.675   2.080  22.333  0.00  0.00    +0.000 HD
ENDROOT
BRANCH   1  13
ATOM     13  N   ALA A   1       4.492   4.482  17.029  0.00  0.00    +0.000 N 
ATOM     14  H   ALA A   1       5.012   3.770  17.540  0.00  0.00    +0.000 HD
BRANCH  13  16
ATOM     15  CB  ALA A   1       5.419   4.469  14.787  0.00  0.00    +0.000 C 
ATOM     16  CA  ALA A   1       5.351   5.239  16.110  0.00  0.00    +0.000 C 
BRANCH  16  17
ATOM     17  C   ALA A   1       6.756   5.387  16.734  0.00  0.00    +0.000 C 
BRANCH  17  18
ATOM     18  O   ALA A   1       7.630   6.132  15.878  0.00  0.00    +0.000 OA
ATOM     19  H   ALA A   1       7.619   7.058  16.177  0.00  0.00    +0.000 HD
ENDBRANCH  17  18
ENDBRANCH  16  17
ENDBRANCH  13  16
ENDBRANCH   1  13
BRANCH   3  20
ATOM     20  S   UNK A   0       2.198   8.883  17.992  0.00  0.00    +0.000 S 
BRANCH  20  21
ATOM     21  C   UNK A   0       1.177   9.357  19.426  0.00  0.00    +0.000 C 
BRANCH  21  22
ATOM     22  C   UNK A   0      -0.092  10.070  19.014  0.00  0.00    +0.000 A 
ATOM     23  C   UNK A   0      -0.657   9.759  17.762  0.00  0.00    +0.000 A 
ATOM     24  C   UNK A   0      -1.830  10.372  17.327  0.00  0.00    +0.000 A 
ATOM     25  C   UNK A   0      -2.458  11.320  18.135  0.00  0.00    +0.000 A 
ATOM     26  C   UNK A   0      -1.913  11.651  19.377  0.00  0.00    +0.000 A 
ATOM     27 CL   UNK A   0      -2.757  12.837  20.313  0.00  0.00    +0.000 Cl
ATOM     28  C   UNK A   0      -0.733  11.031  19.826  0.00  0.00    +0.000 A 
ATOM     29 CL   UNK A   0      -0.072  11.436  21.380  0.00  0.00    +0.000 Cl
ENDBRANCH  21  22
ENDBRANCH  20  21
ENDBRANCH   3  20
TORSDOF 7
ENDMDL
MODEL 3
REMARK VINA RESULT:      -7.3      2.356      4.112
REMARK  Name = 
REMARK  8 active torsions:
REMARK  status: ('A' for Active; 'I' for Inactive)
REMARK    1  A    between atoms: CB_1  and  CA_2
REMARK    2  A    between atoms: CA_2  and  C_3
REMARK    3  A    between atoms: CA_2  and  N_5
REMARK    4  A    between atoms: C_3  and  O_4
REMARK    5  A    between atoms: N_5  and  C_6
REMARK    6  A    between atoms: C_8  and  S_9
REMARK    7  A    between atoms: S_9  and  C_10
REMARK    8  A    between atoms: C_10  and  C_11
REMARK                            x       y       z     vdW  Elec       q    Type
REMARK                         _______ _______ _______ _____ _____    ______ ____
ROOT
ATOM      1  C   UNK A   0       3.335   5.583  18.950  0.00  0.00    +0.000 A 
ATOM      2  N   UNK A   0       2.547   6.681  18.888  0.00  0.00    +0.000 NA
ATOM      3  C   UNK A   0       2.866   7.691  18.056  0.00  0.00    +0.000 A 
ATOM      4  N   UNK A   0       3.926   7.743  17.254  0.00  0.00    +0.000 NA
ATOM      5  C   UNK A   0       4.707   6.649  17.296  0.00  0.00    +0.000 A 
ATOM      6  N   UNK A   0       5.821   6.550  16.493  0.00  0.00    +0.000 NA
ATOM      7  C   UNK A   0       6.405   5.399  16.691  0.00  0.00    +0.000 A 
ATOM      8  N   UNK A   0       7.508   5.022  16.024  0.00  0.00    +0.000 N 
ATOM      9  S   UNK A   0       5.665   4.372  17.848  0.00  0.00    +0.000 S 
ATOM     10  C   UNK A   0       4.450   5.558  18.115  0.00  0.00    +0.000 A 
ATOM     11  H   UNK A   0       7.733   5.572  15.201  0.00  0.00    +0.000 HD
ATOM     12  H   UNK A   0       7.702   4.034  15.926  0.00  0.00    +0.000 HD
ENDROOT
BRANCH   1  13
ATOM     13  N   ALA A   1       3.047   4.540  19.834  0.00  0.00    +0.000 N 
ATOM     14  H   ALA A   1       3.755   3.809  19.777  0.00  0.00    +0.000 HD
BRANCH  13  16
ATOM     15  CB  ALA A   1       1.501   3.093  21.019  0.00  0.00    +0.000 C 
ATOM     16  CA  ALA A   1       1.685   3.992  19.792  0.00  0.00    +0.000 C 
BRANCH  16  17
ATOM     17  C   ALA A   1       1.501   3.189  18.487  0.00  0.00    +0.000 C 
BRANCH  17  18
ATOM     18  O   ALA A   1       1.127   4.041  17.398  0.00  0.00    +0.000 OA
ATOM     19  H   ALA A   1       1.627   4.871  17.487  0.00  0.00    +0.000 HD
ENDBRANCH  17  18
ENDBRANCH  16  17
ENDBRANCH  13  16
ENDBRANCH   1  13
BRANCH   3  20
ATOM     20  S   UNK A   0       1.748   9.081  18.031  0.00  0.00    +0.000 S 
BRANCH  20  21
ATOM     21  C   UNK A   0       1.128   8.982  19.742  0.00  0.00    +0.000 C 
BRANCH  21  22
ATOM     22  C   UNK A   0       0.141  10.085  20.058  0.00  0.00    +0.000 A 
ATOM     23  C   UNK A   0      -0.436  10.792  18.985  0.00  0.00    +0.000 A 
ATOM     24  C   UNK A   0      -1.359  11.812  19.208  0.00  0.00    +0.000 A 
ATOM     25  C   UNK A   0      -1.717  12.152  20.511  0.00  0.00    +0.000 A 
ATOM     26  C   UNK A   0      -1.152  11.470  21.592  0.00  0.00    +0.000 A 
ATOM     27 CL   UNK A   0      -1.653  11.959  23.175  0.00  0.00    +0.000 Cl
ATOM     28  C   UNK A   0      -0.225  10.435  21.376  0.00  0.00    +0.000 A 
ATOM     29 CL   UNK A   0       0.458   9.581  22.724  0.00  0.00    +0.000 Cl
ENDBRANCH  21  22
ENDBRANCH  20  21
ENDBRANCH   3  20
TORSDOF 7
ENDMDL
MODEL 4
REMARK VINA RESULT:      -7.3      2.671      4.384
REMARK  Name = 
REMARK  8 active torsions:
REMARK  status: ('A' for Active; 'I' for Inactive)
REMARK    1  A    between atoms: CB_1  and  CA_2
REMARK    2  A    between atoms: CA_2  and  C_3
REMARK    3  A    between atoms: CA_2  and  N_5
REMARK    4  A    between atoms: C_3  and  O_4
REMARK    5  A    between atoms: N_5  and  C_6
REMARK    6  A    between atoms: C_8  and  S_9
REMARK    7  A    between atoms: S_9  and  C_10
REMARK    8  A    between atoms: C_10  and  C_11
REMARK                            x       y       z     vdW  Elec       q    Type
REMARK                         _______ _______ _______ _____ _____    ______ ____
ROOT
ATOM      1  C   UNK A   0       3.167   5.319  18.270  0.00  0.00    +0.000 A 
ATOM      2  N   UNK A   0       2.385   6.415  18.404  0.00  0.00    +0.000 NA
ATOM      3  C   UNK A   0       2.759   7.580  17.840  0.00  0.00    +0.000 A 
ATOM      4  N   UNK A   0       3.869   7.792  17.139  0.00  0.00    +0.000 NA
ATOM      5  C   UNK A   0       4.645   6.704  16.986  0.00  0.00    +0.000 A 
ATOM      6  N   UNK A   0       5.810   6.770  16.253  0.00  0.00    +0.000 NA
ATOM      7  C   UNK A   0       6.378   5.594  16.227  0.00  0.00    +0.000 A 
ATOM      8  N   UNK A   0       7.523   5.359  15.564  0.00  0.00    +0.000 N 
ATOM      9  S   UNK A   0       5.563   4.348  17.077  0.00  0.00    +0.000 S 
ATOM     10  C   UNK A   0       4.335   5.463  17.523  0.00  0.00    +0.000 A 
ATOM     11  H   UNK A   0       7.801   6.074  14.901  0.00  0.00    +0.000 HD
ATOM     12  H   UNK A   0       7.722   4.414  15.261  0.00  0.00    +0.000 HD
ENDROOT
BRANCH   1  13
ATOM     13  N   ALA A   1       2.821   4.109  18.879  0.00  0.00    +0.000 N 
ATOM     14  H   ALA A   1       3.261   3.323  18.403  0.00  0.00    +0.000 HD
BRANCH  13  16
ATOM     15  CB  ALA A   1       1.142   4.014  20.628  0.00  0.00    +0.000 C 
ATOM     16  CA  ALA A   1       1.392   3.875  19.123  0.00  0.00    +0.000 C 
BRANCH  16  17
ATOM     17  C   ALA A   1       1.018   2.460  18.631  0.00  0.00    +0.000 C 
BRANCH  17  18
ATOM     18  O   ALA A   1       2.186   1.684  18.339  0.00  0.00    +0.000 OA
ATOM     19  H   ALA A   1       2.593   2.053  17.537  0.00  0.00    +0.000 HD
ENDBRANCH  17  18
ENDBRANCH  16  17
ENDBRANCH  13  16
ENDBRANCH   1  13
BRANCH   3  20
ATOM     20  S   UNK A   0       1.646   8.957  18.054  0.00  0.00    +0.000 S 
BRANCH  20  21
ATOM     21  C   UNK A   0       1.396   8.848  19.856  0.00  0.00    +0.000 C 
BRANCH  21  22
ATOM     22  C   UNK A   0       0.768  10.102  20.425  0.00  0.00    +0.000 A 
ATOM     23  C   UNK A   0       1.109  11.340  19.846  0.00  0.00    +0.000 A 
ATOM     24  C   UNK A   0       0.558  12.531  20.316  0.00  0.00    +0.000 A 
ATOM     25  C   UNK A   0      -0.338  12.508  21.383  0.00  0.00    +0.000 A 
ATOM     26  C   UNK A   0      -0.685  11.292  21.978  0.00  0.00    +0.000 A 
ATOM     27 CL   UNK A   0      -1.803  11.357  23.297  0.00  0.00    +0.000 Cl
ATOM     28  C   UNK A   0      -0.139  10.086  21.506  0.00  0.00    +0.000 A 
ATOM     29 CL   UNK A   0      -0.590   8.579  22.240  0.00  0.00    +0.000 Cl
ENDBRANCH  21  22
ENDBRANCH  20  21
ENDBRANCH   3  20
TORSDOF 7
ENDMDL
MODEL 5
REMARK VINA RESULT:      -7.3      1.413      1.784
REMARK  Name = 
REMARK  8 active torsions:
REMARK  status: ('A' for Active; 'I' for Inactive)
REMARK    1  A    between atoms: CB_1  and  CA_2
REMARK    2  A    between atoms: CA_2  and  C_3
REMARK    3  A    between atoms: CA_2  and  N_5
REMARK    4  A    between atoms: C_3  and  O_4
REMARK    5  A    between atoms: N_5  and  C_6
REMARK    6  A    between atoms: C_8  and  S_9
REMARK    7  A    between atoms: S_9  and  C_10
REMARK    8  A    between atoms: C_10  and  C_11
REMARK                            x       y       z     vdW  Elec       q    Type
REMARK                         _______ _______ _______ _____ _____    ______ ____
ROOT
ATOM      1  C   UNK A   0       3.884   5.131  17.847  0.00  0.00    +0.000 A 
ATOM      2  N   UNK A   0       3.652   6.429  17.543  0.00  0.00    +0.000 NA
ATOM      3  C   UNK A   0       2.876   7.179  18.350  0.00  0.00    +0.000 A 
ATOM      4  N   UNK A   0       2.272   6.769  19.462  0.00  0.00    +0.000 NA
ATOM      5  C   UNK A   0       2.511   5.484  19.782  0.00  0.00    +0.000 A 
ATOM      6  N   UNK A   0       1.978   4.935  20.926  0.00  0.00    +0.000 NA
ATOM      7  C   UNK A   0       2.362   3.691  21.036  0.00  0.00    +0.000 A 
ATOM      8  N   UNK A   0       2.007   2.913  22.072  0.00  0.00    +0.000 N 
ATOM      9  S   UNK A   0       3.373   3.105  19.781  0.00  0.00    +0.000 S 
ATOM     10  C   UNK A   0       3.304   4.642  19.016  0.00  0.00    +0.000 A 
ATOM     11  H   UNK A   0       1.621   3.400  22.874  0.00  0.00    +0.000 HD
ATOM     12  H   UNK A   0       2.596   2.126  22.311  0.00  0.00    +0.000 HD
ENDROOT
BRANCH   1  13
ATOM     13  N   ALA A   1       4.653   4.322  17.005  0.00  0.00    +0.000 N 
ATOM     14  H   ALA A   1       5.001   3.505  17.505  0.00  0.00    +0.000 HD
BRANCH  13  16
ATOM     15  CB  ALA A   1       5.532   4.593  14.760  0.00  0.00    +0.000 C 
ATOM     16  CA  ALA A   1       5.709   4.985  16.230  0.00  0.00    +0.000 C 
BRANCH  16  17
ATOM     17  C   ALA A   1       7.087   4.534  16.759  0.00  0.00    +0.000 C 
BRANCH  17  18
ATOM     18  O   ALA A   1       7.029   4.208  18.153  0.00  0.00    +0.000 OA
ATOM     19  H   ALA A   1       7.532   3.386  18.286  0.00  0.00    +0.000 HD
ENDBRANCH  17  18
ENDBRANCH  16  17
ENDBRANCH  13  16
ENDBRANCH   1  13
BRANCH   3  20
ATOM     20  S   UNK A   0       2.653   8.883  17.874  0.00  0.00    +0.000 S 
BRANCH  20  21
ATOM     21  C   UNK A   0       0.838   8.901  17.709  0.00  0.00    +0.000 C 
BRANCH  21  22
ATOM     22  C   UNK A   0       0.188   9.906  18.635  0.00  0.00    +0.000 A 
ATOM     23  C   UNK A   0       0.911  10.337  19.765  0.00  0.00    +0.000 A 
ATOM     24  C   UNK A   0       0.375  11.269  20.651  0.00  0.00    +0.000 A 
ATOM     25  C   UNK A   0      -0.903  11.781  20.431  0.00  0.00    +0.000 A 
ATOM     26  C   UNK A   0      -1.642  11.362  19.322  0.00  0.00    +0.000 A 
ATOM     27 CL   UNK A   0      -3.219  12.049  19.126  0.00  0.00    +0.000 Cl
ATOM     28  C   UNK A   0      -1.105  10.428  18.419  0.00  0.00    +0.000 A 
ATOM     29 CL   UNK A   0      -2.024   9.927  17.034  0.00  0.00    +0.000 Cl
ENDBRANCH  21  22
ENDBRANCH  20  21
ENDBRANCH   3  20
TORSDOF 7
ENDMDL
MODEL 6
REMARK VINA RESULT:      -7.2      2.135      3.838
REMARK  Name = 
REMARK  8 active torsions:
REMARK  status: ('A' for Active; 'I' for Inactive)
REMARK    1  A    between atoms: CB_1  and  CA_2
REMARK    2  A    between atoms: CA_2  and  C_3
REMARK    3  A    between atoms: CA_2  and  N_5
REMARK    4  A    between atoms: C_3  and  O_4
REMARK    5  A    between atoms: N_5  and  C_6
REMARK    6  A    between atoms: C_8  and  S_9
REMARK    7  A    between atoms: S_9  and  C_10
REMARK    8  A    between atoms: C_10  and  C_11
REMARK                            x       y       z     vdW  Elec       q    Type
REMARK                         _______ _______ _______ _____ _____    ______ ____
ROOT
ATOM      1  C   UNK A   0       3.185   5.895  19.448  0.00  0.00    +0.000 A 
ATOM      2  N   UNK A   0       2.503   7.014  19.111  0.00  0.00    +0.000 NA
ATOM      3  C   UNK A   0       2.941   7.789  18.100  0.00  0.00    +0.000 A 
ATOM      4  N   UNK A   0       4.028   7.578  17.362  0.00  0.00    +0.000 NA
ATOM      5  C   UNK A   0       4.704   6.459  17.679  0.00  0.00    +0.000 A 
ATOM      6  N   UNK A   0       5.831   6.097  16.975  0.00  0.00    +0.000 NA
ATOM      7  C   UNK A   0       6.300   4.972  17.446  0.00  0.00    +0.000 A 
ATOM      8  N   UNK A   0       7.386   4.371  16.933  0.00  0.00    +0.000 N 
ATOM      9  S   UNK A   0       5.430   4.287  18.755  0.00  0.00    +0.000 S 
ATOM     10  C   UNK A   0       4.321   5.598  18.697  0.00  0.00    +0.000 A 
ATOM     11  H   UNK A   0       7.687   4.708  16.025  0.00  0.00    +0.000 HD
ATOM     12  H   UNK A   0       7.492   3.372  17.059  0.00  0.00    +0.000 HD
ENDROOT
BRANCH   1  13
ATOM     13  N   ALA A   1       2.773   5.096  20.518  0.00  0.00    +0.000 N 
ATOM     14  H   ALA A   1       3.475   5.088  21.257  0.00  0.00    +0.000 HD
BRANCH  13  16
ATOM     15  CB  ALA A   1       0.781   3.809  20.004  0.00  0.00    +0.000 C 
ATOM     16  CA  ALA A   1       2.300   3.744  20.193  0.00  0.00    +0.000 C 
BRANCH  16  17
ATOM     17  C   ALA A   1       2.673   2.785  21.344  0.00  0.00    +0.000 C 
BRANCH  17  18
ATOM     18  O   ALA A   1       1.699   2.827  22.393  0.00  0.00    +0.000 OA
ATOM     19  H   ALA A   1       1.353   1.926  22.512  0.00  0.00    +0.000 HD
ENDBRANCH  17  18
ENDBRANCH  16  17
ENDBRANCH  13  16
ENDBRANCH   1  13
BRANCH   3  20
ATOM     20  S   UNK A   0       1.956   9.226  17.719  0.00  0.00    +0.000 S 
BRANCH  20  21
ATOM     21  C   UNK A   0       1.056   9.385  19.296  0.00  0.00    +0.000 C 
BRANCH  21  22
ATOM     22  C   UNK A   0      -0.220  10.184  19.150  0.00  0.00    +0.000 A 
ATOM     23  C   UNK A   0      -0.960  10.047  17.959  0.00  0.00    +0.000 A 
ATOM     24  C   UNK A   0      -2.150  10.747  17.766  0.00  0.00    +0.000 A 
ATOM     25  C   UNK A   0      -2.618  11.608  18.757  0.00  0.00    +0.000 A 
ATOM     26  C   UNK A   0      -1.897  11.765  19.943  0.00  0.00    +0.000 A 
ATOM     27 CL   UNK A   0      -2.551  12.854  21.119  0.00  0.00    +0.000 Cl
ATOM     28  C   UNK A   0      -0.700  11.058  20.149  0.00  0.00    +0.000 A 
ATOM     29 CL   UNK A   0       0.180  11.246  21.634  0.00  0.00    +0.000 Cl
ENDBRANCH  21  22
ENDBRANCH  20  21
ENDBRANCH   3  20
TORSDOF 7
ENDMDL
MODEL 7
REMARK VINA RESULT:      -7.2      2.122      3.946
REMARK  Name = 
REMARK  8 active torsions:
REMARK  status: ('A' for Active; 'I' for Inactive)
REMARK    1  A    between atoms: CB_1  and  CA_2
REMARK    2  A    between atoms: CA_2  and  C_3
REMARK    3  A    between atoms: CA_2  and  N_5
REMARK    4  A    between atoms: C_3  and  O_4
REMARK    5  A    between atoms: N_5  and  C_6
REMARK    6  A    between atoms: C_8  and  S_9
REMARK    7  A    between atoms: S_9  and  C_10
REMARK    8  A    between atoms: C_10  and  C_11
REMARK                            x       y       z     vdW  Elec       q    Type
REMARK                         _______ _______ _______ _____ _____    ______ ____
ROOT
ATOM      1  C   UNK A   0       2.836   5.194  19.378  0.00  0.00    +0.000 A 
ATOM      2  N   UNK A   0       2.141   6.212  19.937  0.00  0.00    +0.000 NA
ATOM      3  C   UNK A   0       2.236   7.453  19.421  0.00  0.00    +0.000 A 
ATOM      4  N   UNK A   0       2.980   7.816  18.380  0.00  0.00    +0.000 NA
ATOM      5  C   UNK A   0       3.661   6.808  17.807  0.00  0.00    +0.000 A 
ATOM      6  N   UNK A   0       4.445   7.032  16.697  0.00  0.00    +0.000 NA
ATOM      7  C   UNK A   0       4.988   5.909  16.309  0.00  0.00    +0.000 A 
ATOM      8  N   UNK A   0       5.788   5.826  15.233  0.00  0.00    +0.000 N 
ATOM      9  S   UNK A   0       4.600   4.526  17.245  0.00  0.00    +0.000 S 
ATOM     10  C   UNK A   0       3.616   5.499  18.263  0.00  0.00    +0.000 A 
ATOM     11  H   UNK A   0       5.768   6.625  14.608  0.00  0.00    +0.000 HD
ATOM     12  H   UNK A   0       5.877   4.935  14.762  0.00  0.00    +0.000 HD
ENDROOT
BRANCH   1  13
ATOM     13  N   ALA A   1       2.785   3.906  19.918  0.00  0.00    +0.000 N 
ATOM     14  H   ALA A   1       3.343   3.257  19.364  0.00  0.00    +0.000 HD
BRANCH  13  16
ATOM     15  CB  ALA A   1       1.553   2.577  21.532  0.00  0.00    +0.000 C 
ATOM     16  CA  ALA A   1       1.454   3.367  20.223  0.00  0.00    +0.000 C 
BRANCH  16  17
ATOM     17  C   ALA A   1       0.997   2.457  19.063  0.00  0.00    +0.000 C 
BRANCH  17  18
ATOM     18  O   ALA A   1       2.024   1.530  18.691  0.00  0.00    +0.000 OA
ATOM     19  H   ALA A   1       2.832   2.040  18.514  0.00  0.00    +0.000 HD
ENDBRANCH  17  18
ENDBRANCH  16  17
ENDBRANCH  13  16
ENDBRANCH   1  13
BRANCH   3  20
ATOM     20  S   UNK A   0       1.261   8.717  20.216  0.00  0.00    +0.000 S 
BRANCH  20  21
ATOM     21  C   UNK A   0       1.115   9.885  18.824  0.00  0.00    +0.000 C 
BRANCH  21  22
ATOM     22  C   UNK A   0      -0.294  10.412  18.662  0.00  0.00    +0.000 A 
ATOM     23  C   UNK A   0      -1.093   9.874  17.635  0.00  0.00    +0.000 A 
ATOM     24  C   UNK A   0      -2.403  10.307  17.439  0.00  0.00    +0.000 A 
ATOM     25  C   UNK A   0      -2.937  11.298  18.262  0.00  0.00    +0.000 A 
ATOM     26  C   UNK A   0      -2.161  11.852  19.282  0.00  0.00    +0.000 A 
ATOM     27 CL   UNK A   0      -2.903  13.076  20.255  0.00  0.00    +0.000 Cl
ATOM     28  C   UNK A   0      -0.840  11.415  19.491  0.00  0.00    +0.000 A 
ATOM     29 CL   UNK A   0       0.111  12.096  20.773  0.00  0.00    +0.000 Cl
ENDBRANCH  21  22
ENDBRANCH  20  21
ENDBRANCH   3  20
TORSDOF 7
ENDMDL
MODEL 8
REMARK VINA RESULT:      -7.2      2.429      3.891
REMARK  Name = 
REMARK  8 active torsions:
REMARK  status: ('A' for Active; 'I' for Inactive)
REMARK    1  A    between atoms: CB_1  and  CA_2
REMARK    2  A    between atoms: CA_2  and  C_3
REMARK    3  A    between atoms: CA_2  and  N_5
REMARK    4  A    between atoms: C_3  and  O_4
REMARK    5  A    between atoms: N_5  and  C_6
REMARK    6  A    between atoms: C_8  and  S_9
REMARK    7  A    between atoms: S_9  and  C_10
REMARK    8  A    between atoms: C_10  and  C_11
REMARK                            x       y       z     vdW  Elec       q    Type
REMARK                         _______ _______ _______ _____ _____    ______ ____
ROOT
ATOM      1  C   UNK A   0       2.930   4.797  17.751  0.00  0.00    +0.000 A 
ATOM      2  N   UNK A   0       2.282   5.788  18.405  0.00  0.00    +0.000 NA
ATOM      3  C   UNK A   0       2.793   7.035  18.411  0.00  0.00    +0.000 A 
ATOM      4  N   UNK A   0       3.923   7.423  17.826  0.00  0.00    +0.000 NA
ATOM      5  C   UNK A   0       4.566   6.449  17.159  0.00  0.00    +0.000 A 
ATOM      6  N   UNK A   0       5.732   6.716  16.476  0.00  0.00    +0.000 NA
ATOM      7  C   UNK A   0       6.158   5.628  15.893  0.00  0.00    +0.000 A 
ATOM      8  N   UNK A   0       7.269   5.599  15.138  0.00  0.00    +0.000 N 
ATOM      9  S   UNK A   0       5.199   4.226  16.127  0.00  0.00    +0.000 S 
ATOM     10  C   UNK A   0       4.109   5.140  17.091  0.00  0.00    +0.000 A 
ATOM     11  H   UNK A   0       7.632   6.504  14.856  0.00  0.00    +0.000 HD
ATOM     12  H   UNK A   0       7.356   4.881  14.431  0.00  0.00    +0.000 HD
ENDROOT
BRANCH   1  13
ATOM     13  N   ALA A   1       2.441   3.487  17.763  0.00  0.00    +0.000 N 
ATOM     14  H   ALA A   1       1.460   3.463  17.490  0.00  0.00    +0.000 HD
BRANCH  13  16
ATOM     15  CB  ALA A   1       3.487   1.450  18.564  0.00  0.00    +0.000 C 
ATOM     16  CA  ALA A   1       2.696   2.696  18.974  0.00  0.00    +0.000 C 
BRANCH  16  17
ATOM     17  C   ALA A   1       1.349   2.307  19.619  0.00  0.00    +0.000 C 
BRANCH  17  18
ATOM     18  O   ALA A   1       0.634   3.462  20.073  0.00  0.00    +0.000 OA
ATOM     19  H   ALA A   1       0.871   4.204  19.490  0.00  0.00    +0.000 HD
ENDBRANCH  17  18
ENDBRANCH  16  17
ENDBRANCH  13  16
ENDBRANCH   1  13
BRANCH   3  20
ATOM     20  S   UNK A   0       1.850   8.274  19.280  0.00  0.00    +0.000 S 
BRANCH  20  21
ATOM     21  C   UNK A   0       1.486   9.390  17.887  0.00  0.00    +0.000 C 
BRANCH  21  22
ATOM     22  C   UNK A   0       0.221  10.190  18.108  0.00  0.00    +0.000 A 
ATOM     23  C   UNK A   0      -0.993   9.667  17.620  0.00  0.00    +0.000 A 
ATOM     24  C   UNK A   0      -2.195  10.348  17.800  0.00  0.00    +0.000 A 
ATOM     25  C   UNK A   0      -2.205  11.575  18.462  0.00  0.00    +0.000 A 
ATOM     26  C   UNK A   0      -1.013  12.118  18.947  0.00  0.00    +0.000 A 
ATOM     27 CL   UNK A   0      -1.118  13.644  19.755  0.00  0.00    +0.000 Cl
ATOM     28  C   UNK A   0       0.203  11.433  18.776  0.00  0.00    +0.000 A 
ATOM     29 CL   UNK A   0       1.677  12.106  19.398  0.00  0.00    +0.000 Cl
ENDBRANCH  21  22
ENDBRANCH  20  21
ENDBRANCH   3  20
TORSDOF 7
ENDMDL
MODEL 9
REMARK VINA RESULT:      -7.2      1.337      1.450
REMARK  Name = 
REMARK  8 active torsions:
REMARK  status: ('A' for Active; 'I' for Inactive)
REMARK    1  A    between atoms: CB_1  and  CA_2
REMARK    2  A    between atoms: CA_2  and  C_3
REMARK    3  A    between atoms: CA_2  and  N_5
REMARK    4  A    between atoms: C_3  and  O_4
REMARK    5  A    between atoms: N_5  and  C_6
REMARK    6  A    between atoms: C_8  and  S_9
REMARK    7  A    between atoms: S_9  and  C_10
REMARK    8  A    between atoms: C_10  and  C_11
REMARK                            x       y       z     vdW  Elec       q    Type
REMARK                         _______ _______ _______ _____ _____    ______ ____
ROOT
ATOM      1  C   UNK A   0       4.076   6.290  17.624  0.00  0.00    +0.000 A 
ATOM      2  N   UNK A   0       3.553   7.529  17.470  0.00  0.00    +0.000 NA
ATOM      3  C   UNK A   0       2.575   7.952  18.295  0.00  0.00    +0.000 A 
ATOM      4  N   UNK A   0       2.029   7.255  19.287  0.00  0.00    +0.000 NA
ATOM      5  C   UNK A   0       2.554   6.028  19.459  0.00  0.00    +0.000 A 
ATOM      6  N   UNK A   0       2.107   5.208  20.471  0.00  0.00    +0.000 NA
ATOM      7  C   UNK A   0       2.774   4.085  20.453  0.00  0.00    +0.000 A 
ATOM      8  N   UNK A   0       2.562   3.104  21.345  0.00  0.00    +0.000 N 
ATOM      9  S   UNK A   0       3.965   3.940  19.228  0.00  0.00    +0.000 S 
ATOM     10  C   UNK A   0       3.568   5.514  18.664  0.00  0.00    +0.000 A 
ATOM     11  H   UNK A   0       2.026   3.365  22.166  0.00  0.00    +0.000 HD
ATOM     12  H   UNK A   0       3.310   2.448  21.532  0.00  0.00    +0.000 HD
ENDROOT
BRANCH   1  13
ATOM     13  N   ALA A   1       5.063   5.814  16.756  0.00  0.00    +0.000 N 
ATOM     14  H   ALA A   1       4.732   5.000  16.240  0.00  0.00    +0.000 HD
BRANCH  13  16
ATOM     15  CB  ALA A   1       7.093   6.960  17.430  0.00  0.00    +0.000 C 
ATOM     16  CA  ALA A   1       6.399   5.598  17.326  0.00  0.00    +0.000 C 
BRANCH  16  17
ATOM     17  C   ALA A   1       7.194   4.642  16.411  0.00  0.00    +0.000 C 
BRANCH  17  18
ATOM     18  O   ALA A   1       7.543   5.275  15.174  0.00  0.00    +0.000 OA
ATOM     19  H   ALA A   1       6.920   4.963  14.496  0.00  0.00    +0.000 HD
ENDBRANCH  17  18
ENDBRANCH  16  17
ENDBRANCH  13  16
ENDBRANCH   1  13
BRANCH   3  20
ATOM     20  S   UNK A   0       1.973   9.608  18.025  0.00  0.00    +0.000 S 
BRANCH  20  21
ATOM     21  C   UNK A   0       0.786   9.712  19.404  0.00  0.00    +0.000 C 
BRANCH  21  22
ATOM     22  C   UNK A   0      -0.520  10.353  18.989  0.00  0.00    +0.000 A 
ATOM     23  C   UNK A   0      -1.070  10.001  17.741  0.00  0.00    +0.000 A 
ATOM     24  C   UNK A   0      -2.275  10.547  17.304  0.00  0.00    +0.000 A 
ATOM     25  C   UNK A   0      -2.950  11.468  18.104  0.00  0.00    +0.000 A 
ATOM     26  C   UNK A   0      -2.421  11.839  19.343  0.00  0.00    +0.000 A 
ATOM     27 CL   UNK A   0      -3.324  12.987  20.270  0.00  0.00    +0.000 Cl
ATOM     28  C   UNK A   0      -1.209  11.286  19.794  0.00  0.00    +0.000 A 
ATOM     29 CL   UNK A   0      -0.567  11.740  21.342  0.00  0.00    +0.000 Cl
ENDBRANCH  21  22
ENDBRANCH  20  21
ENDBRANCH   3  20
TORSDOF 7
ENDMDL
