MODEL 1
REMARK VINA RESULT:      -7.5      0.000      0.000
REMARK  Name = 
REMARK  8 active torsions:
REMARK  status: ('A' for Active; 'I' for Inactive)
REMARK    1  A    between atoms: C_1  and  C_2
REMARK    2  A    between atoms: C_2  and  C_3
REMARK    3  A    between atoms: C_2  and  N_4
REMARK    4  A    between atoms: C_7  and  N_8
REMARK    5  A    between atoms: C_12  and  C_13
REMARK    6  A    between atoms: N_15  and  C_16
REMARK    7  A    between atoms: C_16  and  C_17
REMARK    8  A    between atoms: C_17  and  O_18
REMARK                            x       y       z     vdW  Elec       q    Type
REMARK                         _______ _______ _______ _____ _____    ______ ____
ROOT
ATOM      1  N   UNL     1       0.050  11.740  22.067  0.00  0.00    +0.000 NA
ATOM      2  C   UNL     1      -1.056  11.009  22.705  0.00  0.00    +0.000 C 
ATOM      3  C   UNL     1      -0.594   9.671  23.288  0.00  0.00    +0.000 C 
ATOM      4  C   UNL     1      -0.011   8.770  22.206  0.00  0.00    +0.000 C 
ATOM      5  C   UNL     1       1.118   9.477  21.462  0.00  0.00    +0.000 C 
ATOM      6  C   UNL     1       0.743  10.913  21.079  0.00  0.00    +0.000 C 
ENDROOT
BRANCH   1  10
ATOM      7  N   UNL     1       1.212  14.164  19.198  0.00  0.00    +0.000 NA
ATOM      8  C   UNL     1       0.094  13.220  19.008  0.00  0.00    +0.000 C 
ATOM      9  C   UNL     1      -0.956  13.183  20.118  0.00  0.00    +0.000 C 
ATOM     10  C   UNL     1      -0.396  13.074  21.549  0.00  0.00    +0.000 C 
ATOM     11  C   UNL     1       0.631  14.209  21.695  0.00  0.00    +0.000 C 
ATOM     12  C   UNL     1       1.687  14.265  20.589  0.00  0.00    +0.000 C 
BRANCH   7  14
ATOM     13  C   UNL     1       3.673  14.424  18.744  0.00  0.00    +0.000 C 
ATOM     14  C   UNL     1       2.337  13.832  18.267  0.00  0.00    +0.000 C 
ATOM     15  C   UNL     1       2.552  12.321  18.059  0.00  0.00    +0.000 C 
ENDBRANCH   7  14
ENDBRANCH   1  10
BRANCH   5  16
ATOM     16  C   UNL     1       1.446   8.732  20.168  0.00  0.00    +0.000 C 
ATOM     17  O   UNL     1       1.130   9.141  19.046  0.00  0.00    +0.000 OA
ATOM     18  N   UNL     1       2.074   7.521  20.325  0.00  0.00    +0.000 N 
ATOM     19  H   UNL     1       2.217   7.156  21.258  0.00  0.00    +0.000 HD
BRANCH  18  20
ATOM     20  C   UNL     1       2.292   6.647  19.179  0.00  0.00    +0.000 C 
BRANCH  20  21
ATOM     21  C   UNL     1       3.029   5.328  19.558  0.00  0.00    +0.000 C 
ATOM     22  C   UNL     1       2.358   4.637  20.758  0.00  0.00    +0.000 C 
ATOM     23  C   UNL     1       0.980   4.069  20.427  0.00  0.00    +0.000 C 
ATOM     24  C   UNL     1       1.019   3.155  19.203  0.00  0.00    +0.000 C 
ATOM     25  C   UNL     1       1.708   3.801  18.004  0.00  0.00    +0.000 C 
ATOM     26  C   UNL     1       3.085   4.347  18.374  0.00  0.00    +0.000 C 
BRANCH  21  27
ATOM     27  O   UNL     1       4.383   5.607  19.943  0.00  0.00    +0.000 OA
ATOM     28  H   UNL     1       4.832   4.754  20.106  0.00  0.00    +0.000 HD
ENDBRANCH  21  27
ENDBRANCH  20  21
ENDBRANCH  18  20
ENDBRANCH   5  16
TORSDOF 6
ENDMDL
MODEL 2
REMARK VINA RESULT:      -7.5      3.242      8.005
REMARK  Name = 
REMARK  8 active torsions:
REMARK  status: ('A' for Active; 'I' for Inactive)
REMARK    1  A    between atoms: C_1  and  C_2
REMARK    2  A    between atoms: C_2  and  C_3
REMARK    3  A    between atoms: C_2  and  N_4
REMARK    4  A    between atoms: C_7  and  N_8
REMARK    5  A    between atoms: C_12  and  C_13
REMARK    6  A    between atoms: N_15  and  C_16
REMARK    7  A    between atoms: C_16  and  C_17
REMARK    8  A    between atoms: C_17  and  O_18
REMARK                            x       y       z     vdW  Elec       q    Type
REMARK                         _______ _______ _______ _____ _____    ______ ____
ROOT
ATOM      1  N   UNL     1       3.796   4.401  17.334  0.00  0.00    +0.000 NA
ATOM      2  C   UNL     1       4.504   3.583  18.332  0.00  0.00    +0.000 C 
ATOM      3  C   UNL     1       3.571   3.112  19.450  0.00  0.00    +0.000 C 
ATOM      4  C   UNL     1       2.949   4.295  20.183  0.00  0.00    +0.000 C 
ATOM      5  C   UNL     1       2.230   5.220  19.205  0.00  0.00    +0.000 C 
ATOM      6  C   UNL     1       3.075   5.509  17.960  0.00  0.00    +0.000 C 
ENDROOT
BRANCH   1  10
ATOM      7  N   UNL     1       7.340   6.081  17.061  0.00  0.00    +0.000 NA
ATOM      8  C   UNL     1       7.169   4.617  16.981  0.00  0.00    +0.000 C 
ATOM      9  C   UNL     1       6.067   4.115  16.048  0.00  0.00    +0.000 C 
ATOM     10  C   UNL     1       4.701   4.810  16.212  0.00  0.00    +0.000 C 
ATOM     11  C   UNL     1       4.973   6.319  16.106  0.00  0.00    +0.000 C 
ATOM     12  C   UNL     1       6.078   6.839  17.029  0.00  0.00    +0.000 C 
BRANCH   7  14
ATOM     13  C   UNL     1       8.232   7.964  18.470  0.00  0.00    +0.000 C 
ATOM     14  C   UNL     1       8.156   6.444  18.263  0.00  0.00    +0.000 C 
ATOM     15  C   UNL     1       7.643   5.826  19.578  0.00  0.00    +0.000 C 
ENDBRANCH   7  14
ENDBRANCH   1  10
BRANCH   5  16
ATOM     16  C   UNL     1       1.930   6.564  19.872  0.00  0.00    +0.000 C 
ATOM     17  O   UNL     1       1.569   6.677  21.048  0.00  0.00    +0.000 OA
ATOM     18  N   UNL     1       2.029   7.663  19.056  0.00  0.00    +0.000 N 
ATOM     19  H   UNL     1       2.213   7.532  18.069  0.00  0.00    +0.000 HD
BRANCH  18  20
ATOM     20  C   UNL     1       1.611   8.977  19.532  0.00  0.00    +0.000 C 
BRANCH  20  21
ATOM     21  C   UNL     1       1.248   9.951  18.372  0.00  0.00    +0.000 C 
ATOM     22  C   UNL     1      -0.233   9.819  17.974  0.00  0.00    +0.000 C 
ATOM     23  C   UNL     1      -1.188  10.337  19.046  0.00  0.00    +0.000 C 
ATOM     24  C   UNL     1      -0.847  11.764  19.473  0.00  0.00    +0.000 C 
ATOM     25  C   UNL     1       0.623  11.935  19.844  0.00  0.00    +0.000 C 
ATOM     26  C   UNL     1       1.544  11.414  18.743  0.00  0.00    +0.000 C 
BRANCH  21  27
ATOM     27  O   UNL     1       2.021   9.644  17.203  0.00  0.00    +0.000 OA
ATOM     28  H   UNL     1       1.898  10.370  16.560  0.00  0.00    +0.000 HD
ENDBRANCH  21  27
ENDBRANCH  20  21
ENDBRANCH  18  20
ENDBRANCH   5  16
TORSDOF 6
ENDMDL
MODEL 3
REMARK VINA RESULT:      -7.2      3.637      8.410
REMARK  Name = 
REMARK  8 active torsions:
REMARK  status: ('A' for Active; 'I' for Inactive)
REMARK    1  A    between atoms: C_1  and  C_2
REMARK    2  A    between atoms: C_2  and  C_3
REMARK    3  A    between atoms: C_2  and  N_4
REMARK    4  A    between atoms: C_7  and  N_8
REMARK    5  A    between atoms: C_12  and  C_13
REMARK    6  A    between atoms: N_15  and  C_16
REMARK    7  A    between atoms: C_16  and  C_17
REMARK    8  A    between atoms: C_17  and  O_18
REMARK                            x       y       z     vdW  Elec       q    Type
REMARK                         _______ _______ _______ _____ _____    ______ ____
ROOT
ATOM      1  N   UNL     1       4.988   5.051  18.484  0.00  0.00    +0.000 NA
ATOM      2  C   UNL     1       4.988   3.968  19.480  0.00  0.00    +0.000 C 
ATOM      3  C   UNL     1       3.584   3.406  19.713  0.00  0.00    +0.000 C 
ATOM      4  C   UNL     1       2.632   4.489  20.210  0.00  0.00    +0.000 C 
ATOM      5  C   UNL     1       2.610   5.673  19.249  0.00  0.00    +0.000 C 
ATOM      6  C   UNL     1       4.020   6.094  18.823  0.00  0.00    +0.000 C 
ENDROOT
BRANCH   1  10
ATOM      7  N   UNL     1       7.247   5.493  15.297  0.00  0.00    +0.000 NA
ATOM      8  C   UNL     1       6.464   6.614  15.853  0.00  0.00    +0.000 C 
ATOM      9  C   UNL     1       6.565   6.825  17.364  0.00  0.00    +0.000 C 
ATOM     10  C   UNL     1       6.373   5.557  18.218  0.00  0.00    +0.000 C 
ATOM     11  C   UNL     1       7.356   4.515  17.664  0.00  0.00    +0.000 C 
ATOM     12  C   UNL     1       7.275   4.294  16.151  0.00  0.00    +0.000 C 
BRANCH   7  14
ATOM     13  C   UNL     1       7.916   5.168  12.894  0.00  0.00    +0.000 C 
ATOM     14  C   UNL     1       6.769   5.161  13.917  0.00  0.00    +0.000 C 
ATOM     15  C   UNL     1       6.066   3.795  13.809  0.00  0.00    +0.000 C 
ENDBRANCH   7  14
ENDBRANCH   1  10
BRANCH   5  16
ATOM     16  C   UNL     1       1.957   6.884  19.917  0.00  0.00    +0.000 C 
ATOM     17  O   UNL     1       1.382   6.834  21.010  0.00  0.00    +0.000 OA
ATOM     18  N   UNL     1       1.990   8.049  19.192  0.00  0.00    +0.000 N 
ATOM     19  H   UNL     1       2.364   8.035  18.251  0.00  0.00    +0.000 HD
BRANCH  18  20
ATOM     20  C   UNL     1       1.262   9.227  19.649  0.00  0.00    +0.000 C 
BRANCH  20  21
ATOM     21  C   UNL     1       1.000  10.255  18.509  0.00  0.00    +0.000 C 
ATOM     22  C   UNL     1      -0.464  10.209  18.040  0.00  0.00    +0.000 C 
ATOM     23  C   UNL     1      -1.443  10.739  19.085  0.00  0.00    +0.000 C 
ATOM     24  C   UNL     1      -1.054  12.132  19.577  0.00  0.00    +0.000 C 
ATOM     25  C   UNL     1       0.404  12.218  20.020  0.00  0.00    +0.000 C 
ATOM     26  C   UNL     1       1.349  11.688  18.945  0.00  0.00    +0.000 C 
BRANCH  21  27
ATOM     27  O   UNL     1       1.813   9.948  17.367  0.00  0.00    +0.000 OA
ATOM     28  H   UNL     1       1.825   8.977  17.256  0.00  0.00    +0.000 HD
ENDBRANCH  21  27
ENDBRANCH  20  21
ENDBRANCH  18  20
ENDBRANCH   5  16
TORSDOF 6
ENDMDL
MODEL 4
REMARK VINA RESULT:      -7.2      1.828      2.733
REMARK  Name = 
REMARK  8 active torsions:
REMARK  status: ('A' for Active; 'I' for Inactive)
REMARK    1  A    between atoms: C_1  and  C_2
REMARK    2  A    between atoms: C_2  and  C_3
REMARK    3  A    between atoms: C_2  and  N_4
REMARK    4  A    between atoms: C_7  and  N_8
REMARK    5  A    between atoms: C_12  and  C_13
REMARK    6  A    between atoms: N_15  and  C_16
REMARK    7  A    between atoms: C_16  and  C_17
REMARK    8  A    between atoms: C_17  and  O_18
REMARK                            x       y       z     vdW  Elec       q    Type
REMARK                         _______ _______ _______ _____ _____    ______ ____
ROOT
ATOM      1  N   UNL     1       0.015  11.716  21.664  0.00  0.00    +0.000 NA
ATOM      2  C   UNL     1      -0.990  11.001  22.466  0.00  0.00    +0.000 C 
ATOM      3  C   UNL     1      -0.384   9.812  23.215  0.00  0.00    +0.000 C 
ATOM      4  C   UNL     1       0.231   8.807  22.247  0.00  0.00    +0.000 C 
ATOM      5  C   UNL     1       1.258   9.484  21.344  0.00  0.00    +0.000 C 
ATOM      6  C   UNL     1       0.738  10.808  20.774  0.00  0.00    +0.000 C 
ENDROOT
BRANCH   1  10
ATOM      7  N   UNL     1      -2.269  12.308  18.520  0.00  0.00    +0.000 NA
ATOM      8  C   UNL     1      -2.828  12.259  19.885  0.00  0.00    +0.000 C 
ATOM      9  C   UNL     1      -2.102  13.089  20.943  0.00  0.00    +0.000 C 
ATOM     10  C   UNL     1      -0.572  12.913  20.980  0.00  0.00    +0.000 C 
ATOM     11  C   UNL     1      -0.078  13.155  19.546  0.00  0.00    +0.000 C 
ATOM     12  C   UNL     1      -0.797  12.336  18.471  0.00  0.00    +0.000 C 
BRANCH   7  14
ATOM     13  C   UNL     1      -2.644  11.439  16.189  0.00  0.00    +0.000 C 
ATOM     14  C   UNL     1      -2.814  11.183  17.695  0.00  0.00    +0.000 C 
ATOM     15  C   UNL     1      -2.178   9.815  18.003  0.00  0.00    +0.000 C 
ENDBRANCH   7  14
ENDBRANCH   1  10
BRANCH   5  16
ATOM     16  C   UNL     1       1.596   8.580  20.158  0.00  0.00    +0.000 C 
ATOM     17  O   UNL     1       1.381   8.888  18.981  0.00  0.00    +0.000 OA
ATOM     18  N   UNL     1       2.110   7.348  20.481  0.00  0.00    +0.000 N 
ATOM     19  H   UNL     1       2.168   7.077  21.454  0.00  0.00    +0.000 HD
BRANCH  18  20
ATOM     20  C   UNL     1       2.320   6.340  19.448  0.00  0.00    +0.000 C 
BRANCH  20  21
ATOM     21  C   UNL     1       2.496   4.907  20.032  0.00  0.00    +0.000 C 
ATOM     22  C   UNL     1       1.315   3.997  19.649  0.00  0.00    +0.000 C 
ATOM     23  C   UNL     1       1.280   3.660  18.161  0.00  0.00    +0.000 C 
ATOM     24  C   UNL     1       2.610   3.088  17.673  0.00  0.00    +0.000 C 
ATOM     25  C   UNL     1       3.805   3.952  18.066  0.00  0.00    +0.000 C 
ATOM     26  C   UNL     1       3.809   4.258  19.561  0.00  0.00    +0.000 C 
BRANCH  21  27
ATOM     27  O   UNL     1       2.536   4.954  21.466  0.00  0.00    +0.000 OA
ATOM     28  H   UNL     1       3.322   5.472  21.729  0.00  0.00    +0.000 HD
ENDBRANCH  21  27
ENDBRANCH  20  21
ENDBRANCH  18  20
ENDBRANCH   5  16
TORSDOF 6
ENDMDL
MODEL 5
REMARK VINA RESULT:      -7.2      2.031      3.038
REMARK  Name = 
REMARK  8 active torsions:
REMARK  status: ('A' for Active; 'I' for Inactive)
REMARK    1  A    between atoms: C_1  and  C_2
REMARK    2  A    between atoms: C_2  and  C_3
REMARK    3  A    between atoms: C_2  and  N_4
REMARK    4  A    between atoms: C_7  and  N_8
REMARK    5  A    between atoms: C_12  and  C_13
REMARK    6  A    between atoms: N_15  and  C_16
REMARK    7  A    between atoms: C_16  and  C_17
REMARK    8  A    between atoms: C_17  and  O_18
REMARK                            x       y       z     vdW  Elec       q    Type
REMARK                         _______ _______ _______ _____ _____    ______ ____
ROOT
ATOM      1  N   UNL     1       0.122  11.556  21.042  0.00  0.00    +0.000 NA
ATOM      2  C   UNL     1      -0.868  10.824  21.845  0.00  0.00    +0.000 C 
ATOM      3  C   UNL     1      -0.242   9.638  22.583  0.00  0.00    +0.000 C 
ATOM      4  C   UNL     1       0.380   8.648  21.605  0.00  0.00    +0.000 C 
ATOM      5  C   UNL     1       1.392   9.343  20.700  0.00  0.00    +0.000 C 
ATOM      6  C   UNL     1       0.851  10.663  20.141  0.00  0.00    +0.000 C 
ENDROOT
BRANCH   1  10
ATOM      7  N   UNL     1      -2.826  12.149  18.510  0.00  0.00    +0.000 NA
ATOM      8  C   UNL     1      -3.008  12.321  19.964  0.00  0.00    +0.000 C 
ATOM      9  C   UNL     1      -1.940  13.140  20.687  0.00  0.00    +0.000 C 
ATOM     10  C   UNL     1      -0.484  12.750  20.368  0.00  0.00    +0.000 C 
ATOM     11  C   UNL     1      -0.361  12.771  18.837  0.00  0.00    +0.000 C 
ATOM     12  C   UNL     1      -1.426  11.959  18.095  0.00  0.00    +0.000 C 
BRANCH   7  14
ATOM     13  C   UNL     1      -4.858  11.557  17.149  0.00  0.00    +0.000 C 
ATOM     14  C   UNL     1      -3.693  11.037  18.006  0.00  0.00    +0.000 C 
ATOM     15  C   UNL     1      -2.940   9.986  17.168  0.00  0.00    +0.000 C 
ENDBRANCH   7  14
ENDBRANCH   1  10
BRANCH   5  16
ATOM     16  C   UNL     1       1.734   8.450  19.506  0.00  0.00    +0.000 C 
ATOM     17  O   UNL     1       1.404   8.707  18.344  0.00  0.00    +0.000 OA
ATOM     18  N   UNL     1       2.394   7.284  19.810  0.00  0.00    +0.000 N 
ATOM     19  H   UNL     1       2.549   7.043  20.780  0.00  0.00    +0.000 HD
BRANCH  18  20
ATOM     20  C   UNL     1       2.630   6.278  18.781  0.00  0.00    +0.000 C 
BRANCH  20  21
ATOM     21  C   UNL     1       3.197   4.948  19.357  0.00  0.00    +0.000 C 
ATOM     22  C   UNL     1       2.553   4.605  20.712  0.00  0.00    +0.000 C 
ATOM     23  C   UNL     1       1.081   4.219  20.592  0.00  0.00    +0.000 C 
ATOM     24  C   UNL     1       0.864   3.105  19.569  0.00  0.00    +0.000 C 
ATOM     25  C   UNL     1       1.520   3.402  18.223  0.00  0.00    +0.000 C 
ATOM     26  C   UNL     1       2.992   3.773  18.385  0.00  0.00    +0.000 C 
BRANCH  21  27
ATOM     27  O   UNL     1       4.609   5.067  19.587  0.00  0.00    +0.000 OA
ATOM     28  H   UNL     1       4.757   5.092  20.553  0.00  0.00    +0.000 HD
ENDBRANCH  21  27
ENDBRANCH  20  21
ENDBRANCH  18  20
ENDBRANCH   5  16
TORSDOF 6
ENDMDL
MODEL 6
REMARK VINA RESULT:      -7.1      1.802      3.578
REMARK  Name = 
REMARK  8 active torsions:
REMARK  status: ('A' for Active; 'I' for Inactive)
REMARK    1  A    between atoms: C_1  and  C_2
REMARK    2  A    between atoms: C_2  and  C_3
REMARK    3  A    between atoms: C_2  and  N_4
REMARK    4  A    between atoms: C_7  and  N_8
REMARK    5  A    between atoms: C_12  and  C_13
REMARK    6  A    between atoms: N_15  and  C_16
REMARK    7  A    between atoms: C_16  and  C_17
REMARK    8  A    between atoms: C_17  and  O_18
REMARK                            x       y       z     vdW  Elec       q    Type
REMARK                         _______ _______ _______ _____ _____    ______ ____
ROOT
ATOM      1  N   UNL     1       0.164  11.744  22.025  0.00  0.00    +0.000 NA
ATOM      2  C   UNL     1      -1.016  11.070  22.588  0.00  0.00    +0.000 C 
ATOM      3  C   UNL     1      -0.663   9.709  23.192  0.00  0.00    +0.000 C 
ATOM      4  C   UNL     1      -0.060   8.780  22.143  0.00  0.00    +0.000 C 
ATOM      5  C   UNL     1       1.149   9.429  21.477  0.00  0.00    +0.000 C 
ATOM      6  C   UNL     1       0.875  10.883  21.079  0.00  0.00    +0.000 C 
ENDROOT
BRANCH   1  10
ATOM      7  N   UNL     1      -2.837  14.249  22.440  0.00  0.00    +0.000 NA
ATOM      8  C   UNL     1      -1.599  14.385  23.233  0.00  0.00    +0.000 C 
ATOM      9  C   UNL     1      -0.285  14.293  22.457  0.00  0.00    +0.000 C 
ATOM     10  C   UNL     1      -0.177  13.101  21.488  0.00  0.00    +0.000 C 
ATOM     11  C   UNL     1      -1.428  13.157  20.598  0.00  0.00    +0.000 C 
ATOM     12  C   UNL     1      -2.753  13.255  21.357  0.00  0.00    +0.000 C 
BRANCH   7  14
ATOM     13  C   UNL     1      -3.824  12.662  24.123  0.00  0.00    +0.000 C 
ATOM     14  C   UNL     1      -4.002  13.971  23.339  0.00  0.00    +0.000 C 
ATOM     15  C   UNL     1      -4.282  15.087  24.364  0.00  0.00    +0.000 C 
ENDBRANCH   7  14
ENDBRANCH   1  10
BRANCH   5  16
ATOM     16  C   UNL     1       1.519   8.671  20.201  0.00  0.00    +0.000 C 
ATOM     17  O   UNL     1       1.401   9.145  19.066  0.00  0.00    +0.000 OA
ATOM     18  N   UNL     1       1.946   7.378  20.384  0.00  0.00    +0.000 N 
ATOM     19  H   UNL     1       1.923   6.977  21.313  0.00  0.00    +0.000 HD
BRANCH  18  20
ATOM     20  C   UNL     1       2.172   6.505  19.238  0.00  0.00    +0.000 C 
BRANCH  20  21
ATOM     21  C   UNL     1       2.961   5.215  19.610  0.00  0.00    +0.000 C 
ATOM     22  C   UNL     1       2.298   4.471  20.782  0.00  0.00    +0.000 C 
ATOM     23  C   UNL     1       0.956   3.845  20.409  0.00  0.00    +0.000 C 
ATOM     24  C   UNL     1       1.065   2.958  19.170  0.00  0.00    +0.000 C 
ATOM     25  C   UNL     1       1.748   3.658  17.998  0.00  0.00    +0.000 C 
ATOM     26  C   UNL     1       3.089   4.261  18.410  0.00  0.00    +0.000 C 
BRANCH  21  27
ATOM     27  O   UNL     1       4.292   5.550  20.030  0.00  0.00    +0.000 OA
ATOM     28  H   UNL     1       4.395   5.268  20.961  0.00  0.00    +0.000 HD
ENDBRANCH  21  27
ENDBRANCH  20  21
ENDBRANCH  18  20
ENDBRANCH   5  16
TORSDOF 6
ENDMDL
MODEL 7
REMARK VINA RESULT:      -7.1      3.202      7.953
REMARK  Name = 
REMARK  8 active torsions:
REMARK  status: ('A' for Active; 'I' for Inactive)
REMARK    1  A    between atoms: C_1  and  C_2
REMARK    2  A    between atoms: C_2  and  C_3
REMARK    3  A    between atoms: C_2  and  N_4
REMARK    4  A    between atoms: C_7  and  N_8
REMARK    5  A    between atoms: C_12  and  C_13
REMARK    6  A    between atoms: N_15  and  C_16
REMARK    7  A    between atoms: C_16  and  C_17
REMARK    8  A    between atoms: C_17  and  O_18
REMARK                            x       y       z     vdW  Elec       q    Type
REMARK                         _______ _______ _______ _____ _____    ______ ____
ROOT
ATOM      1  N   UNL     1       3.856   4.346  17.406  0.00  0.00    +0.000 NA
ATOM      2  C   UNL     1       4.538   3.714  18.545  0.00  0.00    +0.000 C 
ATOM      3  C   UNL     1       3.603   3.535  19.744  0.00  0.00    +0.000 C 
ATOM      4  C   UNL     1       3.057   4.876  20.221  0.00  0.00    +0.000 C 
ATOM      5  C   UNL     1       2.369   5.618  19.080  0.00  0.00    +0.000 C 
ATOM      6  C   UNL     1       3.204   5.597  17.795  0.00  0.00    +0.000 C 
ENDROOT
BRANCH   1  10
ATOM      7  N   UNL     1       7.298   6.096  16.666  0.00  0.00    +0.000 NA
ATOM      8  C   UNL     1       7.216   4.665  17.018  0.00  0.00    +0.000 C 
ATOM      9  C   UNL     1       6.167   3.843  16.270  0.00  0.00    +0.000 C 
ATOM     10  C   UNL     1       4.759   4.466  16.216  0.00  0.00    +0.000 C 
ATOM     11  C   UNL     1       4.942   5.892  15.674  0.00  0.00    +0.000 C 
ATOM     12  C   UNL     1       5.993   6.729  16.407  0.00  0.00    +0.000 C 
BRANCH   7  14
ATOM     13  C   UNL     1       7.688   8.335  17.743  0.00  0.00    +0.000 C 
ATOM     14  C   UNL     1       8.063   6.846  17.711  0.00  0.00    +0.000 C 
ATOM     15  C   UNL     1       7.879   6.295  19.138  0.00  0.00    +0.000 C 
ENDBRANCH   7  14
ENDBRANCH   1  10
BRANCH   5  16
ATOM     16  C   UNL     1       2.153   7.084  19.457  0.00  0.00    +0.000 C 
ATOM     17  O   UNL     1       2.517   8.032  18.754  0.00  0.00    +0.000 OA
ATOM     18  N   UNL     1       1.570   7.299  20.682  0.00  0.00    +0.000 N 
ATOM     19  H   UNL     1       1.387   6.509  21.288  0.00  0.00    +0.000 HD
BRANCH  18  20
ATOM     20  C   UNL     1       1.460   8.649  21.222  0.00  0.00    +0.000 C 
BRANCH  20  21
ATOM     21  C   UNL     1      -0.008   9.169  21.252  0.00  0.00    +0.000 C 
ATOM     22  C   UNL     1      -0.134  10.442  22.106  0.00  0.00    +0.000 C 
ATOM     23  C   UNL     1       0.549  11.654  21.476  0.00  0.00    +0.000 C 
ATOM     24  C   UNL     1       0.080  11.892  20.042  0.00  0.00    +0.000 C 
ATOM     25  C   UNL     1       0.163  10.637  19.176  0.00  0.00    +0.000 C 
ATOM     26  C   UNL     1      -0.539   9.453  19.836  0.00  0.00    +0.000 C 
BRANCH  21  27
ATOM     27  O   UNL     1      -0.872   8.186  21.840  0.00  0.00    +0.000 OA
ATOM     28  H   UNL     1      -1.757   8.588  21.950  0.00  0.00    +0.000 HD
ENDBRANCH  21  27
ENDBRANCH  20  21
ENDBRANCH  18  20
ENDBRANCH   5  16
TORSDOF 6
ENDMDL
MODEL 8
REMARK VINA RESULT:      -7.1      2.036      3.819
REMARK  Name = 
REMARK  8 active torsions:
REMARK  status: ('A' for Active; 'I' for Inactive)
REMARK    1  A    between atoms: C_1  and  C_2
REMARK    2  A    between atoms: C_2  and  C_3
REMARK    3  A    between atoms: C_2  and  N_4
REMARK    4  A    between atoms: C_7  and  N_8
REMARK    5  A    between atoms: C_12  and  C_13
REMARK    6  A    between atoms: N_15  and  C_16
REMARK    7  A    between atoms: C_16  and  C_17
REMARK    8  A    between atoms: C_17  and  O_18
REMARK                            x       y       z     vdW  Elec       q    Type
REMARK                         _______ _______ _______ _____ _____    ______ ____
ROOT
ATOM      1  N   UNL     1       0.025  11.811  22.050  0.00  0.00    +0.000 NA
ATOM      2  C   UNL     1      -1.106  11.098  22.664  0.00  0.00    +0.000 C 
ATOM      3  C   UNL     1      -0.673   9.772  23.292  0.00  0.00    +0.000 C 
ATOM      4  C   UNL     1      -0.057   8.845  22.250  0.00  0.00    +0.000 C 
ATOM      5  C   UNL     1       1.101   9.530  21.532  0.00  0.00    +0.000 C 
ATOM      6  C   UNL     1       0.748  10.959  21.105  0.00  0.00    +0.000 C 
ENDROOT
BRANCH   1  10
ATOM      7  N   UNL     1      -2.747  14.465  22.903  0.00  0.00    +0.000 NA
ATOM      8  C   UNL     1      -1.361  14.609  23.390  0.00  0.00    +0.000 C 
ATOM      9  C   UNL     1      -0.256  14.402  22.354  0.00  0.00    +0.000 C 
ATOM     10  C   UNL     1      -0.395  13.136  21.489  0.00  0.00    +0.000 C 
ATOM     11  C   UNL     1      -1.811  13.176  20.895  0.00  0.00    +0.000 C 
ATOM     12  C   UNL     1      -2.931  13.388  21.916  0.00  0.00    +0.000 C 
BRANCH   7  14
ATOM     13  C   UNL     1      -5.006  15.064  23.832  0.00  0.00    +0.000 C 
ATOM     14  C   UNL     1      -3.688  14.307  24.057  0.00  0.00    +0.000 C 
ATOM     15  C   UNL     1      -4.048  12.843  24.375  0.00  0.00    +0.000 C 
ENDBRANCH   7  14
ENDBRANCH   1  10
BRANCH   5  16
ATOM     16  C   UNL     1       1.470   8.756  20.265  0.00  0.00    +0.000 C 
ATOM     17  O   UNL     1       1.194   9.141  19.125  0.00  0.00    +0.000 OA
ATOM     18  N   UNL     1       2.088   7.547  20.471  0.00  0.00    +0.000 N 
ATOM     19  H   UNL     1       2.198   7.202  21.415  0.00  0.00    +0.000 HD
BRANCH  18  20
ATOM     20  C   UNL     1       2.342   6.647  19.352  0.00  0.00    +0.000 C 
BRANCH  20  21
ATOM     21  C   UNL     1       2.588   5.177  19.804  0.00  0.00    +0.000 C 
ATOM     22  C   UNL     1       1.510   4.232  19.245  0.00  0.00    +0.000 C 
ATOM     23  C   UNL     1       1.603   4.048  17.733  0.00  0.00    +0.000 C 
ATOM     24  C   UNL     1       3.005   3.623  17.295  0.00  0.00    +0.000 C 
ATOM     25  C   UNL     1       4.099   4.524  17.860  0.00  0.00    +0.000 C 
ATOM     26  C   UNL     1       3.977   4.674  19.374  0.00  0.00    +0.000 C 
BRANCH  21  27
ATOM     27  O   UNL     1       2.525   5.080  21.235  0.00  0.00    +0.000 OA
ATOM     28  H   UNL     1       1.929   5.783  21.560  0.00  0.00    +0.000 HD
ENDBRANCH  21  27
ENDBRANCH  20  21
ENDBRANCH  18  20
ENDBRANCH   5  16
TORSDOF 6
ENDMDL
MODEL 9
REMARK VINA RESULT:      -6.9      2.650      8.308
REMARK  Name = 
REMARK  8 active torsions:
REMARK  status: ('A' for Active; 'I' for Inactive)
REMARK    1  A    between atoms: C_1  and  C_2
REMARK    2  A    between atoms: C_2  and  C_3
REMARK    3  A    between atoms: C_2  and  N_4
REMARK    4  A    between atoms: C_7  and  N_8
REMARK    5  A    between atoms: C_12  and  C_13
REMARK    6  A    between atoms: N_15  and  C_16
REMARK    7  A    between atoms: C_16  and  C_17
REMARK    8  A    between atoms: C_17  and  O_18
REMARK                            x       y       z     vdW  Elec       q    Type
REMARK                         _______ _______ _______ _____ _____    ______ ____
ROOT
ATOM      1  N   UNL     1       2.578   7.083  19.174  0.00  0.00    +0.000 NA
ATOM      2  C   UNL     1       2.139   7.589  17.865  0.00  0.00    +0.000 C 
ATOM      3  C   UNL     1       2.103   9.118  17.826  0.00  0.00    +0.000 C 
ATOM      4  C   UNL     1       1.147   9.673  18.876  0.00  0.00    +0.000 C 
ATOM      5  C   UNL     1       1.508   9.155  20.265  0.00  0.00    +0.000 C 
ATOM      6  C   UNL     1       1.780   7.647  20.264  0.00  0.00    +0.000 C 
ENDROOT
BRANCH   1  10
ATOM      7  N   UNL     1       5.169   4.419  17.891  0.00  0.00    +0.000 NA
ATOM      8  C   UNL     1       5.158   4.875  19.295  0.00  0.00    +0.000 C 
ATOM      9  C   UNL     1       3.795   4.903  19.986  0.00  0.00    +0.000 C 
ATOM     10  C   UNL     1       2.668   5.587  19.188  0.00  0.00    +0.000 C 
ATOM     11  C   UNL     1       2.656   4.918  17.805  0.00  0.00    +0.000 C 
ATOM     12  C   UNL     1       4.013   4.874  17.099  0.00  0.00    +0.000 C 
BRANCH   7  14
ATOM     13  C   UNL     1       6.307   4.936  15.708  0.00  0.00    +0.000 C 
ATOM     14  C   UNL     1       6.458   4.800  17.231  0.00  0.00    +0.000 C 
ATOM     15  C   UNL     1       7.063   6.117  17.752  0.00  0.00    +0.000 C 
ENDBRANCH   7  14
ENDBRANCH   1  10
BRANCH   5  16
ATOM     16  C   UNL     1       0.358   9.409  21.239  0.00  0.00    +0.000 C 
ATOM     17  O   UNL     1      -0.439   8.535  21.598  0.00  0.00    +0.000 OA
ATOM     18  N   UNL     1       0.215  10.708  21.660  0.00  0.00    +0.000 N 
ATOM     19  H   UNL     1       0.808  11.425  21.262  0.00  0.00    +0.000 HD
BRANCH  18  20
ATOM     20  C   UNL     1      -0.939  11.104  22.460  0.00  0.00    +0.000 C 
BRANCH  20  21
ATOM     21  C   UNL     1      -1.201  12.638  22.421  0.00  0.00    +0.000 C 
ATOM     22  C   UNL     1      -1.680  13.090  21.030  0.00  0.00    +0.000 C 
ATOM     23  C   UNL     1      -3.080  12.587  20.688  0.00  0.00    +0.000 C 
ATOM     24  C   UNL     1      -4.095  12.942  21.773  0.00  0.00    +0.000 C 
ATOM     25  C   UNL     1      -3.634  12.536  23.170  0.00  0.00    +0.000 C 
ATOM     26  C   UNL     1      -2.236  13.066  23.477  0.00  0.00    +0.000 C 
BRANCH  21  27
ATOM     27  O   UNL     1       0.009  13.358  22.698  0.00  0.00    +0.000 OA
ATOM     28  H   UNL     1      -0.235  14.243  23.032  0.00  0.00    +0.000 HD
ENDBRANCH  21  27
ENDBRANCH  20  21
ENDBRANCH  18  20
ENDBRANCH   5  16
TORSDOF 6
ENDMDL
