MODEL 1
REMARK VINA RESULT:      -8.0      0.000      0.000
REMARK  Name = 
REMARK  8 active torsions:
REMARK  status: ('A' for Active; 'I' for Inactive)
REMARK    1  A    between atoms: C_1  and  O_2
REMARK    2  A    between atoms: O_2  and  C_3
REMARK    3  A    between atoms: C_5  and  N_6
REMARK    4  A    between atoms: C_7  and  C_9
REMARK    5  A    between atoms: C_9  and  C_10
REMARK    6  A    between atoms: C_17  and  C_18
REMARK    7  A    between atoms: C_24  and  O_25
REMARK    8  A    between atoms: O_25  and  C_26
REMARK                            x       y       z     vdW  Elec       q    Type
REMARK                         _______ _______ _______ _____ _____    ______ ____
ROOT
ATOM      1  C   UNL     1       1.984   9.593  17.901  0.00  0.00    +0.000 C 
ENDROOT
BRANCH   1   2
ATOM      2  C   UNL     1       0.772  10.289  18.481  0.00  0.00    +0.000 A 
ATOM      3  C   UNL     1       0.918  11.069  19.631  0.00  0.00    +0.000 A 
ATOM      4  C   UNL     1      -0.179  11.735  20.187  0.00  0.00    +0.000 A 
ATOM      5  C   UNL     1      -1.439  11.645  19.573  0.00  0.00    +0.000 A 
ATOM      6  N   UNL     1      -2.586  12.282  20.004  0.00  0.00    +0.000 NA
ATOM      7  C   UNL     1      -3.564  12.071  19.160  0.00  0.00    +0.000 A 
ATOM      8  N   UNL     1      -4.773  12.662  19.390  0.00  0.00    +0.000 N 
ATOM      9  C   UNL     1      -5.904  12.869  18.683  0.00  0.00    +0.000 C 
ATOM     10  C   UNL     1      -6.088  12.536  17.232  0.00  0.00    +0.000 C 
ATOM     11  O   UNL     1      -6.837  13.429  19.276  0.00  0.00    +0.000 OA
ATOM     12  S   UNL     1      -3.225  10.989  17.897  0.00  0.00    +0.000 S 
ATOM     13  C   UNL     1      -1.582  10.869  18.424  0.00  0.00    +0.000 A 
ATOM     14  C   UNL     1      -0.494  10.160  17.874  0.00  0.00    +0.000 A 
ATOM     15  H   UNL     1      -4.808  13.100  20.303  0.00  0.00    +0.000 HD
ENDBRANCH   1   2
BRANCH   1  17
ATOM     16  N   UNL     1       3.032   7.398  17.706  0.00  0.00    +0.000 N 
ATOM     17  C   UNL     1       2.237   8.219  18.499  0.00  0.00    +0.000 C 
ATOM     18  O   UNL     1       1.757   7.927  19.590  0.00  0.00    +0.000 OA
ATOM     19  H   UNL     1       3.507   7.832  16.923  0.00  0.00    +0.000 HD
BRANCH  16  22
ATOM     20  C   UNL     1       2.751   3.675  18.025  0.00  0.00    +0.000 A 
ATOM     21  C   UNL     1       2.396   5.010  17.806  0.00  0.00    +0.000 A 
ATOM     22  C   UNL     1       3.334   6.037  17.939  0.00  0.00    +0.000 A 
ATOM     23  C   UNL     1       4.647   5.698  18.285  0.00  0.00    +0.000 A 
ATOM     24  C   UNL     1       5.013   4.364  18.514  0.00  0.00    +0.000 A 
ATOM     25  C   UNL     1       4.059   3.355  18.388  0.00  0.00    +0.000 A 
BRANCH  20  27
ATOM     26  C   UNL     1       0.881   2.521  18.945  0.00  0.00    +0.000 C 
ATOM     27  O   UNL     1       1.732   2.778  17.838  0.00  0.00    +0.000 OA
ENDBRANCH  20  27
BRANCH  24  28
ATOM     28  O   UNL     1       6.331   4.174  18.852  0.00  0.00    +0.000 OA
ATOM     29  C   UNL     1       7.305   4.779  18.007  0.00  0.00    +0.000 C 
ENDBRANCH  24  28
ENDBRANCH  16  22
ENDBRANCH   1  17
TORSDOF 5
ENDMDL
MODEL 2
REMARK VINA RESULT:      -7.8      3.133      9.487
REMARK  Name = 
REMARK  8 active torsions:
REMARK  status: ('A' for Active; 'I' for Inactive)
REMARK    1  A    between atoms: C_1  and  O_2
REMARK    2  A    between atoms: O_2  and  C_3
REMARK    3  A    between atoms: C_5  and  N_6
REMARK    4  A    between atoms: C_7  and  C_9
REMARK    5  A    between atoms: C_9  and  C_10
REMARK    6  A    between atoms: C_17  and  C_18
REMARK    7  A    between atoms: C_24  and  O_25
REMARK    8  A    between atoms: O_25  and  C_26
REMARK                            x       y       z     vdW  Elec       q    Type
REMARK                         _______ _______ _______ _____ _____    ______ ____
ROOT
ATOM      1  C   UNL     1       0.829  10.388  20.164  0.00  0.00    +0.000 C 
ENDROOT
BRANCH   1   2
ATOM      2  C   UNL     1       1.384   9.107  19.581  0.00  0.00    +0.000 A 
ATOM      3  C   UNL     1       1.944   9.126  18.300  0.00  0.00    +0.000 A 
ATOM      4  C   UNL     1       2.477   7.963  17.736  0.00  0.00    +0.000 A 
ATOM      5  C   UNL     1       2.478   6.765  18.468  0.00  0.00    +0.000 A 
ATOM      6  N   UNL     1       3.004   5.563  18.035  0.00  0.00    +0.000 NA
ATOM      7  C   UNL     1       2.933   4.669  18.990  0.00  0.00    +0.000 A 
ATOM      8  N   UNL     1       3.450   3.426  18.768  0.00  0.00    +0.000 N 
ATOM      9  C   UNL     1       3.762   2.354  19.526  0.00  0.00    +0.000 C 
ATOM     10  C   UNL     1       3.697   2.307  21.024  0.00  0.00    +0.000 C 
ATOM     11  O   UNL     1       4.187   1.354  18.929  0.00  0.00    +0.000 OA
ATOM     12  S   UNL     1       2.107   5.154  20.390  0.00  0.00    +0.000 S 
ATOM     13  C   UNL     1       1.922   6.748  19.746  0.00  0.00    +0.000 A 
ATOM     14  C   UNL     1       1.346   7.904  20.314  0.00  0.00    +0.000 A 
ATOM     15  H   UNL     1       3.713   3.297  17.798  0.00  0.00    +0.000 HD
ENDBRANCH   1   2
BRANCH   1  17
ATOM     16  N   UNL     1      -1.261  10.287  18.907  0.00  0.00    +0.000 N 
ATOM     17  C   UNL     1      -0.173  11.081  19.255  0.00  0.00    +0.000 C 
ATOM     18  O   UNL     1       0.019  12.242  18.904  0.00  0.00    +0.000 OA
ATOM     19  H   UNL     1      -1.381   9.419  19.416  0.00  0.00    +0.000 HD
BRANCH  16  22
ATOM     20  C   UNL     1      -4.430  11.591  17.391  0.00  0.00    +0.000 A 
ATOM     21  C   UNL     1      -3.460  11.270  18.346  0.00  0.00    +0.000 A 
ATOM     22  C   UNL     1      -2.281  10.613  17.986  0.00  0.00    +0.000 A 
ATOM     23  C   UNL     1      -2.085  10.294  16.637  0.00  0.00    +0.000 A 
ATOM     24  C   UNL     1      -3.053  10.604  15.671  0.00  0.00    +0.000 A 
ATOM     25  C   UNL     1      -4.228  11.249  16.055  0.00  0.00    +0.000 A 
BRANCH  20  27
ATOM     26  C   UNL     1      -6.707  11.495  18.085  0.00  0.00    +0.000 C 
ATOM     27  O   UNL     1      -5.522  12.252  17.890  0.00  0.00    +0.000 OA
ENDBRANCH  20  27
BRANCH  24  28
ATOM     28  O   UNL     1      -2.734  10.229  14.389  0.00  0.00    +0.000 OA
ATOM     29  C   UNL     1      -3.821   9.950  13.512  0.00  0.00    +0.000 C 
ENDBRANCH  24  28
ENDBRANCH  16  22
ENDBRANCH   1  17
TORSDOF 5
ENDMDL
MODEL 3
REMARK VINA RESULT:      -7.7      0.569      2.494
REMARK  Name = 
REMARK  8 active torsions:
REMARK  status: ('A' for Active; 'I' for Inactive)
REMARK    1  A    between atoms: C_1  and  O_2
REMARK    2  A    between atoms: O_2  and  C_3
REMARK    3  A    between atoms: C_5  and  N_6
REMARK    4  A    between atoms: C_7  and  C_9
REMARK    5  A    between atoms: C_9  and  C_10
REMARK    6  A    between atoms: C_17  and  C_18
REMARK    7  A    between atoms: C_24  and  O_25
REMARK    8  A    between atoms: O_25  and  C_26
REMARK                            x       y       z     vdW  Elec       q    Type
REMARK                         _______ _______ _______ _____ _____    ______ ____
ROOT
ATOM      1  C   UNL     1       1.742   9.362  17.731  0.00  0.00    +0.000 C 
ENDROOT
BRANCH   1   2
ATOM      2  C   UNL     1       0.578  10.113  18.339  0.00  0.00    +0.000 A 
ATOM      3  C   UNL     1       0.793  10.906  19.470  0.00  0.00    +0.000 A 
ATOM      4  C   UNL     1      -0.258  11.623  20.051  0.00  0.00    +0.000 A 
ATOM      5  C   UNL     1      -1.541  11.571  19.483  0.00  0.00    +0.000 A 
ATOM      6  N   UNL     1      -2.647  12.258  19.942  0.00  0.00    +0.000 NA
ATOM      7  C   UNL     1      -3.662  12.071  19.135  0.00  0.00    +0.000 A 
ATOM      8  N   UNL     1      -4.838  12.712  19.397  0.00  0.00    +0.000 N 
ATOM      9  C   UNL     1      -5.985  12.950  18.725  0.00  0.00    +0.000 C 
ATOM     10  C   UNL     1      -6.232  12.601  17.287  0.00  0.00    +0.000 C 
ATOM     11  O   UNL     1      -6.875  13.555  19.340  0.00  0.00    +0.000 OA
ATOM     12  S   UNL     1      -3.407  10.956  17.881  0.00  0.00    +0.000 S 
ATOM     13  C   UNL     1      -1.753  10.782  18.353  0.00  0.00    +0.000 A 
ATOM     14  C   UNL     1      -0.712  10.023  17.778  0.00  0.00    +0.000 A 
ATOM     15  H   UNL     1      -4.825  13.165  20.302  0.00  0.00    +0.000 HD
ENDBRANCH   1   2
BRANCH   1  17
ATOM     16  N   UNL     1       3.013   7.284  17.872  0.00  0.00    +0.000 N 
ATOM     17  C   UNL     1       2.197   8.175  18.562  0.00  0.00    +0.000 C 
ATOM     18  O   UNL     1       1.845   8.076  19.734  0.00  0.00    +0.000 OA
ATOM     19  H   UNL     1       3.369   7.586  16.973  0.00  0.00    +0.000 HD
BRANCH  16  22
ATOM     20  C   UNL     1       5.257   4.460  18.889  0.00  0.00    +0.000 A 
ATOM     21  C   UNL     1       4.839   5.700  18.394  0.00  0.00    +0.000 A 
ATOM     22  C   UNL     1       3.485   6.037  18.340  0.00  0.00    +0.000 A 
ATOM     23  C   UNL     1       2.550   5.106  18.808  0.00  0.00    +0.000 A 
ATOM     24  C   UNL     1       2.955   3.857  19.299  0.00  0.00    +0.000 A 
ATOM     25  C   UNL     1       4.312   3.536  19.333  0.00  0.00    +0.000 A 
BRANCH  20  27
ATOM     26  C   UNL     1       7.337   4.718  17.757  0.00  0.00    +0.000 C 
ATOM     27  O   UNL     1       6.615   4.281  18.899  0.00  0.00    +0.000 OA
ENDBRANCH  20  27
BRANCH  24  28
ATOM     28  O   UNL     1       1.934   3.040  19.719  0.00  0.00    +0.000 OA
ATOM     29  C   UNL     1       0.997   2.623  18.732  0.00  0.00    +0.000 C 
ENDBRANCH  24  28
ENDBRANCH  16  22
ENDBRANCH   1  17
TORSDOF 5
ENDMDL
MODEL 4
REMARK VINA RESULT:      -7.6      1.869      2.402
REMARK  Name = 
REMARK  8 active torsions:
REMARK  status: ('A' for Active; 'I' for Inactive)
REMARK    1  A    between atoms: C_1  and  O_2
REMARK    2  A    between atoms: O_2  and  C_3
REMARK    3  A    between atoms: C_5  and  N_6
REMARK    4  A    between atoms: C_7  and  C_9
REMARK    5  A    between atoms: C_9  and  C_10
REMARK    6  A    between atoms: C_17  and  C_18
REMARK    7  A    between atoms: C_24  and  O_25
REMARK    8  A    between atoms: O_25  and  C_26
REMARK                            x       y       z     vdW  Elec       q    Type
REMARK                         _______ _______ _______ _____ _____    ______ ____
ROOT
ATOM      1  C   UNL     1       1.918   9.753  17.975  0.00  0.00    +0.000 C 
ENDROOT
BRANCH   1   2
ATOM      2  C   UNL     1       0.630  10.401  18.434  0.00  0.00    +0.000 A 
ATOM      3  C   UNL     1      -0.581   9.982  17.876  0.00  0.00    +0.000 A 
ATOM      4  C   UNL     1      -1.792  10.551  18.285  0.00  0.00    +0.000 A 
ATOM      5  C   UNL     1      -1.801  11.536  19.286  0.00  0.00    +0.000 A 
ATOM      6  N   UNL     1      -2.929  12.146  19.798  0.00  0.00    +0.000 NA
ATOM      7  C   UNL     1      -2.602  12.945  20.783  0.00  0.00    +0.000 A 
ATOM      8  N   UNL     1      -3.593  13.605  21.451  0.00  0.00    +0.000 N 
ATOM      9  C   UNL     1      -3.690  14.302  22.603  0.00  0.00    +0.000 C 
ATOM     10  C   UNL     1      -2.594  14.452  23.617  0.00  0.00    +0.000 C 
ATOM     11  O   UNL     1      -4.793  14.806  22.858  0.00  0.00    +0.000 OA
ATOM     12  S   UNL     1      -0.939  13.133  21.056  0.00  0.00    +0.000 S 
ATOM     13  C   UNL     1      -0.592  11.950  19.843  0.00  0.00    +0.000 A 
ATOM     14  C   UNL     1       0.640  11.414  19.414  0.00  0.00    +0.000 A 
ATOM     15  H   UNL     1      -4.489  13.499  20.993  0.00  0.00    +0.000 HD
ENDBRANCH   1   2
BRANCH   1  17
ATOM     16  N   UNL     1       2.886   7.520  17.793  0.00  0.00    +0.000 N 
ATOM     17  C   UNL     1       2.169   8.392  18.605  0.00  0.00    +0.000 C 
ATOM     18  O   UNL     1       1.753   8.154  19.735  0.00  0.00    +0.000 OA
ATOM     19  H   UNL     1       3.321   7.911  16.965  0.00  0.00    +0.000 HD
BRANCH  16  22
ATOM     20  C   UNL     1       2.564   3.800  18.105  0.00  0.00    +0.000 A 
ATOM     21  C   UNL     1       2.234   5.135  17.852  0.00  0.00    +0.000 A 
ATOM     22  C   UNL     1       3.162   6.159  18.055  0.00  0.00    +0.000 A 
ATOM     23  C   UNL     1       4.442   5.816  18.507  0.00  0.00    +0.000 A 
ATOM     24  C   UNL     1       4.782   4.482  18.771  0.00  0.00    +0.000 A 
ATOM     25  C   UNL     1       3.837   3.476  18.573  0.00  0.00    +0.000 A 
BRANCH  20  27
ATOM     26  C   UNL     1       0.760   2.484  18.936  0.00  0.00    +0.000 C 
ATOM     27  O   UNL     1       1.559   2.906  17.841  0.00  0.00    +0.000 OA
ENDBRANCH  20  27
BRANCH  24  28
ATOM     28  O   UNL     1       6.068   4.288  19.213  0.00  0.00    +0.000 OA
ATOM     29  C   UNL     1       6.888   5.446  19.334  0.00  0.00    +0.000 C 
ENDBRANCH  24  28
ENDBRANCH  16  22
ENDBRANCH   1  17
TORSDOF 5
ENDMDL
MODEL 5
REMARK VINA RESULT:      -7.6      7.279     10.176
REMARK  Name = 
REMARK  8 active torsions:
REMARK  status: ('A' for Active; 'I' for Inactive)
REMARK    1  A    between atoms: C_1  and  O_2
REMARK    2  A    between atoms: O_2  and  C_3
REMARK    3  A    between atoms: C_5  and  N_6
REMARK    4  A    between atoms: C_7  and  C_9
REMARK    5  A    between atoms: C_9  and  C_10
REMARK    6  A    between atoms: C_17  and  C_18
REMARK    7  A    between atoms: C_24  and  O_25
REMARK    8  A    between atoms: O_25  and  C_26
REMARK                            x       y       z     vdW  Elec       q    Type
REMARK                         _______ _______ _______ _____ _____    ______ ____
ROOT
ATOM      1  C   UNL     1       8.397   7.035  18.669  0.00  0.00    +0.000 C 
ENDROOT
BRANCH   1   2
ATOM      2  C   UNL     1       7.158   6.292  18.219  0.00  0.00    +0.000 A 
ATOM      3  C   UNL     1       7.053   5.885  16.885  0.00  0.00    +0.000 A 
ATOM      4  C   UNL     1       5.927   5.186  16.438  0.00  0.00    +0.000 A 
ATOM      5  C   UNL     1       4.899   4.863  17.338  0.00  0.00    +0.000 A 
ATOM      6  N   UNL     1       3.758   4.150  17.027  0.00  0.00    +0.000 NA
ATOM      7  C   UNL     1       3.050   3.936  18.108  0.00  0.00    +0.000 A 
ATOM      8  N   UNL     1       1.904   3.201  18.009  0.00  0.00    +0.000 N 
ATOM      9  C   UNL     1       1.060   2.599  18.873  0.00  0.00    +0.000 C 
ATOM     10  C   UNL     1       1.268   2.496  20.355  0.00  0.00    +0.000 C 
ATOM     11  O   UNL     1       0.066   2.042  18.384  0.00  0.00    +0.000 OA
ATOM     12  S   UNL     1       3.614   4.694  19.517  0.00  0.00    +0.000 S 
ATOM     13  C   UNL     1       5.007   5.268  18.668  0.00  0.00    +0.000 A 
ATOM     14  C   UNL     1       6.118   6.006  19.126  0.00  0.00    +0.000 A 
ATOM     15  H   UNL     1       1.656   3.020  17.045  0.00  0.00    +0.000 HD
ENDBRANCH   1   2
BRANCH   1  17
ATOM     16  N   UNL     1       9.319   9.262  19.048  0.00  0.00    +0.000 N 
ATOM     17  C   UNL     1       8.350   8.525  18.376  0.00  0.00    +0.000 C 
ATOM     18  O   UNL     1       7.509   8.971  17.601  0.00  0.00    +0.000 OA
ATOM     19  H   UNL     1      10.057   8.743  19.508  0.00  0.00    +0.000 HD
BRANCH  16  22
ATOM     20  C   UNL     1      10.036  12.807  18.068  0.00  0.00    +0.000 A 
ATOM     21  C   UNL     1       9.956  11.412  18.005  0.00  0.00    +0.000 A 
ATOM     22  C   UNL     1       9.442  10.670  19.071  0.00  0.00    +0.000 A 
ATOM     23  C   UNL     1       8.993  11.357  20.204  0.00  0.00    +0.000 A 
ATOM     24  C   UNL     1       9.074  12.755  20.282  0.00  0.00    +0.000 A 
ATOM     25  C   UNL     1       9.602  13.476  19.212  0.00  0.00    +0.000 A 
BRANCH  20  27
ATOM     26  C   UNL     1      11.293  14.592  17.114  0.00  0.00    +0.000 C 
ATOM     27  O   UNL     1      10.543  13.399  16.941  0.00  0.00    +0.000 OA
ENDBRANCH  20  27
BRANCH  24  28
ATOM     28  O   UNL     1       8.603  13.299  21.452  0.00  0.00    +0.000 OA
ATOM     29  C   UNL     1       9.474  14.188  22.143  0.00  0.00    +0.000 C 
ENDBRANCH  24  28
ENDBRANCH  16  22
ENDBRANCH   1  17
TORSDOF 5
ENDMDL
MODEL 6
REMARK VINA RESULT:      -7.5      7.167      9.874
REMARK  Name = 
REMARK  8 active torsions:
REMARK  status: ('A' for Active; 'I' for Inactive)
REMARK    1  A    between atoms: C_1  and  O_2
REMARK    2  A    between atoms: O_2  and  C_3
REMARK    3  A    between atoms: C_5  and  N_6
REMARK    4  A    between atoms: C_7  and  C_9
REMARK    5  A    between atoms: C_9  and  C_10
REMARK    6  A    between atoms: C_17  and  C_18
REMARK    7  A    between atoms: C_24  and  O_25
REMARK    8  A    between atoms: O_25  and  C_26
REMARK                            x       y       z     vdW  Elec       q    Type
REMARK                         _______ _______ _______ _____ _____    ______ ____
ROOT
ATOM      1  C   UNL     1       8.402   7.018  18.346  0.00  0.00    +0.000 C 
ENDROOT
BRANCH   1   2
ATOM      2  C   UNL     1       7.098   6.330  18.008  0.00  0.00    +0.000 A 
ATOM      3  C   UNL     1       6.829   5.994  16.678  0.00  0.00    +0.000 A 
ATOM      4  C   UNL     1       5.638   5.347  16.331  0.00  0.00    +0.000 A 
ATOM      5  C   UNL     1       4.711   5.003  17.328  0.00  0.00    +0.000 A 
ATOM      6  N   UNL     1       3.521   4.334  17.117  0.00  0.00    +0.000 NA
ATOM      7  C   UNL     1       2.936   4.082  18.261  0.00  0.00    +0.000 A 
ATOM      8  N   UNL     1       1.765   3.380  18.262  0.00  0.00    +0.000 N 
ATOM      9  C   UNL     1       1.008   2.755  19.188  0.00  0.00    +0.000 C 
ATOM     10  C   UNL     1       1.382   2.571  20.629  0.00  0.00    +0.000 C 
ATOM     11  O   UNL     1      -0.051   2.248  18.791  0.00  0.00    +0.000 OA
ATOM     12  S   UNL     1       3.681   4.752  19.631  0.00  0.00    +0.000 S 
ATOM     13  C   UNL     1       4.983   5.335  18.654  0.00  0.00    +0.000 A 
ATOM     14  C   UNL     1       6.161   6.023  19.015  0.00  0.00    +0.000 A 
ATOM     15  H   UNL     1       1.403   3.255  17.325  0.00  0.00    +0.000 HD
ENDBRANCH   1   2
BRANCH   1  17
ATOM     16  N   UNL     1       9.237   9.154  19.182  0.00  0.00    +0.000 N 
ATOM     17  C   UNL     1       8.300   8.535  18.361  0.00  0.00    +0.000 C 
ATOM     18  O   UNL     1       7.448   9.098  17.681  0.00  0.00    +0.000 OA
ATOM     19  H   UNL     1       9.991   8.579  19.537  0.00  0.00    +0.000 HD
BRANCH  16  22
ATOM     20  C   UNL     1       9.209  12.410  21.036  0.00  0.00    +0.000 A 
ATOM     21  C   UNL     1       9.106  11.040  20.776  0.00  0.00    +0.000 A 
ATOM     22  C   UNL     1       9.307  10.531  19.491  0.00  0.00    +0.000 A 
ATOM     23  C   UNL     1       9.629  11.426  18.465  0.00  0.00    +0.000 A 
ATOM     24  C   UNL     1       9.729  12.803  18.710  0.00  0.00    +0.000 A 
ATOM     25  C   UNL     1       9.512  13.292  19.999  0.00  0.00    +0.000 A 
BRANCH  20  27
ATOM     26  C   UNL     1       8.320  11.825  23.166  0.00  0.00    +0.000 C 
ATOM     27  O   UNL     1       9.006  12.758  22.345  0.00  0.00    +0.000 OA
ENDBRANCH  20  27
BRANCH  24  28
ATOM     28  O   UNL     1      10.046  13.567  17.614  0.00  0.00    +0.000 OA
ATOM     29  C   UNL     1       9.866  14.974  17.737  0.00  0.00    +0.000 C 
ENDBRANCH  24  28
ENDBRANCH  16  22
ENDBRANCH   1  17
TORSDOF 5
ENDMDL
MODEL 7
REMARK VINA RESULT:      -7.5      4.197      9.854
REMARK  Name = 
REMARK  8 active torsions:
REMARK  status: ('A' for Active; 'I' for Inactive)
REMARK    1  A    between atoms: C_1  and  O_2
REMARK    2  A    between atoms: O_2  and  C_3
REMARK    3  A    between atoms: C_5  and  N_6
REMARK    4  A    between atoms: C_7  and  C_9
REMARK    5  A    between atoms: C_9  and  C_10
REMARK    6  A    between atoms: C_17  and  C_18
REMARK    7  A    between atoms: C_24  and  O_25
REMARK    8  A    between atoms: O_25  and  C_26
REMARK                            x       y       z     vdW  Elec       q    Type
REMARK                         _______ _______ _______ _____ _____    ______ ____
ROOT
ATOM      1  C   UNL     1       3.469   4.669  20.290  0.00  0.00    +0.000 C 
ENDROOT
BRANCH   1   2
ATOM      2  C   UNL     1       4.417   4.928  19.139  0.00  0.00    +0.000 A 
ATOM      3  C   UNL     1       5.663   5.506  19.399  0.00  0.00    +0.000 A 
ATOM      4  C   UNL     1       6.569   5.748  18.361  0.00  0.00    +0.000 A 
ATOM      5  C   UNL     1       6.241   5.385  17.045  0.00  0.00    +0.000 A 
ATOM      6  N   UNL     1       7.061   5.540  15.944  0.00  0.00    +0.000 NA
ATOM      7  C   UNL     1       6.498   5.014  14.885  0.00  0.00    +0.000 A 
ATOM      8  N   UNL     1       7.181   5.025  13.703  0.00  0.00    +0.000 N 
ATOM      9  C   UNL     1       7.055   4.420  12.503  0.00  0.00    +0.000 C 
ATOM     10  C   UNL     1       6.046   3.360  12.171  0.00  0.00    +0.000 C 
ATOM     11  O   UNL     1       7.881   4.732  11.633  0.00  0.00    +0.000 OA
ATOM     12  S   UNL     1       4.914   4.446  15.099  0.00  0.00    +0.000 S 
ATOM     13  C   UNL     1       4.999   4.806  16.789  0.00  0.00    +0.000 A 
ATOM     14  C   UNL     1       4.060   4.590  17.819  0.00  0.00    +0.000 A 
ATOM     15  H   UNL     1       8.019   5.590  13.760  0.00  0.00    +0.000 HD
ENDBRANCH   1   2
BRANCH   1  17
ATOM     16  N   UNL     1       2.581   6.938  20.162  0.00  0.00    +0.000 N 
ATOM     17  C   UNL     1       2.261   5.592  20.298  0.00  0.00    +0.000 C 
ATOM     18  O   UNL     1       1.132   5.123  20.411  0.00  0.00    +0.000 OA
ATOM     19  H   UNL     1       3.532   7.163  19.894  0.00  0.00    +0.000 HD
BRANCH  16  22
ATOM     20  C   UNL     1       0.316   9.795  19.292  0.00  0.00    +0.000 A 
ATOM     21  C   UNL     1       1.217   8.735  19.146  0.00  0.00    +0.000 A 
ATOM     22  C   UNL     1       1.688   8.030  20.257  0.00  0.00    +0.000 A 
ATOM     23  C   UNL     1       1.225   8.400  21.525  0.00  0.00    +0.000 A 
ATOM     24  C   UNL     1       0.327   9.465  21.684  0.00  0.00    +0.000 A 
ATOM     25  C   UNL     1      -0.122  10.164  20.563  0.00  0.00    +0.000 A 
BRANCH  20  27
ATOM     26  C   UNL     1      -1.455  10.652  17.949  0.00  0.00    +0.000 C 
ATOM     27  O   UNL     1      -0.072  10.376  18.114  0.00  0.00    +0.000 OA
ENDBRANCH  20  27
BRANCH  24  28
ATOM     28  O   UNL     1      -0.041   9.725  22.982  0.00  0.00    +0.000 OA
ATOM     29  C   UNL     1      -1.075  10.684  23.177  0.00  0.00    +0.000 C 
ENDBRANCH  24  28
ENDBRANCH  16  22
ENDBRANCH   1  17
TORSDOF 5
ENDMDL
MODEL 8
REMARK VINA RESULT:      -7.5      2.109      3.686
REMARK  Name = 
REMARK  8 active torsions:
REMARK  status: ('A' for Active; 'I' for Inactive)
REMARK    1  A    between atoms: C_1  and  O_2
REMARK    2  A    between atoms: O_2  and  C_3
REMARK    3  A    between atoms: C_5  and  N_6
REMARK    4  A    between atoms: C_7  and  C_9
REMARK    5  A    between atoms: C_9  and  C_10
REMARK    6  A    between atoms: C_17  and  C_18
REMARK    7  A    between atoms: C_24  and  O_25
REMARK    8  A    between atoms: O_25  and  C_26
REMARK                            x       y       z     vdW  Elec       q    Type
REMARK                         _______ _______ _______ _____ _____    ______ ____
ROOT
ATOM      1  C   UNL     1       1.845   9.354  17.679  0.00  0.00    +0.000 C 
ENDROOT
BRANCH   1   2
ATOM      2  C   UNL     1       0.704  10.118  18.315  0.00  0.00    +0.000 A 
ATOM      3  C   UNL     1      -0.608   9.829  17.929  0.00  0.00    +0.000 A 
ATOM      4  C   UNL     1      -1.688  10.508  18.504  0.00  0.00    +0.000 A 
ATOM      5  C   UNL     1      -1.460  11.472  19.499  0.00  0.00    +0.000 A 
ATOM      6  N   UNL     1      -2.441  12.181  20.165  0.00  0.00    +0.000 NA
ATOM      7  C   UNL     1      -1.903  12.927  21.098  0.00  0.00    +0.000 A 
ATOM      8  N   UNL     1      -2.722  13.669  21.900  0.00  0.00    +0.000 N 
ATOM      9  C   UNL     1      -2.589  14.353  23.056  0.00  0.00    +0.000 C 
ATOM     10  C   UNL     1      -1.354  14.378  23.908  0.00  0.00    +0.000 C 
ATOM     11  O   UNL     1      -3.591  14.958  23.463  0.00  0.00    +0.000 OA
ATOM     12  S   UNL     1      -0.207  12.946  21.138  0.00  0.00    +0.000 S 
ATOM     13  C   UNL     1      -0.151  11.755  19.885  0.00  0.00    +0.000 A 
ATOM     14  C   UNL     1       0.950  11.108  19.287  0.00  0.00    +0.000 A 
ATOM     15  H   UNL     1      -3.679  13.660  21.570  0.00  0.00    +0.000 HD
ENDBRANCH   1   2
BRANCH   1  17
ATOM     16  N   UNL     1       3.114   7.272  17.796  0.00  0.00    +0.000 N 
ATOM     17  C   UNL     1       2.304   8.159  18.498  0.00  0.00    +0.000 C 
ATOM     18  O   UNL     1       1.959   8.050  19.671  0.00  0.00    +0.000 OA
ATOM     19  H   UNL     1       3.465   7.580  16.897  0.00  0.00    +0.000 HD
BRANCH  16  22
ATOM     20  C   UNL     1       5.360   4.441  18.788  0.00  0.00    +0.000 A 
ATOM     21  C   UNL     1       4.942   5.686  18.306  0.00  0.00    +0.000 A 
ATOM     22  C   UNL     1       3.586   6.021  18.251  0.00  0.00    +0.000 A 
ATOM     23  C   UNL     1       2.651   5.082  18.703  0.00  0.00    +0.000 A 
ATOM     24  C   UNL     1       3.057   3.828  19.180  0.00  0.00    +0.000 A 
ATOM     25  C   UNL     1       4.415   3.510  19.216  0.00  0.00    +0.000 A 
BRANCH  20  27
ATOM     26  C   UNL     1       7.457   4.824  17.725  0.00  0.00    +0.000 C 
ATOM     27  O   UNL     1       6.718   4.265  18.801  0.00  0.00    +0.000 OA
ENDBRANCH  20  27
BRANCH  24  28
ATOM     28  O   UNL     1       2.037   3.003  19.586  0.00  0.00    +0.000 OA
ATOM     29  C   UNL     1       1.002   2.749  18.642  0.00  0.00    +0.000 C 
ENDBRANCH  24  28
ENDBRANCH  16  22
ENDBRANCH   1  17
TORSDOF 5
ENDMDL
MODEL 9
REMARK VINA RESULT:      -7.4      3.220      3.709
REMARK  Name = 
REMARK  8 active torsions:
REMARK  status: ('A' for Active; 'I' for Inactive)
REMARK    1  A    between atoms: C_1  and  O_2
REMARK    2  A    between atoms: O_2  and  C_3
REMARK    3  A    between atoms: C_5  and  N_6
REMARK    4  A    between atoms: C_7  and  C_9
REMARK    5  A    between atoms: C_9  and  C_10
REMARK    6  A    between atoms: C_17  and  C_18
REMARK    7  A    between atoms: C_24  and  O_25
REMARK    8  A    between atoms: O_25  and  C_26
REMARK                            x       y       z     vdW  Elec       q    Type
REMARK                         _______ _______ _______ _____ _____    ______ ____
ROOT
ATOM      1  C   UNL     1       1.688   8.860  17.727  0.00  0.00    +0.000 C 
ENDROOT
BRANCH   1   2
ATOM      2  C   UNL     1       1.158   9.423  19.027  0.00  0.00    +0.000 A 
ATOM      3  C   UNL     1       1.378   8.720  20.215  0.00  0.00    +0.000 A 
ATOM      4  C   UNL     1       0.912   9.217  21.437  0.00  0.00    +0.000 A 
ATOM      5  C   UNL     1       0.237  10.448  21.482  0.00  0.00    +0.000 A 
ATOM      6  N   UNL     1      -0.238  11.058  22.626  0.00  0.00    +0.000 NA
ATOM      7  C   UNL     1      -0.729  12.237  22.337  0.00  0.00    +0.000 A 
ATOM      8  N   UNL     1      -1.206  13.018  23.351  0.00  0.00    +0.000 N 
ATOM      9  C   UNL     1      -1.565  14.311  23.494  0.00  0.00    +0.000 C 
ATOM     10  C   UNL     1      -1.406  15.373  22.447  0.00  0.00    +0.000 C 
ATOM     11  O   UNL     1      -2.008  14.646  24.602  0.00  0.00    +0.000 OA
ATOM     12  S   UNL     1      -0.794  12.623  20.686  0.00  0.00    +0.000 S 
ATOM     13  C   UNL     1       0.021  11.149  20.296  0.00  0.00    +0.000 A 
ATOM     14  C   UNL     1       0.451  10.642  19.052  0.00  0.00    +0.000 A 
ATOM     15  H   UNL     1      -1.252  12.510  24.225  0.00  0.00    +0.000 HD
ENDBRANCH   1   2
BRANCH   1  17
ATOM     16  N   UNL     1       3.802   7.643  17.651  0.00  0.00    +0.000 N 
ATOM     17  C   UNL     1       2.436   7.548  17.896  0.00  0.00    +0.000 C 
ATOM     18  O   UNL     1       1.828   6.534  18.227  0.00  0.00    +0.000 OA
ATOM     19  H   UNL     1       4.193   8.574  17.567  0.00  0.00    +0.000 HD
BRANCH  16  22
ATOM     20  C   UNL     1       5.694   4.514  18.470  0.00  0.00    +0.000 A 
ATOM     21  C   UNL     1       4.774   5.562  18.570  0.00  0.00    +0.000 A 
ATOM     22  C   UNL     1       4.727   6.575  17.609  0.00  0.00    +0.000 A 
ATOM     23  C   UNL     1       5.617   6.510  16.531  0.00  0.00    +0.000 A 
ATOM     24  C   UNL     1       6.549   5.468  16.424  0.00  0.00    +0.000 A 
ATOM     25  C   UNL     1       6.587   4.473  17.400  0.00  0.00    +0.000 A 
BRANCH  20  27
ATOM     26  C   UNL     1       4.418   2.813  19.545  0.00  0.00    +0.000 C 
ATOM     27  O   UNL     1       5.608   3.585  19.474  0.00  0.00    +0.000 OA
ENDBRANCH  20  27
BRANCH  24  28
ATOM     28  O   UNL     1       7.364   5.530  15.320  0.00  0.00    +0.000 OA
ATOM     29  C   UNL     1       6.958   4.782  14.178  0.00  0.00    +0.000 C 
ENDBRANCH  24  28
ENDBRANCH  16  22
ENDBRANCH   1  17
TORSDOF 5
ENDMDL
