MODEL 1
REMARK VINA RESULT:      -8.4      0.000      0.000
REMARK  Name = 
REMARK  5 active torsions:
REMARK  status: ('A' for Active; 'I' for Inactive)
REMARK    1  A    between atoms: N_6  and  C_7
REMARK    2  A    between atoms: C_7  and  C_8
REMARK    3  A    between atoms: C_8  and  C_9
REMARK    4  A    between atoms: C_16  and  C_17
REMARK    5  A    between atoms: C_21  and  O_22
REMARK                            x       y       z     vdW  Elec       q    Type
REMARK                         _______ _______ _______ _____ _____    ______ ____
ROOT
ATOM      1  O   UNL     1       8.023   4.102  16.329  0.00  0.00    +0.000 OA
ATOM      2  C   UNL     1       7.135   4.486  17.065  0.00  0.00    +0.000 C 
ATOM      3  N   UNL     1       7.140   4.424  18.423  0.00  0.00    +0.000 N 
ATOM      4  C   UNL     1       6.026   5.004  18.963  0.00  0.00    +0.000 C 
ATOM      5  O   UNL     1       5.805   5.045  20.163  0.00  0.00    +0.000 OA
ATOM      6  N   UNL     1       5.241   5.504  17.920  0.00  0.00    +0.000 N 
ATOM      7  C   UNL     1       5.832   5.151  16.714  0.00  0.00    +0.000 C 
ATOM      8  C   UNL     1       5.342   5.331  15.480  0.00  0.00    +0.000 C 
ATOM      9  H   UNL     1       7.878   4.017  18.968  0.00  0.00    +0.000 HD
ENDROOT
BRANCH   8  10
ATOM     10  C   UNL     1       6.010   4.880  14.254  0.00  0.00    +0.000 A 
ATOM     11  C   UNL     1       7.159   5.533  13.790  0.00  0.00    +0.000 A 
ATOM     12  C   UNL     1       7.812   5.078  12.641  0.00  0.00    +0.000 A 
ATOM     13  C   UNL     1       7.321   3.969  11.950  0.00  0.00    +0.000 A 
ATOM     14  C   UNL     1       6.176   3.329  12.411  0.00  0.00    +0.000 A 
ATOM     15  C   UNL     1       5.516   3.776  13.553  0.00  0.00    +0.000 A 
BRANCH  14  16
ATOM     16  O   UNL     1       5.667   2.239  11.767  0.00  0.00    +0.000 OA
ATOM     17  H   UNL     1       5.203   1.687  12.417  0.00  0.00    +0.000 HD
ENDBRANCH  14  16
ENDBRANCH   8  10
BRANCH   6  18
ATOM     18  C   UNL     1       3.918   6.105  18.087  0.00  0.00    +0.000 C 
BRANCH  18  19
ATOM     19  C   UNL     1       2.742   5.196  17.690  0.00  0.00    +0.000 C 
BRANCH  19  20
ATOM     20  C   UNL     1       2.232   4.349  18.831  0.00  0.00    +0.000 A 
ATOM     21  C   UNL     1       2.205   4.872  20.133  0.00  0.00    +0.000 A 
ATOM     22  C   UNL     1       1.719   4.109  21.196  0.00  0.00    +0.000 A 
ATOM     23  C   UNL     1       1.258   2.814  20.969  0.00  0.00    +0.000 A 
ATOM     24  C   UNL     1       1.277   2.286  19.679  0.00  0.00    +0.000 A 
ATOM     25  C   UNL     1       1.762   3.048  18.613  0.00  0.00    +0.000 A 
ENDBRANCH  19  20
ENDBRANCH  18  19
ENDBRANCH   6  18
TORSDOF 5
ENDMDL
MODEL 2
REMARK VINA RESULT:      -8.4      0.209      1.018
REMARK  Name = 
REMARK  5 active torsions:
REMARK  status: ('A' for Active; 'I' for Inactive)
REMARK    1  A    between atoms: N_6  and  C_7
REMARK    2  A    between atoms: C_7  and  C_8
REMARK    3  A    between atoms: C_8  and  C_9
REMARK    4  A    between atoms: C_16  and  C_17
REMARK    5  A    between atoms: C_21  and  O_22
REMARK                            x       y       z     vdW  Elec       q    Type
REMARK                         _______ _______ _______ _____ _____    ______ ____
ROOT
ATOM      1  O   UNL     1       7.897   4.030  16.389  0.00  0.00    +0.000 OA
ATOM      2  C   UNL     1       7.000   4.455  17.092  0.00  0.00    +0.000 C 
ATOM      3  N   UNL     1       6.949   4.388  18.449  0.00  0.00    +0.000 N 
ATOM      4  C   UNL     1       5.845   5.020  18.948  0.00  0.00    +0.000 C 
ATOM      5  O   UNL     1       5.579   5.068  20.139  0.00  0.00    +0.000 OA
ATOM      6  N   UNL     1       5.127   5.562  17.878  0.00  0.00    +0.000 N 
ATOM      7  C   UNL     1       5.747   5.184  16.695  0.00  0.00    +0.000 C 
ATOM      8  C   UNL     1       5.315   5.393  15.442  0.00  0.00    +0.000 C 
ATOM      9  H   UNL     1       7.644   3.943  19.020  0.00  0.00    +0.000 HD
ENDROOT
BRANCH   8  10
ATOM     10  C   UNL     1       6.008   4.914  14.242  0.00  0.00    +0.000 A 
ATOM     11  C   UNL     1       7.146   5.576  13.767  0.00  0.00    +0.000 A 
ATOM     12  C   UNL     1       7.824   5.095  12.643  0.00  0.00    +0.000 A 
ATOM     13  C   UNL     1       7.366   3.951  11.986  0.00  0.00    +0.000 A 
ATOM     14  C   UNL     1       6.229   3.302  12.458  0.00  0.00    +0.000 A 
ATOM     15  C   UNL     1       5.546   3.774  13.575  0.00  0.00    +0.000 A 
BRANCH  14  16
ATOM     16  O   UNL     1       5.753   2.178  11.848  0.00  0.00    +0.000 OA
ATOM     17  H   UNL     1       5.839   2.290  10.888  0.00  0.00    +0.000 HD
ENDBRANCH  14  16
ENDBRANCH   8  10
BRANCH   6  18
ATOM     18  C   UNL     1       3.829   6.227  17.996  0.00  0.00    +0.000 C 
BRANCH  18  19
ATOM     19  C   UNL     1       2.615   5.330  17.700  0.00  0.00    +0.000 C 
BRANCH  19  20
ATOM     20  C   UNL     1       2.269   4.400  18.839  0.00  0.00    +0.000 A 
ATOM     21  C   UNL     1       2.137   3.024  18.602  0.00  0.00    +0.000 A 
ATOM     22  C   UNL     1       1.837   2.148  19.646  0.00  0.00    +0.000 A 
ATOM     23  C   UNL     1       1.661   2.640  20.937  0.00  0.00    +0.000 A 
ATOM     24  C   UNL     1       1.793   4.006  21.185  0.00  0.00    +0.000 A 
ATOM     25  C   UNL     1       2.095   4.884  20.141  0.00  0.00    +0.000 A 
ENDBRANCH  19  20
ENDBRANCH  18  19
ENDBRANCH   6  18
TORSDOF 5
ENDMDL
MODEL 3
REMARK VINA RESULT:      -8.1      2.527      5.733
REMARK  Name = 
REMARK  5 active torsions:
REMARK  status: ('A' for Active; 'I' for Inactive)
REMARK    1  A    between atoms: N_6  and  C_7
REMARK    2  A    between atoms: C_7  and  C_8
REMARK    3  A    between atoms: C_8  and  C_9
REMARK    4  A    between atoms: C_16  and  C_17
REMARK    5  A    between atoms: C_21  and  O_22
REMARK                            x       y       z     vdW  Elec       q    Type
REMARK                         _______ _______ _______ _____ _____    ______ ____
ROOT
ATOM      1  O   UNL     1       5.055   7.490  17.745  0.00  0.00    +0.000 OA
ATOM      2  C   UNL     1       4.949   6.360  17.309  0.00  0.00    +0.000 C 
ATOM      3  N   UNL     1       5.883   5.694  16.580  0.00  0.00    +0.000 N 
ATOM      4  C   UNL     1       5.494   4.414  16.302  0.00  0.00    +0.000 C 
ATOM      5  O   UNL     1       6.163   3.637  15.640  0.00  0.00    +0.000 OA
ATOM      6  N   UNL     1       4.245   4.197  16.892  0.00  0.00    +0.000 N 
ATOM      7  C   UNL     1       3.816   5.385  17.467  0.00  0.00    +0.000 C 
ATOM      8  C   UNL     1       2.624   5.638  18.028  0.00  0.00    +0.000 C 
ATOM      9  H   UNL     1       6.762   6.086  16.293  0.00  0.00    +0.000 HD
ENDROOT
BRANCH   8  10
ATOM     10  C   UNL     1       2.230   6.942  18.571  0.00  0.00    +0.000 A 
ATOM     11  C   UNL     1       1.924   8.006  17.714  0.00  0.00    +0.000 A 
ATOM     12  C   UNL     1       1.515   9.237  18.235  0.00  0.00    +0.000 A 
ATOM     13  C   UNL     1       1.410   9.411  19.617  0.00  0.00    +0.000 A 
ATOM     14  C   UNL     1       1.723   8.353  20.464  0.00  0.00    +0.000 A 
ATOM     15  C   UNL     1       2.135   7.124  19.954  0.00  0.00    +0.000 A 
BRANCH  14  16
ATOM     16  O   UNL     1       1.629   8.481  21.819  0.00  0.00    +0.000 OA
ATOM     17  H   UNL     1       1.791   9.409  22.052  0.00  0.00    +0.000 HD
ENDBRANCH  14  16
ENDBRANCH   8  10
BRANCH   6  18
ATOM     18  C   UNL     1       3.448   2.980  16.732  0.00  0.00    +0.000 C 
BRANCH  18  19
ATOM     19  C   UNL     1       3.573   1.971  17.886  0.00  0.00    +0.000 C 
BRANCH  19  20
ATOM     20  C   UNL     1       2.749   2.345  19.095  0.00  0.00    +0.000 A 
ATOM     21  C   UNL     1       3.374   2.530  20.338  0.00  0.00    +0.000 A 
ATOM     22  C   UNL     1       2.630   2.894  21.461  0.00  0.00    +0.000 A 
ATOM     23  C   UNL     1       1.253   3.072  21.355  0.00  0.00    +0.000 A 
ATOM     24  C   UNL     1       0.621   2.894  20.124  0.00  0.00    +0.000 A 
ATOM     25  C   UNL     1       1.364   2.531  18.999  0.00  0.00    +0.000 A 
ENDBRANCH  19  20
ENDBRANCH  18  19
ENDBRANCH   6  18
TORSDOF 5
ENDMDL
MODEL 4
REMARK VINA RESULT:      -8.1      2.529      5.781
REMARK  Name = 
REMARK  5 active torsions:
REMARK  status: ('A' for Active; 'I' for Inactive)
REMARK    1  A    between atoms: N_6  and  C_7
REMARK    2  A    between atoms: C_7  and  C_8
REMARK    3  A    between atoms: C_8  and  C_9
REMARK    4  A    between atoms: C_16  and  C_17
REMARK    5  A    between atoms: C_21  and  O_22
REMARK                            x       y       z     vdW  Elec       q    Type
REMARK                         _______ _______ _______ _____ _____    ______ ____
ROOT
ATOM      1  O   UNL     1       5.042   7.492  17.758  0.00  0.00    +0.000 OA
ATOM      2  C   UNL     1       4.938   6.363  17.319  0.00  0.00    +0.000 C 
ATOM      3  N   UNL     1       5.876   5.699  16.591  0.00  0.00    +0.000 N 
ATOM      4  C   UNL     1       5.489   4.420  16.308  0.00  0.00    +0.000 C 
ATOM      5  O   UNL     1       6.161   3.645  15.646  0.00  0.00    +0.000 OA
ATOM      6  N   UNL     1       4.238   4.199  16.893  0.00  0.00    +0.000 N 
ATOM      7  C   UNL     1       3.806   5.386  17.470  0.00  0.00    +0.000 C 
ATOM      8  C   UNL     1       2.612   5.637  18.027  0.00  0.00    +0.000 C 
ATOM      9  H   UNL     1       6.755   6.093  16.308  0.00  0.00    +0.000 HD
ENDROOT
BRANCH   8  10
ATOM     10  C   UNL     1       2.215   6.939  18.572  0.00  0.00    +0.000 A 
ATOM     11  C   UNL     1       1.903   8.003  17.717  0.00  0.00    +0.000 A 
ATOM     12  C   UNL     1       1.491   9.231  18.240  0.00  0.00    +0.000 A 
ATOM     13  C   UNL     1       1.389   9.404  19.622  0.00  0.00    +0.000 A 
ATOM     14  C   UNL     1       1.707   8.346  20.467  0.00  0.00    +0.000 A 
ATOM     15  C   UNL     1       2.121   7.119  19.956  0.00  0.00    +0.000 A 
BRANCH  14  16
ATOM     16  O   UNL     1       1.616   8.473  21.823  0.00  0.00    +0.000 OA
ATOM     17  H   UNL     1       2.112   9.263  22.092  0.00  0.00    +0.000 HD
ENDBRANCH  14  16
ENDBRANCH   8  10
BRANCH   6  18
ATOM     18  C   UNL     1       3.443   2.983  16.727  0.00  0.00    +0.000 C 
BRANCH  18  19
ATOM     19  C   UNL     1       3.563   1.972  17.880  0.00  0.00    +0.000 C 
BRANCH  19  20
ATOM     20  C   UNL     1       2.772   2.368  19.105  0.00  0.00    +0.000 A 
ATOM     21  C   UNL     1       1.383   2.549  19.012  0.00  0.00    +0.000 A 
ATOM     22  C   UNL     1       0.635   2.896  20.137  0.00  0.00    +0.000 A 
ATOM     23  C   UNL     1       1.267   3.070  21.366  0.00  0.00    +0.000 A 
ATOM     24  C   UNL     1       2.646   2.889  21.471  0.00  0.00    +0.000 A 
ATOM     25  C   UNL     1       3.397   2.540  20.345  0.00  0.00    +0.000 A 
ENDBRANCH  19  20
ENDBRANCH  18  19
ENDBRANCH   6  18
TORSDOF 5
ENDMDL
MODEL 5
REMARK VINA RESULT:      -8.0      1.636      7.088
REMARK  Name = 
REMARK  5 active torsions:
REMARK  status: ('A' for Active; 'I' for Inactive)
REMARK    1  A    between atoms: N_6  and  C_7
REMARK    2  A    between atoms: C_7  and  C_8
REMARK    3  A    between atoms: C_8  and  C_9
REMARK    4  A    between atoms: C_16  and  C_17
REMARK    5  A    between atoms: C_21  and  O_22
REMARK                            x       y       z     vdW  Elec       q    Type
REMARK                         _______ _______ _______ _____ _____    ______ ____
ROOT
ATOM      1  O   UNL     1       5.187   3.725  19.572  0.00  0.00    +0.000 OA
ATOM      2  C   UNL     1       5.610   4.050  18.479  0.00  0.00    +0.000 C 
ATOM      3  N   UNL     1       6.919   4.141  18.123  0.00  0.00    +0.000 N 
ATOM      4  C   UNL     1       7.066   4.460  16.803  0.00  0.00    +0.000 C 
ATOM      5  O   UNL     1       8.152   4.618  16.267  0.00  0.00    +0.000 OA
ATOM      6  N   UNL     1       5.794   4.567  16.232  0.00  0.00    +0.000 N 
ATOM      7  C   UNL     1       4.846   4.399  17.231  0.00  0.00    +0.000 C 
ATOM      8  C   UNL     1       3.517   4.544  17.131  0.00  0.00    +0.000 C 
ATOM      9  H   UNL     1       7.688   3.978  18.748  0.00  0.00    +0.000 HD
ENDROOT
BRANCH   8  10
ATOM     10  C   UNL     1       2.585   4.397  18.254  0.00  0.00    +0.000 A 
ATOM     11  C   UNL     1       1.833   3.226  18.405  0.00  0.00    +0.000 A 
ATOM     12  C   UNL     1       0.973   3.076  19.496  0.00  0.00    +0.000 A 
ATOM     13  C   UNL     1       0.858   4.097  20.442  0.00  0.00    +0.000 A 
ATOM     14  C   UNL     1       1.602   5.262  20.282  0.00  0.00    +0.000 A 
ATOM     15  C   UNL     1       2.459   5.422  19.197  0.00  0.00    +0.000 A 
BRANCH  14  16
ATOM     16  O   UNL     1       1.522   6.281  21.186  0.00  0.00    +0.000 OA
ATOM     17  H   UNL     1       2.173   6.121  21.888  0.00  0.00    +0.000 HD
ENDBRANCH  14  16
ENDBRANCH   8  10
BRANCH   6  18
ATOM     18  C   UNL     1       5.531   4.996  14.858  0.00  0.00    +0.000 C 
BRANCH  18  19
ATOM     19  C   UNL     1       6.550   4.497  13.819  0.00  0.00    +0.000 C 
BRANCH  19  20
ATOM     20  C   UNL     1       5.936   3.613  12.759  0.00  0.00    +0.000 A 
ATOM     21  C   UNL     1       4.636   3.873  12.299  0.00  0.00    +0.000 A 
ATOM     22  C   UNL     1       4.062   3.077  11.306  0.00  0.00    +0.000 A 
ATOM     23  C   UNL     1       4.779   2.012  10.767  0.00  0.00    +0.000 A 
ATOM     24  C   UNL     1       6.072   1.747  11.215  0.00  0.00    +0.000 A 
ATOM     25  C   UNL     1       6.650   2.542  12.208  0.00  0.00    +0.000 A 
ENDBRANCH  19  20
ENDBRANCH  18  19
ENDBRANCH   6  18
TORSDOF 5
ENDMDL
MODEL 6
REMARK VINA RESULT:      -8.0      1.980      7.049
REMARK  Name = 
REMARK  5 active torsions:
REMARK  status: ('A' for Active; 'I' for Inactive)
REMARK    1  A    between atoms: N_6  and  C_7
REMARK    2  A    between atoms: C_7  and  C_8
REMARK    3  A    between atoms: C_8  and  C_9
REMARK    4  A    between atoms: C_16  and  C_17
REMARK    5  A    between atoms: C_21  and  O_22
REMARK                            x       y       z     vdW  Elec       q    Type
REMARK                         _______ _______ _______ _____ _____    ______ ____
ROOT
ATOM      1  O   UNL     1       4.436   5.824  19.378  0.00  0.00    +0.000 OA
ATOM      2  C   UNL     1       5.107   5.616  18.386  0.00  0.00    +0.000 C 
ATOM      3  N   UNL     1       6.046   6.451  17.866  0.00  0.00    +0.000 N 
ATOM      4  C   UNL     1       6.677   5.898  16.787  0.00  0.00    +0.000 C 
ATOM      5  O   UNL     1       7.541   6.475  16.146  0.00  0.00    +0.000 OA
ATOM      6  N   UNL     1       6.156   4.617  16.582  0.00  0.00    +0.000 N 
ATOM      7  C   UNL     1       5.127   4.408  17.490  0.00  0.00    +0.000 C 
ATOM      8  C   UNL     1       4.291   3.362  17.552  0.00  0.00    +0.000 C 
ATOM      9  H   UNL     1       6.264   7.358  18.237  0.00  0.00    +0.000 HD
ENDROOT
BRANCH   8  10
ATOM     10  C   UNL     1       3.192   3.242  18.516  0.00  0.00    +0.000 A 
ATOM     11  C   UNL     1       1.865   3.416  18.106  0.00  0.00    +0.000 A 
ATOM     12  C   UNL     1       0.819   3.265  19.021  0.00  0.00    +0.000 A 
ATOM     13  C   UNL     1       1.094   2.941  20.351  0.00  0.00    +0.000 A 
ATOM     14  C   UNL     1       2.416   2.777  20.754  0.00  0.00    +0.000 A 
ATOM     15  C   UNL     1       3.464   2.927  19.851  0.00  0.00    +0.000 A 
BRANCH  14  16
ATOM     16  O   UNL     1       2.726   2.454  22.043  0.00  0.00    +0.000 OA
ATOM     17  H   UNL     1       2.982   3.266  22.510  0.00  0.00    +0.000 HD
ENDBRANCH  14  16
ENDBRANCH   8  10
BRANCH   6  18
ATOM     18  C   UNL     1       6.504   3.746  15.459  0.00  0.00    +0.000 C 
BRANCH  18  19
ATOM     19  C   UNL     1       6.605   4.457  14.099  0.00  0.00    +0.000 C 
BRANCH  19  20
ATOM     20  C   UNL     1       5.998   3.664  12.966  0.00  0.00    +0.000 A 
ATOM     21  C   UNL     1       4.684   3.931  12.552  0.00  0.00    +0.000 A 
ATOM     22  C   UNL     1       4.114   3.221  11.494  0.00  0.00    +0.000 A 
ATOM     23  C   UNL     1       4.850   2.235  10.842  0.00  0.00    +0.000 A 
ATOM     24  C   UNL     1       6.158   1.964  11.242  0.00  0.00    +0.000 A 
ATOM     25  C   UNL     1       6.731   2.674  12.300  0.00  0.00    +0.000 A 
ENDBRANCH  19  20
ENDBRANCH  18  19
ENDBRANCH   6  18
TORSDOF 5
ENDMDL
MODEL 7
REMARK VINA RESULT:      -8.0      2.635      5.542
REMARK  Name = 
REMARK  5 active torsions:
REMARK  status: ('A' for Active; 'I' for Inactive)
REMARK    1  A    between atoms: N_6  and  C_7
REMARK    2  A    between atoms: C_7  and  C_8
REMARK    3  A    between atoms: C_8  and  C_9
REMARK    4  A    between atoms: C_16  and  C_17
REMARK    5  A    between atoms: C_21  and  O_22
REMARK                            x       y       z     vdW  Elec       q    Type
REMARK                         _______ _______ _______ _____ _____    ______ ____
ROOT
ATOM      1  O   UNL     1       5.082   7.389  17.751  0.00  0.00    +0.000 OA
ATOM      2  C   UNL     1       4.973   6.261  17.311  0.00  0.00    +0.000 C 
ATOM      3  N   UNL     1       5.906   5.594  16.581  0.00  0.00    +0.000 N 
ATOM      4  C   UNL     1       5.513   4.317  16.297  0.00  0.00    +0.000 C 
ATOM      5  O   UNL     1       6.181   3.540  15.633  0.00  0.00    +0.000 OA
ATOM      6  N   UNL     1       4.263   4.101  16.885  0.00  0.00    +0.000 N 
ATOM      7  C   UNL     1       3.837   5.288  17.465  0.00  0.00    +0.000 C 
ATOM      8  C   UNL     1       2.646   5.544  18.025  0.00  0.00    +0.000 C 
ATOM      9  H   UNL     1       6.786   5.985  16.295  0.00  0.00    +0.000 HD
ENDROOT
BRANCH   8  10
ATOM     10  C   UNL     1       2.255   6.847  18.572  0.00  0.00    +0.000 A 
ATOM     11  C   UNL     1       2.049   7.009  19.947  0.00  0.00    +0.000 A 
ATOM     12  C   UNL     1       1.711   8.261  20.468  0.00  0.00    +0.000 A 
ATOM     13  C   UNL     1       1.577   9.359  19.616  0.00  0.00    +0.000 A 
ATOM     14  C   UNL     1       1.775   9.191  18.249  0.00  0.00    +0.000 A 
ATOM     15  C   UNL     1       2.109   7.947  17.721  0.00  0.00    +0.000 A 
BRANCH  14  16
ATOM     16  O   UNL     1       1.658  10.240  17.384  0.00  0.00    +0.000 OA
ATOM     17  H   UNL     1       0.715  10.402  17.223  0.00  0.00    +0.000 HD
ENDBRANCH  14  16
ENDBRANCH   8  10
BRANCH   6  18
ATOM     18  C   UNL     1       3.463   2.887  16.721  0.00  0.00    +0.000 C 
BRANCH  18  19
ATOM     19  C   UNL     1       3.552   1.892  17.890  0.00  0.00    +0.000 C 
BRANCH  19  20
ATOM     20  C   UNL     1       2.744   2.314  19.095  0.00  0.00    +0.000 A 
ATOM     21  C   UNL     1       3.386   2.546  20.321  0.00  0.00    +0.000 A 
ATOM     22  C   UNL     1       2.657   2.954  21.438  0.00  0.00    +0.000 A 
ATOM     23  C   UNL     1       1.279   3.131  21.343  0.00  0.00    +0.000 A 
ATOM     24  C   UNL     1       0.632   2.907  20.129  0.00  0.00    +0.000 A 
ATOM     25  C   UNL     1       1.359   2.499  19.009  0.00  0.00    +0.000 A 
ENDBRANCH  19  20
ENDBRANCH  18  19
ENDBRANCH   6  18
TORSDOF 5
ENDMDL
MODEL 8
REMARK VINA RESULT:      -8.0      2.956      4.773
REMARK  Name = 
REMARK  5 active torsions:
REMARK  status: ('A' for Active; 'I' for Inactive)
REMARK    1  A    between atoms: N_6  and  C_7
REMARK    2  A    between atoms: C_7  and  C_8
REMARK    3  A    between atoms: C_8  and  C_9
REMARK    4  A    between atoms: C_16  and  C_17
REMARK    5  A    between atoms: C_21  and  O_22
REMARK                            x       y       z     vdW  Elec       q    Type
REMARK                         _______ _______ _______ _____ _____    ______ ____
ROOT
ATOM      1  O   UNL     1       5.264   2.812  19.259  0.00  0.00    +0.000 OA
ATOM      2  C   UNL     1       4.229   3.205  19.762  0.00  0.00    +0.000 C 
ATOM      3  N   UNL     1       3.570   2.620  20.797  0.00  0.00    +0.000 N 
ATOM      4  C   UNL     1       2.476   3.344  21.179  0.00  0.00    +0.000 C 
ATOM      5  O   UNL     1       1.721   2.999  22.074  0.00  0.00    +0.000 OA
ATOM      6  N   UNL     1       2.405   4.488  20.378  0.00  0.00    +0.000 N 
ATOM      7  C   UNL     1       3.417   4.426  19.429  0.00  0.00    +0.000 C 
ATOM      8  C   UNL     1       3.625   5.260  18.400  0.00  0.00    +0.000 C 
ATOM      9  H   UNL     1       3.859   1.767  21.242  0.00  0.00    +0.000 HD
ENDROOT
BRANCH   8  10
ATOM     10  C   UNL     1       4.693   5.094  17.408  0.00  0.00    +0.000 A 
ATOM     11  C   UNL     1       4.608   4.093  16.433  0.00  0.00    +0.000 A 
ATOM     12  C   UNL     1       5.611   3.962  15.469  0.00  0.00    +0.000 A 
ATOM     13  C   UNL     1       6.705   4.830  15.475  0.00  0.00    +0.000 A 
ATOM     14  C   UNL     1       6.788   5.816  16.451  0.00  0.00    +0.000 A 
ATOM     15  C   UNL     1       5.795   5.954  17.418  0.00  0.00    +0.000 A 
BRANCH  14  16
ATOM     16  O   UNL     1       7.838   6.687  16.489  0.00  0.00    +0.000 OA
ATOM     17  H   UNL     1       8.328   6.614  15.654  0.00  0.00    +0.000 HD
ENDBRANCH  14  16
ENDBRANCH   8  10
BRANCH   6  18
ATOM     18  C   UNL     1       1.314   5.462  20.411  0.00  0.00    +0.000 C 
BRANCH  18  19
ATOM     19  C   UNL     1       1.677   6.816  21.043  0.00  0.00    +0.000 C 
BRANCH  19  20
ATOM     20  C   UNL     1       1.545   7.976  20.084  0.00  0.00    +0.000 A 
ATOM     21  C   UNL     1       0.827   9.120  20.465  0.00  0.00    +0.000 A 
ATOM     22  C   UNL     1       0.712  10.207  19.598  0.00  0.00    +0.000 A 
ATOM     23  C   UNL     1       1.310  10.162  18.342  0.00  0.00    +0.000 A 
ATOM     24  C   UNL     1       2.029   9.032  17.954  0.00  0.00    +0.000 A 
ATOM     25  C   UNL     1       2.147   7.942  18.820  0.00  0.00    +0.000 A 
ENDBRANCH  19  20
ENDBRANCH  18  19
ENDBRANCH   6  18
TORSDOF 5
ENDMDL
MODEL 9
REMARK VINA RESULT:      -7.9      2.943      4.836
REMARK  Name = 
REMARK  5 active torsions:
REMARK  status: ('A' for Active; 'I' for Inactive)
REMARK    1  A    between atoms: N_6  and  C_7
REMARK    2  A    between atoms: C_7  and  C_8
REMARK    3  A    between atoms: C_8  and  C_9
REMARK    4  A    between atoms: C_16  and  C_17
REMARK    5  A    between atoms: C_21  and  O_22
REMARK                            x       y       z     vdW  Elec       q    Type
REMARK                         _______ _______ _______ _____ _____    ______ ____
ROOT
ATOM      1  O   UNL     1       5.280   2.817  19.269  0.00  0.00    +0.000 OA
ATOM      2  C   UNL     1       4.241   3.207  19.764  0.00  0.00    +0.000 C 
ATOM      3  N   UNL     1       3.581   2.624  20.801  0.00  0.00    +0.000 N 
ATOM      4  C   UNL     1       2.481   3.343  21.172  0.00  0.00    +0.000 C 
ATOM      5  O   UNL     1       1.723   2.999  22.066  0.00  0.00    +0.000 OA
ATOM      6  N   UNL     1       2.405   4.481  20.363  0.00  0.00    +0.000 N 
ATOM      7  C   UNL     1       3.422   4.420  19.420  0.00  0.00    +0.000 C 
ATOM      8  C   UNL     1       3.629   5.248  18.386  0.00  0.00    +0.000 C 
ATOM      9  H   UNL     1       3.873   1.776  21.252  0.00  0.00    +0.000 HD
ENDROOT
BRANCH   8  10
ATOM     10  C   UNL     1       4.703   5.083  17.400  0.00  0.00    +0.000 A 
ATOM     11  C   UNL     1       4.629   4.075  16.431  0.00  0.00    +0.000 A 
ATOM     12  C   UNL     1       5.637   3.944  15.472  0.00  0.00    +0.000 A 
ATOM     13  C   UNL     1       6.726   4.819  15.477  0.00  0.00    +0.000 A 
ATOM     14  C   UNL     1       6.798   5.813  16.448  0.00  0.00    +0.000 A 
ATOM     15  C   UNL     1       5.800   5.950  17.409  0.00  0.00    +0.000 A 
BRANCH  14  16
ATOM     16  O   UNL     1       7.842   6.691  16.484  0.00  0.00    +0.000 OA
ATOM     17  H   UNL     1       7.718   7.345  15.778  0.00  0.00    +0.000 HD
ENDBRANCH  14  16
ENDBRANCH   8  10
BRANCH   6  18
ATOM     18  C   UNL     1       1.308   5.449  20.385  0.00  0.00    +0.000 C 
BRANCH  18  19
ATOM     19  C   UNL     1       1.646   6.792  21.053  0.00  0.00    +0.000 C 
BRANCH  19  20
ATOM     20  C   UNL     1       1.548   7.968  20.109  0.00  0.00    +0.000 A 
ATOM     21  C   UNL     1       2.145   7.898  18.841  0.00  0.00    +0.000 A 
ATOM     22  C   UNL     1       2.048   8.967  17.950  0.00  0.00    +0.000 A 
ATOM     23  C   UNL     1       1.357  10.119  18.319  0.00  0.00    +0.000 A 
ATOM     24  C   UNL     1       0.757  10.198  19.575  0.00  0.00    +0.000 A 
ATOM     25  C   UNL     1       0.852   9.128  20.468  0.00  0.00    +0.000 A 
ENDBRANCH  19  20
ENDBRANCH  18  19
ENDBRANCH   6  18
TORSDOF 5
ENDMDL
