MODEL 1
REMARK VINA RESULT:     -10.2      0.000      0.000
REMARK  Name = 
REMARK  8 active torsions:
REMARK  status: ('A' for Active; 'I' for Inactive)
REMARK    1  A    between atoms: C_1  and  O_2
REMARK    2  A    between atoms: O_2  and  C_3
REMARK    3  A    between atoms: C_6  and  C_7
REMARK    4  A    between atoms: C_19  and  N_20
REMARK    5  A    between atoms: C_21  and  C_23
REMARK    6  A    between atoms: C_23  and  O_24
REMARK    7  A    between atoms: O_24  and  C_25
REMARK    8  A    between atoms: C_31  and  C_32
REMARK                            x       y       z     vdW  Elec       q    Type
REMARK                         _______ _______ _______ _____ _____    ______ ____
ROOT
ATOM      1  C   UNL     1       3.701   3.492  17.867  0.00  0.00    +0.000 A 
ATOM      2  C   UNL     1       2.393   3.875  17.576  0.00  0.00    +0.000 A 
ATOM      3  C   UNL     1       1.913   5.123  17.979  0.00  0.00    +0.000 A 
ATOM      4  C   UNL     1       2.715   6.021  18.706  0.00  0.00    +0.000 A 
ATOM      5  C   UNL     1       4.058   5.659  18.922  0.00  0.00    +0.000 A 
ATOM      6  C   UNL     1       4.554   4.425  18.470  0.00  0.00    +0.000 A 
ENDROOT
BRANCH   4   7
ATOM      7  C   UNL     1       2.131   7.313  19.169  0.00  0.00    +0.000 A 
ATOM      8  C   UNL     1       1.694   7.441  20.438  0.00  0.00    +0.000 A 
ATOM      9  C   UNL     1       1.073   8.675  20.895  0.00  0.00    +0.000 A 
ATOM     10  C   UNL     1       0.819   8.943  22.237  0.00  0.00    +0.000 A 
ATOM     11  C   UNL     1       0.173  10.132  22.603  0.00  0.00    +0.000 A 
ATOM     12  C   UNL     1      -0.250  11.034  21.624  0.00  0.00    +0.000 A 
ATOM     13  C   UNL     1       0.002  10.769  20.280  0.00  0.00    +0.000 A 
ATOM     14  C   UNL     1       0.685   9.604  19.938  0.00  0.00    +0.000 A 
ATOM     15  O   UNL     1       1.037   9.432  18.593  0.00  0.00    +0.000 OA
ATOM     16  C   UNL     1       2.035   8.514  18.280  0.00  0.00    +0.000 A 
ATOM     17  O   UNL     1       2.742   8.677  17.293  0.00  0.00    +0.000 OA
ENDBRANCH   4   7
BRANCH   6  18
ATOM     18  N   UNL     1       5.913   4.127  18.626  0.00  0.00    +0.000 N 
ATOM     19  C   UNL     1       6.935   4.768  17.955  0.00  0.00    +0.000 C 
ATOM     20  O   UNL     1       8.100   4.577  18.307  0.00  0.00    +0.000 OA
ATOM     21  H   UNL     1       6.225   3.705  19.495  0.00  0.00    +0.000 HD
BRANCH  19  22
ATOM     22  C   UNL     1       6.583   5.739  16.821  0.00  0.00    +0.000 C 
BRANCH  22  23
ATOM     23  O   UNL     1       7.459   5.621  15.713  0.00  0.00    +0.000 OA
BRANCH  23  24
ATOM     24  C   UNL     1       6.988   4.992  14.589  0.00  0.00    +0.000 A 
ATOM     25  C   UNL     1       5.892   4.151  14.852  0.00  0.00    +0.000 A 
ATOM     26  C   UNL     1       5.317   3.369  13.846  0.00  0.00    +0.000 A 
ATOM     27  C   UNL     1       5.835   3.424  12.560  0.00  0.00    +0.000 A 
ATOM     28 CL   UNL     1       5.153   2.457  11.312  0.00  0.00    +0.000 Cl
ATOM     29  C   UNL     1       6.924   4.247  12.282  0.00  0.00    +0.000 A 
ATOM     30  C   UNL     1       7.529   5.027  13.290  0.00  0.00    +0.000 A 
ATOM     31  C   UNL     1       8.749   5.806  12.893  0.00  0.00    +0.000 C 
ENDBRANCH  23  24
ENDBRANCH  22  23
ENDBRANCH  19  22
ENDBRANCH   6  18
BRANCH   1  33
ATOM     32  C   UNL     1       3.743   1.222  18.479  0.00  0.00    +0.000 C 
ATOM     33  O   UNL     1       4.188   2.243  17.586  0.00  0.00    +0.000 OA
ENDBRANCH   1  33
TORSDOF 6
ENDMDL
MODEL 2
REMARK VINA RESULT:      -9.0      1.111      1.693
REMARK  Name = 
REMARK  8 active torsions:
REMARK  status: ('A' for Active; 'I' for Inactive)
REMARK    1  A    between atoms: C_1  and  O_2
REMARK    2  A    between atoms: O_2  and  C_3
REMARK    3  A    between atoms: C_6  and  C_7
REMARK    4  A    between atoms: C_19  and  N_20
REMARK    5  A    between atoms: C_21  and  C_23
REMARK    6  A    between atoms: C_23  and  O_24
REMARK    7  A    between atoms: O_24  and  C_25
REMARK    8  A    between atoms: C_31  and  C_32
REMARK                            x       y       z     vdW  Elec       q    Type
REMARK                         _______ _______ _______ _____ _____    ______ ____
ROOT
ATOM      1  C   UNL     1       3.827   3.351  17.675  0.00  0.00    +0.000 A 
ATOM      2  C   UNL     1       2.507   3.710  17.408  0.00  0.00    +0.000 A 
ATOM      3  C   UNL     1       1.993   4.920  17.882  0.00  0.00    +0.000 A 
ATOM      4  C   UNL     1       2.772   5.799  18.657  0.00  0.00    +0.000 A 
ATOM      5  C   UNL     1       4.125   5.464  18.849  0.00  0.00    +0.000 A 
ATOM      6  C   UNL     1       4.655   4.273  18.327  0.00  0.00    +0.000 A 
ENDROOT
BRANCH   4   7
ATOM      7  C   UNL     1       2.151   7.045  19.192  0.00  0.00    +0.000 A 
ATOM      8  C   UNL     1       2.129   8.165  18.443  0.00  0.00    +0.000 A 
ATOM      9  C   UNL     1       1.576   9.405  18.966  0.00  0.00    +0.000 A 
ATOM     10  C   UNL     1       1.317  10.516  18.167  0.00  0.00    +0.000 A 
ATOM     11  C   UNL     1       0.829  11.695  18.745  0.00  0.00    +0.000 A 
ATOM     12  C   UNL     1       0.634  11.774  20.126  0.00  0.00    +0.000 A 
ATOM     13  C   UNL     1       0.892  10.665  20.929  0.00  0.00    +0.000 A 
ATOM     14  C   UNL     1       1.333   9.487  20.331  0.00  0.00    +0.000 A 
ATOM     15  O   UNL     1       1.458   8.355  21.148  0.00  0.00    +0.000 OA
ATOM     16  C   UNL     1       1.505   7.102  20.542  0.00  0.00    +0.000 A 
ATOM     17  O   UNL     1       1.086   6.112  21.129  0.00  0.00    +0.000 OA
ENDBRANCH   4   7
BRANCH   6  18
ATOM     18  N   UNL     1       6.023   4.007  18.464  0.00  0.00    +0.000 N 
ATOM     19  C   UNL     1       7.023   4.724  17.842  0.00  0.00    +0.000 C 
ATOM     20  O   UNL     1       8.195   4.545  18.181  0.00  0.00    +0.000 OA
ATOM     21  H   UNL     1       6.348   3.533  19.302  0.00  0.00    +0.000 HD
BRANCH  19  22
ATOM     22  C   UNL     1       6.642   5.763  16.779  0.00  0.00    +0.000 C 
BRANCH  22  23
ATOM     23  O   UNL     1       7.483   5.710  15.640  0.00  0.00    +0.000 OA
BRANCH  23  24
ATOM     24  C   UNL     1       7.019   5.047  14.532  0.00  0.00    +0.000 A 
ATOM     25  C   UNL     1       5.946   4.186  14.820  0.00  0.00    +0.000 A 
ATOM     26  C   UNL     1       5.383   3.371  13.834  0.00  0.00    +0.000 A 
ATOM     27  C   UNL     1       5.891   3.412  12.544  0.00  0.00    +0.000 A 
ATOM     28 CL   UNL     1       5.225   2.405  11.320  0.00  0.00    +0.000 Cl
ATOM     29  C   UNL     1       6.959   4.255  12.241  0.00  0.00    +0.000 A 
ATOM     30  C   UNL     1       7.551   5.070  13.230  0.00  0.00    +0.000 A 
ATOM     31  C   UNL     1       8.749   5.870  12.809  0.00  0.00    +0.000 C 
ENDBRANCH  23  24
ENDBRANCH  22  23
ENDBRANCH  19  22
ENDBRANCH   6  18
BRANCH   1  33
ATOM     32  C   UNL     1       3.964   1.057  18.178  0.00  0.00    +0.000 C 
ATOM     33  O   UNL     1       4.349   2.134  17.323  0.00  0.00    +0.000 OA
ENDBRANCH   1  33
TORSDOF 6
ENDMDL
MODEL 3
REMARK VINA RESULT:      -8.9      1.167      1.606
REMARK  Name = 
REMARK  8 active torsions:
REMARK  status: ('A' for Active; 'I' for Inactive)
REMARK    1  A    between atoms: C_1  and  O_2
REMARK    2  A    between atoms: O_2  and  C_3
REMARK    3  A    between atoms: C_6  and  C_7
REMARK    4  A    between atoms: C_19  and  N_20
REMARK    5  A    between atoms: C_21  and  C_23
REMARK    6  A    between atoms: C_23  and  O_24
REMARK    7  A    between atoms: O_24  and  C_25
REMARK    8  A    between atoms: C_31  and  C_32
REMARK                            x       y       z     vdW  Elec       q    Type
REMARK                         _______ _______ _______ _____ _____    ______ ____
ROOT
ATOM      1  C   UNL     1       3.924   4.155  18.254  0.00  0.00    +0.000 A 
ATOM      2  C   UNL     1       2.704   4.547  17.706  0.00  0.00    +0.000 A 
ATOM      3  C   UNL     1       2.083   5.725  18.128  0.00  0.00    +0.000 A 
ATOM      4  C   UNL     1       2.647   6.537  19.129  0.00  0.00    +0.000 A 
ATOM      5  C   UNL     1       3.917   6.176  19.616  0.00  0.00    +0.000 A 
ATOM      6  C   UNL     1       4.564   5.019  19.151  0.00  0.00    +0.000 A 
ENDROOT
BRANCH   4   7
ATOM      7  C   UNL     1       1.907   7.748  19.589  0.00  0.00    +0.000 A 
ATOM      8  C   UNL     1       1.438   7.815  20.851  0.00  0.00    +0.000 A 
ATOM      9  C   UNL     1       0.670   8.964  21.304  0.00  0.00    +0.000 A 
ATOM     10  C   UNL     1       0.364   9.191  22.644  0.00  0.00    +0.000 A 
ATOM     11  C   UNL     1      -0.422  10.293  23.005  0.00  0.00    +0.000 A 
ATOM     12  C   UNL     1      -0.932  11.146  22.024  0.00  0.00    +0.000 A 
ATOM     13  C   UNL     1      -0.629  10.923  20.684  0.00  0.00    +0.000 A 
ATOM     14  C   UNL     1       0.191   9.849  20.346  0.00  0.00    +0.000 A 
ATOM     15  O   UNL     1       0.582   9.729  19.006  0.00  0.00    +0.000 OA
ATOM     16  C   UNL     1       1.686   8.936  18.705  0.00  0.00    +0.000 A 
ATOM     17  O   UNL     1       2.385   9.189  17.731  0.00  0.00    +0.000 OA
ENDBRANCH   4   7
BRANCH   6  18
ATOM     18  N   UNL     1       5.861   4.729  19.593  0.00  0.00    +0.000 N 
ATOM     19  C   UNL     1       6.981   5.462  19.259  0.00  0.00    +0.000 C 
ATOM     20  O   UNL     1       8.040   5.252  19.855  0.00  0.00    +0.000 OA
ATOM     21  H   UNL     1       5.979   4.213  20.459  0.00  0.00    +0.000 HD
BRANCH  19  22
ATOM     22  C   UNL     1       6.862   6.554  18.188  0.00  0.00    +0.000 C 
BRANCH  22  23
ATOM     23  O   UNL     1       7.506   6.199  16.976  0.00  0.00    +0.000 OA
BRANCH  23  24
ATOM     24  C   UNL     1       6.749   5.595  16.003  0.00  0.00    +0.000 A 
ATOM     25  C   UNL     1       7.419   4.534  15.370  0.00  0.00    +0.000 A 
ATOM     26  C   UNL     1       6.840   3.841  14.303  0.00  0.00    +0.000 A 
ATOM     27  C   UNL     1       5.576   4.205  13.861  0.00  0.00    +0.000 A 
ATOM     28 CL   UNL     1       4.852   3.377  12.539  0.00  0.00    +0.000 Cl
ATOM     29  C   UNL     1       4.899   5.258  14.472  0.00  0.00    +0.000 A 
ATOM     30  C   UNL     1       5.478   5.980  15.537  0.00  0.00    +0.000 A 
ATOM     31  C   UNL     1       4.694   7.149  16.059  0.00  0.00    +0.000 C 
ENDBRANCH  23  24
ENDBRANCH  22  23
ENDBRANCH  19  22
ENDBRANCH   6  18
BRANCH   1  33
ATOM     32  C   UNL     1       3.626   1.854  17.868  0.00  0.00    +0.000 C 
ATOM     33  O   UNL     1       4.524   2.962  17.950  0.00  0.00    +0.000 OA
ENDBRANCH   1  33
TORSDOF 6
ENDMDL
MODEL 4
REMARK VINA RESULT:      -8.6      3.230      8.599
REMARK  Name = 
REMARK  8 active torsions:
REMARK  status: ('A' for Active; 'I' for Inactive)
REMARK    1  A    between atoms: C_1  and  O_2
REMARK    2  A    between atoms: O_2  and  C_3
REMARK    3  A    between atoms: C_6  and  C_7
REMARK    4  A    between atoms: C_19  and  N_20
REMARK    5  A    between atoms: C_21  and  C_23
REMARK    6  A    between atoms: C_23  and  O_24
REMARK    7  A    between atoms: O_24  and  C_25
REMARK    8  A    between atoms: C_31  and  C_32
REMARK                            x       y       z     vdW  Elec       q    Type
REMARK                         _______ _______ _______ _____ _____    ______ ____
ROOT
ATOM      1  C   UNL     1       2.055   4.069  19.587  0.00  0.00    +0.000 A 
ATOM      2  C   UNL     1       2.429   3.071  18.690  0.00  0.00    +0.000 A 
ATOM      3  C   UNL     1       3.359   3.336  17.682  0.00  0.00    +0.000 A 
ATOM      4  C   UNL     1       3.928   4.612  17.521  0.00  0.00    +0.000 A 
ATOM      5  C   UNL     1       3.606   5.589  18.482  0.00  0.00    +0.000 A 
ATOM      6  C   UNL     1       2.710   5.305  19.526  0.00  0.00    +0.000 A 
ENDROOT
BRANCH   4   7
ATOM      7  C   UNL     1       4.864   4.856  16.386  0.00  0.00    +0.000 A 
ATOM      8  C   UNL     1       4.844   4.049  15.307  0.00  0.00    +0.000 A 
ATOM      9  C   UNL     1       5.785   4.238  14.213  0.00  0.00    +0.000 A 
ATOM     10  C   UNL     1       5.660   3.590  12.986  0.00  0.00    +0.000 A 
ATOM     11  C   UNL     1       6.629   3.782  11.992  0.00  0.00    +0.000 A 
ATOM     12  C   UNL     1       7.740   4.590  12.239  0.00  0.00    +0.000 A 
ATOM     13  C   UNL     1       7.869   5.239  13.465  0.00  0.00    +0.000 A 
ATOM     14  C   UNL     1       6.873   5.074  14.424  0.00  0.00    +0.000 A 
ATOM     15  O   UNL     1       6.967   5.841  15.593  0.00  0.00    +0.000 OA
ATOM     16  C   UNL     1       5.826   6.004  16.373  0.00  0.00    +0.000 A 
ATOM     17  O   UNL     1       5.672   7.016  17.045  0.00  0.00    +0.000 OA
ENDBRANCH   4   7
BRANCH   6  18
ATOM     18  N   UNL     1       2.472   6.270  20.513  0.00  0.00    +0.000 N 
ATOM     19  C   UNL     1       1.988   7.537  20.264  0.00  0.00    +0.000 C 
ATOM     20  O   UNL     1       1.622   8.240  21.209  0.00  0.00    +0.000 OA
ATOM     21  H   UNL     1       2.286   5.963  21.463  0.00  0.00    +0.000 HD
BRANCH  19  22
ATOM     22  C   UNL     1       1.873   8.017  18.811  0.00  0.00    +0.000 C 
BRANCH  22  23
ATOM     23  O   UNL     1       1.771   9.427  18.710  0.00  0.00    +0.000 OA
BRANCH  23  24
ATOM     24  C   UNL     1       0.518   9.983  18.766  0.00  0.00    +0.000 A 
ATOM     25  C   UNL     1      -0.320   9.550  17.724  0.00  0.00    +0.000 A 
ATOM     26  C   UNL     1      -1.612  10.060  17.571  0.00  0.00    +0.000 A 
ATOM     27  C   UNL     1      -2.080  11.012  18.465  0.00  0.00    +0.000 A 
ATOM     28 CL   UNL     1      -3.661  11.664  18.283  0.00  0.00    +0.000 Cl
ATOM     29  C   UNL     1      -1.262  11.457  19.501  0.00  0.00    +0.000 A 
ATOM     30  C   UNL     1       0.052  10.967  19.658  0.00  0.00    +0.000 A 
ATOM     31  C   UNL     1       0.870  11.584  20.755  0.00  0.00    +0.000 C 
ENDBRANCH  23  24
ENDBRANCH  22  23
ENDBRANCH  19  22
ENDBRANCH   6  18
BRANCH   1  33
ATOM     32  C   UNL     1       1.389   2.927  21.532  0.00  0.00    +0.000 C 
ATOM     33  O   UNL     1       1.074   3.892  20.527  0.00  0.00    +0.000 OA
ENDBRANCH   1  33
TORSDOF 6
ENDMDL
MODEL 5
REMARK VINA RESULT:      -8.4      3.321      8.481
REMARK  Name = 
REMARK  8 active torsions:
REMARK  status: ('A' for Active; 'I' for Inactive)
REMARK    1  A    between atoms: C_1  and  O_2
REMARK    2  A    between atoms: O_2  and  C_3
REMARK    3  A    between atoms: C_6  and  C_7
REMARK    4  A    between atoms: C_19  and  N_20
REMARK    5  A    between atoms: C_21  and  C_23
REMARK    6  A    between atoms: C_23  and  O_24
REMARK    7  A    between atoms: O_24  and  C_25
REMARK    8  A    between atoms: C_31  and  C_32
REMARK                            x       y       z     vdW  Elec       q    Type
REMARK                         _______ _______ _______ _____ _____    ______ ____
ROOT
ATOM      1  C   UNL     1       2.245   4.089  19.857  0.00  0.00    +0.000 A 
ATOM      2  C   UNL     1       2.780   3.051  19.096  0.00  0.00    +0.000 A 
ATOM      3  C   UNL     1       3.658   3.324  18.044  0.00  0.00    +0.000 A 
ATOM      4  C   UNL     1       4.013   4.641  17.703  0.00  0.00    +0.000 A 
ATOM      5  C   UNL     1       3.533   5.674  18.529  0.00  0.00    +0.000 A 
ATOM      6  C   UNL     1       2.692   5.395  19.619  0.00  0.00    +0.000 A 
ENDROOT
BRANCH   4   7
ATOM      7  C   UNL     1       4.901   4.877  16.528  0.00  0.00    +0.000 A 
ATOM      8  C   UNL     1       4.859   4.042  15.471  0.00  0.00    +0.000 A 
ATOM      9  C   UNL     1       5.754   4.224  14.337  0.00  0.00    +0.000 A 
ATOM     10  C   UNL     1       5.599   3.543  13.133  0.00  0.00    +0.000 A 
ATOM     11  C   UNL     1       6.526   3.730  12.099  0.00  0.00    +0.000 A 
ATOM     12  C   UNL     1       7.628   4.569  12.284  0.00  0.00    +0.000 A 
ATOM     13  C   UNL     1       7.787   5.251  13.488  0.00  0.00    +0.000 A 
ATOM     14  C   UNL     1       6.831   5.088  14.488  0.00  0.00    +0.000 A 
ATOM     15  O   UNL     1       6.950   5.887  15.633  0.00  0.00    +0.000 OA
ATOM     16  C   UNL     1       5.835   6.045  16.451  0.00  0.00    +0.000 A 
ATOM     17  O   UNL     1       5.684   7.070  17.104  0.00  0.00    +0.000 OA
ENDBRANCH   4   7
BRANCH   6  18
ATOM     18  N   UNL     1       2.297   6.433  20.471  0.00  0.00    +0.000 N 
ATOM     19  C   UNL     1       1.989   7.711  20.053  0.00  0.00    +0.000 C 
ATOM     20  O   UNL     1       1.460   8.494  20.844  0.00  0.00    +0.000 OA
ATOM     21  H   UNL     1       1.861   6.200  21.358  0.00  0.00    +0.000 HD
BRANCH  19  22
ATOM     22  C   UNL     1       2.270   8.104  18.597  0.00  0.00    +0.000 C 
BRANCH  22  23
ATOM     23  O   UNL     1       1.171   8.762  17.990  0.00  0.00    +0.000 OA
BRANCH  23  24
ATOM     24  C   UNL     1       1.059  10.118  18.169  0.00  0.00    +0.000 A 
ATOM     25  C   UNL     1       2.275  10.796  17.981  0.00  0.00    +0.000 A 
ATOM     26  C   UNL     1       2.379  12.175  18.189  0.00  0.00    +0.000 A 
ATOM     27  C   UNL     1       1.259  12.890  18.587  0.00  0.00    +0.000 A 
ATOM     28 CL   UNL     1       1.369  14.584  18.865  0.00  0.00    +0.000 Cl
ATOM     29  C   UNL     1       0.046  12.233  18.784  0.00  0.00    +0.000 A 
ATOM     30  C   UNL     1      -0.071  10.840  18.597  0.00  0.00    +0.000 A 
ATOM     31  C   UNL     1      -1.402  10.229  18.924  0.00  0.00    +0.000 C 
ENDBRANCH  23  24
ENDBRANCH  22  23
ENDBRANCH  19  22
ENDBRANCH   6  18
BRANCH   1  33
ATOM     32  C   UNL     1       1.512   2.711  21.617  0.00  0.00    +0.000 C 
ATOM     33  O   UNL     1       1.303   3.885  20.831  0.00  0.00    +0.000 OA
ENDBRANCH   1  33
TORSDOF 6
ENDMDL
MODEL 6
REMARK VINA RESULT:      -8.4      0.910      1.555
REMARK  Name = 
REMARK  8 active torsions:
REMARK  status: ('A' for Active; 'I' for Inactive)
REMARK    1  A    between atoms: C_1  and  O_2
REMARK    2  A    between atoms: O_2  and  C_3
REMARK    3  A    between atoms: C_6  and  C_7
REMARK    4  A    between atoms: C_19  and  N_20
REMARK    5  A    between atoms: C_21  and  C_23
REMARK    6  A    between atoms: C_23  and  O_24
REMARK    7  A    between atoms: O_24  and  C_25
REMARK    8  A    between atoms: C_31  and  C_32
REMARK                            x       y       z     vdW  Elec       q    Type
REMARK                         _______ _______ _______ _____ _____    ______ ____
ROOT
ATOM      1  C   UNL     1       3.757   3.424  19.358  0.00  0.00    +0.000 A 
ATOM      2  C   UNL     1       2.376   3.607  19.309  0.00  0.00    +0.000 A 
ATOM      3  C   UNL     1       1.825   4.883  19.446  0.00  0.00    +0.000 A 
ATOM      4  C   UNL     1       2.632   6.015  19.661  0.00  0.00    +0.000 A 
ATOM      5  C   UNL     1       4.027   5.830  19.625  0.00  0.00    +0.000 A 
ATOM      6  C   UNL     1       4.581   4.553  19.434  0.00  0.00    +0.000 A 
ENDROOT
BRANCH   4   7
ATOM      7  C   UNL     1       1.987   7.344  19.867  0.00  0.00    +0.000 A 
ATOM      8  C   UNL     1       1.396   7.633  21.043  0.00  0.00    +0.000 A 
ATOM      9  C   UNL     1       0.716   8.903  21.248  0.00  0.00    +0.000 A 
ATOM     10  C   UNL     1       0.297   9.345  22.500  0.00  0.00    +0.000 A 
ATOM     11  C   UNL     1      -0.396  10.557  22.618  0.00  0.00    +0.000 A 
ATOM     12  C   UNL     1      -0.702  11.307  21.480  0.00  0.00    +0.000 A 
ATOM     13  C   UNL     1      -0.284  10.868  20.226  0.00  0.00    +0.000 A 
ATOM     14  C   UNL     1       0.443   9.684  20.132  0.00  0.00    +0.000 A 
ATOM     15  O   UNL     1       0.959   9.339  18.876  0.00  0.00    +0.000 OA
ATOM     16  C   UNL     1       1.994   8.410  18.816  0.00  0.00    +0.000 A 
ATOM     17  O   UNL     1       2.816   8.454  17.909  0.00  0.00    +0.000 OA
ENDBRANCH   4   7
BRANCH   6  18
ATOM     18  N   UNL     1       5.970   4.412  19.322  0.00  0.00    +0.000 N 
ATOM     19  C   UNL     1       6.758   5.129  18.446  0.00  0.00    +0.000 C 
ATOM     20  O   UNL     1       7.985   5.082  18.561  0.00  0.00    +0.000 OA
ATOM     21  H   UNL     1       6.493   4.066  20.121  0.00  0.00    +0.000 HD
BRANCH  19  22
ATOM     22  C   UNL     1       6.081   6.005  17.383  0.00  0.00    +0.000 C 
BRANCH  22  23
ATOM     23  O   UNL     1       6.828   6.074  16.180  0.00  0.00    +0.000 OA
BRANCH  23  24
ATOM     24  C   UNL     1       6.529   5.175  15.189  0.00  0.00    +0.000 A 
ATOM     25  C   UNL     1       7.473   5.174  14.148  0.00  0.00    +0.000 A 
ATOM     26  C   UNL     1       7.305   4.376  13.013  0.00  0.00    +0.000 A 
ATOM     27  C   UNL     1       6.184   3.565  12.910  0.00  0.00    +0.000 A 
ATOM     28 CL   UNL     1       5.948   2.589  11.514  0.00  0.00    +0.000 Cl
ATOM     29  C   UNL     1       5.234   3.557  13.929  0.00  0.00    +0.000 A 
ATOM     30  C   UNL     1       5.379   4.371  15.073  0.00  0.00    +0.000 A 
ATOM     31  C   UNL     1       4.251   4.345  16.062  0.00  0.00    +0.000 C 
ENDBRANCH  23  24
ENDBRANCH  22  23
ENDBRANCH  19  22
ENDBRANCH   6  18
BRANCH   1  33
ATOM     32  C   UNL     1       3.702   1.249  18.463  0.00  0.00    +0.000 C 
ATOM     33  O   UNL     1       4.342   2.185  19.332  0.00  0.00    +0.000 OA
ENDBRANCH   1  33
TORSDOF 6
ENDMDL
MODEL 7
REMARK VINA RESULT:      -8.3      4.799     10.402
REMARK  Name = 
REMARK  8 active torsions:
REMARK  status: ('A' for Active; 'I' for Inactive)
REMARK    1  A    between atoms: C_1  and  O_2
REMARK    2  A    between atoms: O_2  and  C_3
REMARK    3  A    between atoms: C_6  and  C_7
REMARK    4  A    between atoms: C_19  and  N_20
REMARK    5  A    between atoms: C_21  and  C_23
REMARK    6  A    between atoms: C_23  and  O_24
REMARK    7  A    between atoms: O_24  and  C_25
REMARK    8  A    between atoms: C_31  and  C_32
REMARK                            x       y       z     vdW  Elec       q    Type
REMARK                         _______ _______ _______ _____ _____    ______ ____
ROOT
ATOM      1  C   UNL     1       0.194  10.288  21.159  0.00  0.00    +0.000 A 
ATOM      2  C   UNL     1       0.468   9.078  21.793  0.00  0.00    +0.000 A 
ATOM      3  C   UNL     1       1.206   8.087  21.142  0.00  0.00    +0.000 A 
ATOM      4  C   UNL     1       1.675   8.262  19.827  0.00  0.00    +0.000 A 
ATOM      5  C   UNL     1       1.464   9.518  19.228  0.00  0.00    +0.000 A 
ATOM      6  C   UNL     1       0.767  10.532  19.905  0.00  0.00    +0.000 A 
ENDROOT
BRANCH   4   7
ATOM      7  C   UNL     1       2.400   7.145  19.156  0.00  0.00    +0.000 A 
ATOM      8  C   UNL     1       3.201   7.397  18.101  0.00  0.00    +0.000 A 
ATOM      9  C   UNL     1       3.877   6.316  17.399  0.00  0.00    +0.000 A 
ATOM     10  C   UNL     1       4.885   6.534  16.464  0.00  0.00    +0.000 A 
ATOM     11  C   UNL     1       5.460   5.448  15.789  0.00  0.00    +0.000 A 
ATOM     12  C   UNL     1       5.001   4.150  16.024  0.00  0.00    +0.000 A 
ATOM     13  C   UNL     1       3.993   3.929  16.959  0.00  0.00    +0.000 A 
ATOM     14  C   UNL     1       3.464   5.014  17.653  0.00  0.00    +0.000 A 
ATOM     15  O   UNL     1       2.546   4.743  18.676  0.00  0.00    +0.000 OA
ATOM     16  C   UNL     1       2.307   5.728  19.631  0.00  0.00    +0.000 A 
ATOM     17  O   UNL     1       1.983   5.422  20.771  0.00  0.00    +0.000 OA
ENDBRANCH   4   7
BRANCH   6  18
ATOM     18  N   UNL     1       0.643  11.797  19.317  0.00  0.00    +0.000 N 
ATOM     19  C   UNL     1      -0.466  12.228  18.619  0.00  0.00    +0.000 C 
ATOM     20  O   UNL     1      -0.563  13.419  18.315  0.00  0.00    +0.000 OA
ATOM     21  H   UNL     1       1.189  12.567  19.692  0.00  0.00    +0.000 HD
BRANCH  19  22
ATOM     22  C   UNL     1      -1.573  11.219  18.286  0.00  0.00    +0.000 C 
BRANCH  22  23
ATOM     23  O   UNL     1      -2.761  11.845  17.833  0.00  0.00    +0.000 OA
BRANCH  23  24
ATOM     24  C   UNL     1      -3.886  11.718  18.608  0.00  0.00    +0.000 A 
ATOM     25  C   UNL     1      -4.856  10.880  18.032  0.00  0.00    +0.000 A 
ATOM     26  C   UNL     1      -6.100  10.683  18.638  0.00  0.00    +0.000 A 
ATOM     27  C   UNL     1      -6.385  11.326  19.834  0.00  0.00    +0.000 A 
ATOM     28 CL   UNL     1      -7.916  11.111  20.586  0.00  0.00    +0.000 Cl
ATOM     29  C   UNL     1      -5.438  12.165  20.417  0.00  0.00    +0.000 A 
ATOM     30  C   UNL     1      -4.185  12.390  19.808  0.00  0.00    +0.000 A 
ATOM     31  C   UNL     1      -3.282  13.382  20.481  0.00  0.00    +0.000 C 
ENDBRANCH  23  24
ENDBRANCH  22  23
ENDBRANCH  19  22
ENDBRANCH   6  18
BRANCH   1  33
ATOM     32  C   UNL     1      -1.138  10.910  22.995  0.00  0.00    +0.000 C 
ATOM     33  O   UNL     1      -0.610  11.250  21.712  0.00  0.00    +0.000 OA
ENDBRANCH   1  33
TORSDOF 6
ENDMDL
MODEL 8
REMARK VINA RESULT:      -8.1      4.673     10.180
REMARK  Name = 
REMARK  8 active torsions:
REMARK  status: ('A' for Active; 'I' for Inactive)
REMARK    1  A    between atoms: C_1  and  O_2
REMARK    2  A    between atoms: O_2  and  C_3
REMARK    3  A    between atoms: C_6  and  C_7
REMARK    4  A    between atoms: C_19  and  N_20
REMARK    5  A    between atoms: C_21  and  C_23
REMARK    6  A    between atoms: C_23  and  O_24
REMARK    7  A    between atoms: O_24  and  C_25
REMARK    8  A    between atoms: C_31  and  C_32
REMARK                            x       y       z     vdW  Elec       q    Type
REMARK                         _______ _______ _______ _____ _____    ______ ____
ROOT
ATOM      1  C   UNL     1       0.136   9.854  21.048  0.00  0.00    +0.000 A 
ATOM      2  C   UNL     1       0.429   8.624  21.635  0.00  0.00    +0.000 A 
ATOM      3  C   UNL     1       1.246   7.701  20.977  0.00  0.00    +0.000 A 
ATOM      4  C   UNL     1       1.777   7.965  19.702  0.00  0.00    +0.000 A 
ATOM      5  C   UNL     1       1.544   9.242  19.156  0.00  0.00    +0.000 A 
ATOM      6  C   UNL     1       0.766  10.188  19.842  0.00  0.00    +0.000 A 
ENDROOT
BRANCH   4   7
ATOM      7  C   UNL     1       2.588   6.917  19.018  0.00  0.00    +0.000 A 
ATOM      8  C   UNL     1       3.344   7.238  17.949  0.00  0.00    +0.000 A 
ATOM      9  C   UNL     1       4.102   6.221  17.235  0.00  0.00    +0.000 A 
ATOM     10  C   UNL     1       5.069   6.527  16.282  0.00  0.00    +0.000 A 
ATOM     11  C   UNL     1       5.727   5.496  15.597  0.00  0.00    +0.000 A 
ATOM     12  C   UNL     1       5.390   4.162  15.840  0.00  0.00    +0.000 A 
ATOM     13  C   UNL     1       4.423   3.853  16.792  0.00  0.00    +0.000 A 
ATOM     14  C   UNL     1       3.812   4.888  17.496  0.00  0.00    +0.000 A 
ATOM     15  O   UNL     1       2.940   4.537  18.535  0.00  0.00    +0.000 OA
ATOM     16  C   UNL     1       2.630   5.498  19.494  0.00  0.00    +0.000 A 
ATOM     17  O   UNL     1       2.355   5.166  20.640  0.00  0.00    +0.000 OA
ENDBRANCH   4   7
BRANCH   6  18
ATOM     18  N   UNL     1       0.619  11.476  19.313  0.00  0.00    +0.000 N 
ATOM     19  C   UNL     1      -0.403  11.861  18.470  0.00  0.00    +0.000 C 
ATOM     20  O   UNL     1      -0.562  13.058  18.221  0.00  0.00    +0.000 OA
ATOM     21  H   UNL     1       1.024  12.261  19.814  0.00  0.00    +0.000 HD
BRANCH  19  22
ATOM     22  C   UNL     1      -1.345  10.789  17.907  0.00  0.00    +0.000 C 
BRANCH  22  23
ATOM     23  O   UNL     1      -2.430  10.508  18.774  0.00  0.00    +0.000 OA
BRANCH  23  24
ATOM     24  C   UNL     1      -3.590  11.220  18.601  0.00  0.00    +0.000 A 
ATOM     25  C   UNL     1      -4.240  10.919  17.392  0.00  0.00    +0.000 A 
ATOM     26  C   UNL     1      -5.400  11.594  17.002  0.00  0.00    +0.000 A 
ATOM     27  C   UNL     1      -5.924  12.581  17.826  0.00  0.00    +0.000 A 
ATOM     28 CL   UNL     1      -7.340  13.436  17.357  0.00  0.00    +0.000 Cl
ATOM     29  C   UNL     1      -5.289  12.897  19.025  0.00  0.00    +0.000 A 
ATOM     30  C   UNL     1      -4.106  12.239  19.423  0.00  0.00    +0.000 A 
ATOM     31  C   UNL     1      -3.463  12.724  20.690  0.00  0.00    +0.000 C 
ENDBRANCH  23  24
ENDBRANCH  22  23
ENDBRANCH  19  22
ENDBRANCH   6  18
BRANCH   1  33
ATOM     32  C   UNL     1      -0.726  10.782  23.030  0.00  0.00    +0.000 C 
ATOM     33  O   UNL     1      -0.739  10.751  21.602  0.00  0.00    +0.000 OA
ENDBRANCH   1  33
TORSDOF 6
ENDMDL
MODEL 9
REMARK VINA RESULT:      -8.0      4.812     10.200
REMARK  Name = 
REMARK  8 active torsions:
REMARK  status: ('A' for Active; 'I' for Inactive)
REMARK    1  A    between atoms: C_1  and  O_2
REMARK    2  A    between atoms: O_2  and  C_3
REMARK    3  A    between atoms: C_6  and  C_7
REMARK    4  A    between atoms: C_19  and  N_20
REMARK    5  A    between atoms: C_21  and  C_23
REMARK    6  A    between atoms: C_23  and  O_24
REMARK    7  A    between atoms: O_24  and  C_25
REMARK    8  A    between atoms: C_31  and  C_32
REMARK                            x       y       z     vdW  Elec       q    Type
REMARK                         _______ _______ _______ _____ _____    ______ ____
ROOT
ATOM      1  C   UNL     1       0.680  10.482  21.400  0.00  0.00    +0.000 A 
ATOM      2  C   UNL     1       0.913   9.333  22.154  0.00  0.00    +0.000 A 
ATOM      3  C   UNL     1       1.393   8.170  21.546  0.00  0.00    +0.000 A 
ATOM      4  C   UNL     1       1.634   8.109  20.161  0.00  0.00    +0.000 A 
ATOM      5  C   UNL     1       1.475   9.298  19.424  0.00  0.00    +0.000 A 
ATOM      6  C   UNL     1       1.043  10.480  20.047  0.00  0.00    +0.000 A 
ENDROOT
BRANCH   4   7
ATOM      7  C   UNL     1       2.082   6.823  19.554  0.00  0.00    +0.000 A 
ATOM      8  C   UNL     1       1.576   5.654  19.997  0.00  0.00    +0.000 A 
ATOM      9  C   UNL     1       2.038   4.385  19.455  0.00  0.00    +0.000 A 
ATOM     10  C   UNL     1       1.394   3.176  19.704  0.00  0.00    +0.000 A 
ATOM     11  C   UNL     1       1.921   1.984  19.189  0.00  0.00    +0.000 A 
ATOM     12  C   UNL     1       3.111   1.998  18.458  0.00  0.00    +0.000 A 
ATOM     13  C   UNL     1       3.758   3.205  18.207  0.00  0.00    +0.000 A 
ATOM     14  C   UNL     1       3.196   4.385  18.687  0.00  0.00    +0.000 A 
ATOM     15  O   UNL     1       3.800   5.592  18.308  0.00  0.00    +0.000 OA
ATOM     16  C   UNL     1       3.064   6.768  18.426  0.00  0.00    +0.000 A 
ATOM     17  O   UNL     1       3.273   7.709  17.671  0.00  0.00    +0.000 OA
ENDBRANCH   4   7
BRANCH   6  18
ATOM     18  N   UNL     1       0.972  11.666  19.306  0.00  0.00    +0.000 N 
ATOM     19  C   UNL     1      -0.144  12.089  18.614  0.00  0.00    +0.000 C 
ATOM     20  O   UNL     1      -0.176  13.235  18.162  0.00  0.00    +0.000 OA
ATOM     21  H   UNL     1       1.591  12.433  19.550  0.00  0.00    +0.000 HD
BRANCH  19  22
ATOM     22  C   UNL     1      -1.335  11.132  18.471  0.00  0.00    +0.000 C 
BRANCH  22  23
ATOM     23  O   UNL     1      -2.344  11.372  19.437  0.00  0.00    +0.000 OA
BRANCH  23  24
ATOM     24  C   UNL     1      -3.581  11.760  18.989  0.00  0.00    +0.000 A 
ATOM     25  C   UNL     1      -3.779  11.485  17.625  0.00  0.00    +0.000 A 
ATOM     26  C   UNL     1      -4.950  11.871  16.967  0.00  0.00    +0.000 A 
ATOM     27  C   UNL     1      -5.940  12.539  17.673  0.00  0.00    +0.000 A 
ATOM     28 CL   UNL     1      -7.381  13.038  16.879  0.00  0.00    +0.000 Cl
ATOM     29  C   UNL     1      -5.759  12.826  19.025  0.00  0.00    +0.000 A 
ATOM     30  C   UNL     1      -4.574  12.460  19.698  0.00  0.00    +0.000 A 
ATOM     31  C   UNL     1      -4.454  12.900  21.128  0.00  0.00    +0.000 C 
ENDBRANCH  23  24
ENDBRANCH  22  23
ENDBRANCH  19  22
ENDBRANCH   6  18
BRANCH   1  33
ATOM     32  C   UNL     1      -0.973  11.368  22.819  0.00  0.00    +0.000 C 
ATOM     33  O   UNL     1       0.115  11.613  21.927  0.00  0.00    +0.000 OA
ENDBRANCH   1  33
TORSDOF 6
ENDMDL
