MODEL 1
REMARK VINA RESULT:      -8.7      0.000      0.000
REMARK  Name = 
REMARK  8 active torsions:
REMARK  status: ('A' for Active; 'I' for Inactive)
REMARK    1  A    between atoms: C_1  and  N_2
REMARK    2  A    between atoms: N_2  and  C_3
REMARK    3  A    between atoms: N_2  and  C_4
REMARK    4  A    between atoms: C_7  and  C_8
REMARK    5  A    between atoms: C_15  and  C_16
REMARK    6  A    between atoms: C_15  and  C_17
REMARK    7  A    between atoms: N_19  and  C_20
REMARK    8  A    between atoms: C_20  and  C_21
REMARK                            x       y       z     vdW  Elec       q    Type
REMARK                         _______ _______ _______ _____ _____    ______ ____
ROOT
ATOM      1  C   UNL     1       2.914   5.638  19.092  0.00  0.00    +0.000 A 
ATOM      2  C   UNL     1       2.053   4.544  19.311  0.00  0.00    +0.000 A 
ATOM      3  C   UNL     1       2.564   3.251  19.423  0.00  0.00    +0.000 A 
ATOM      4  N   UNL     1       3.873   2.950  19.335  0.00  0.00    +0.000 NA
ATOM      5  C   UNL     1       4.667   3.999  19.108  0.00  0.00    +0.000 A 
ATOM      6  C   UNL     1       4.267   5.313  18.971  0.00  0.00    +0.000 A 
ATOM      7  C   UNL     1       5.466   6.154  18.735  0.00  0.00    +0.000 C 
ATOM      8  C   UNL     1       6.586   5.097  18.748  0.00  0.00    +0.000 C 
ATOM      9  C   UNL     1       7.622   5.410  19.830  0.00  0.00    +0.000 C 
ATOM     10  O   UNL     1       6.027   3.796  19.030  0.00  0.00    +0.000 OA
ENDROOT
BRANCH   1  14
ATOM     11  C   UNL     1       1.285   9.703  18.913  0.00  0.00    +0.000 A 
ATOM     12  C   UNL     1       1.289   8.949  20.093  0.00  0.00    +0.000 A 
ATOM     13  C   UNL     1       1.827   7.648  20.152  0.00  0.00    +0.000 A 
ATOM     14  C   UNL     1       2.375   7.020  19.025  0.00  0.00    +0.000 A 
ATOM     15  C   UNL     1       2.371   7.772  17.849  0.00  0.00    +0.000 A 
ATOM     16  C   UNL     1       1.868   9.082  17.802  0.00  0.00    +0.000 A 
BRANCH  11  18
ATOM     17  C   UNL     1      -0.662  11.186  18.545  0.00  0.00    +0.000 C 
ATOM     18  N   UNL     1       0.751  10.986  18.841  0.00  0.00    +0.000 N 
ATOM     19  C   UNL     1       1.636  12.137  18.682  0.00  0.00    +0.000 C 
ENDBRANCH  11  18
ENDBRANCH   1  14
BRANCH   8  20
ATOM     20  C   UNL     1       7.321   5.035  17.385  0.00  0.00    +0.000 C 
ATOM     21  O   UNL     1       8.172   4.190  17.120  0.00  0.00    +0.000 OA
ATOM     22  N   UNL     1       6.859   5.947  16.458  0.00  0.00    +0.000 N 
ATOM     23  H   UNL     1       6.290   6.710  16.807  0.00  0.00    +0.000 HD
BRANCH  22  24
ATOM     24  C   UNL     1       7.400   6.035  15.120  0.00  0.00    +0.000 C 
BRANCH  24  25
ATOM     25  C   UNL     1       6.778   5.032  14.181  0.00  0.00    +0.000 A 
ATOM     26  C   UNL     1       5.474   4.557  14.411  0.00  0.00    +0.000 A 
ATOM     27  C   UNL     1       4.880   3.646  13.532  0.00  0.00    +0.000 A 
ATOM     28  C   UNL     1       5.591   3.198  12.425  0.00  0.00    +0.000 A 
ATOM     29  F   UNL     1       5.015   2.332  11.579  0.00  0.00    +0.000 F 
ATOM     30  C   UNL     1       6.884   3.648  12.195  0.00  0.00    +0.000 A 
ATOM     31  F   UNL     1       7.566   3.219  11.124  0.00  0.00    +0.000 F 
ATOM     32  C   UNL     1       7.484   4.556  13.065  0.00  0.00    +0.000 A 
ENDBRANCH  24  25
ENDBRANCH  22  24
ENDBRANCH   8  20
TORSDOF 5
ENDMDL
MODEL 2
REMARK VINA RESULT:      -8.7      1.123      1.308
REMARK  Name = 
REMARK  8 active torsions:
REMARK  status: ('A' for Active; 'I' for Inactive)
REMARK    1  A    between atoms: C_1  and  N_2
REMARK    2  A    between atoms: N_2  and  C_3
REMARK    3  A    between atoms: N_2  and  C_4
REMARK    4  A    between atoms: C_7  and  C_8
REMARK    5  A    between atoms: C_15  and  C_16
REMARK    6  A    between atoms: C_15  and  C_17
REMARK    7  A    between atoms: N_19  and  C_20
REMARK    8  A    between atoms: C_20  and  C_21
REMARK                            x       y       z     vdW  Elec       q    Type
REMARK                         _______ _______ _______ _____ _____    ______ ____
ROOT
ATOM      1  C   UNL     1       2.744   5.879  18.564  0.00  0.00    +0.000 A 
ATOM      2  C   UNL     1       1.934   4.726  18.548  0.00  0.00    +0.000 A 
ATOM      3  C   UNL     1       2.495   3.468  18.323  0.00  0.00    +0.000 A 
ATOM      4  N   UNL     1       3.807   3.258  18.108  0.00  0.00    +0.000 NA
ATOM      5  C   UNL     1       4.551   4.367  18.107  0.00  0.00    +0.000 A 
ATOM      6  C   UNL     1       4.099   5.656  18.310  0.00  0.00    +0.000 A 
ATOM      7  C   UNL     1       5.254   6.583  18.233  0.00  0.00    +0.000 C 
ATOM      8  C   UNL     1       6.409   5.608  17.943  0.00  0.00    +0.000 C 
ATOM      9  C   UNL     1       7.489   5.699  19.023  0.00  0.00    +0.000 C 
ATOM     10  O   UNL     1       5.911   4.253  17.925  0.00  0.00    +0.000 OA
ENDROOT
BRANCH   1  14
ATOM     11  C   UNL     1       0.969   9.788  19.449  0.00  0.00    +0.000 A 
ATOM     12  C   UNL     1       1.185   8.822  20.439  0.00  0.00    +0.000 A 
ATOM     13  C   UNL     1       1.770   7.571  20.156  0.00  0.00    +0.000 A 
ATOM     14  C   UNL     1       2.154   7.210  18.857  0.00  0.00    +0.000 A 
ATOM     15  C   UNL     1       1.940   8.173  17.870  0.00  0.00    +0.000 A 
ATOM     16  C   UNL     1       1.390   9.432  18.162  0.00  0.00    +0.000 A 
BRANCH  11  18
ATOM     17  C   UNL     1       0.757  11.774  20.909  0.00  0.00    +0.000 C 
ATOM     18  N   UNL     1       0.387  11.023  19.717  0.00  0.00    +0.000 N 
ATOM     19  C   UNL     1      -0.848  11.410  19.040  0.00  0.00    +0.000 C 
ENDBRANCH  11  18
ENDBRANCH   1  14
BRANCH   8  20
ATOM     20  C   UNL     1       7.073   5.909  16.575  0.00  0.00    +0.000 C 
ATOM     21  O   UNL     1       7.844   6.848  16.396  0.00  0.00    +0.000 OA
ATOM     22  N   UNL     1       6.805   4.967  15.602  0.00  0.00    +0.000 N 
ATOM     23  H   UNL     1       6.032   4.333  15.777  0.00  0.00    +0.000 HD
BRANCH  22  24
ATOM     24  C   UNL     1       7.346   5.056  14.266  0.00  0.00    +0.000 C 
BRANCH  24  25
ATOM     25  C   UNL     1       6.638   4.143  13.296  0.00  0.00    +0.000 A 
ATOM     26  C   UNL     1       5.233   4.113  13.245  0.00  0.00    +0.000 A 
ATOM     27  C   UNL     1       4.569   3.288  12.334  0.00  0.00    +0.000 A 
ATOM     28  C   UNL     1       5.306   2.481  11.475  0.00  0.00    +0.000 A 
ATOM     29  F   UNL     1       4.665   1.698  10.595  0.00  0.00    +0.000 F 
ATOM     30  C   UNL     1       6.693   2.491  11.524  0.00  0.00    +0.000 A 
ATOM     31  F   UNL     1       7.403   1.716  10.692  0.00  0.00    +0.000 F 
ATOM     32  C   UNL     1       7.364   3.310  12.431  0.00  0.00    +0.000 A 
ENDBRANCH  24  25
ENDBRANCH  22  24
ENDBRANCH   8  20
TORSDOF 5
ENDMDL
MODEL 3
REMARK VINA RESULT:      -8.7      0.198      1.063
REMARK  Name = 
REMARK  8 active torsions:
REMARK  status: ('A' for Active; 'I' for Inactive)
REMARK    1  A    between atoms: C_1  and  N_2
REMARK    2  A    between atoms: N_2  and  C_3
REMARK    3  A    between atoms: N_2  and  C_4
REMARK    4  A    between atoms: C_7  and  C_8
REMARK    5  A    between atoms: C_15  and  C_16
REMARK    6  A    between atoms: C_15  and  C_17
REMARK    7  A    between atoms: N_19  and  C_20
REMARK    8  A    between atoms: C_20  and  C_21
REMARK                            x       y       z     vdW  Elec       q    Type
REMARK                         _______ _______ _______ _____ _____    ______ ____
ROOT
ATOM      1  C   UNL     1       2.934   5.703  19.042  0.00  0.00    +0.000 A 
ATOM      2  C   UNL     1       2.059   4.619  19.257  0.00  0.00    +0.000 A 
ATOM      3  C   UNL     1       2.554   3.320  19.375  0.00  0.00    +0.000 A 
ATOM      4  N   UNL     1       3.860   3.004  19.296  0.00  0.00    +0.000 NA
ATOM      5  C   UNL     1       4.668   4.044  19.073  0.00  0.00    +0.000 A 
ATOM      6  C   UNL     1       4.284   5.362  18.931  0.00  0.00    +0.000 A 
ATOM      7  C   UNL     1       5.494   6.189  18.702  0.00  0.00    +0.000 C 
ATOM      8  C   UNL     1       6.602   5.119  18.724  0.00  0.00    +0.000 C 
ATOM      9  C   UNL     1       7.634   5.422  19.813  0.00  0.00    +0.000 C 
ATOM     10  O   UNL     1       6.026   3.826  19.004  0.00  0.00    +0.000 OA
ENDROOT
BRANCH   1  14
ATOM     11  C   UNL     1       1.431   9.814  18.813  0.00  0.00    +0.000 A 
ATOM     12  C   UNL     1       2.072   9.189  17.736  0.00  0.00    +0.000 A 
ATOM     13  C   UNL     1       2.541   7.862  17.806  0.00  0.00    +0.000 A 
ATOM     14  C   UNL     1       2.411   7.090  18.969  0.00  0.00    +0.000 A 
ATOM     15  C   UNL     1       1.771   7.713  20.043  0.00  0.00    +0.000 A 
ATOM     16  C   UNL     1       1.272   9.023  19.957  0.00  0.00    +0.000 A 
BRANCH  11  18
ATOM     17  C   UNL     1       1.892  12.227  18.513  0.00  0.00    +0.000 C 
ATOM     18  N   UNL     1       0.969  11.125  18.756  0.00  0.00    +0.000 N 
ATOM     19  C   UNL     1      -0.342  11.461  19.304  0.00  0.00    +0.000 C 
ENDBRANCH  11  18
ENDBRANCH   1  14
BRANCH   8  20
ATOM     20  C   UNL     1       7.345   5.047  17.367  0.00  0.00    +0.000 C 
ATOM     21  O   UNL     1       8.226   4.225  17.128  0.00  0.00    +0.000 OA
ATOM     22  N   UNL     1       6.857   5.917  16.413  0.00  0.00    +0.000 N 
ATOM     23  H   UNL     1       6.259   6.669  16.739  0.00  0.00    +0.000 HD
BRANCH  22  24
ATOM     24  C   UNL     1       7.401   5.988  15.076  0.00  0.00    +0.000 C 
BRANCH  24  25
ATOM     25  C   UNL     1       6.769   4.985  14.144  0.00  0.00    +0.000 A 
ATOM     26  C   UNL     1       5.452   4.542  14.364  0.00  0.00    +0.000 A 
ATOM     27  C   UNL     1       4.850   3.631  13.491  0.00  0.00    +0.000 A 
ATOM     28  C   UNL     1       5.565   3.151  12.400  0.00  0.00    +0.000 A 
ATOM     29  F   UNL     1       4.981   2.284  11.560  0.00  0.00    +0.000 F 
ATOM     30  C   UNL     1       6.870   3.570  12.180  0.00  0.00    +0.000 A 
ATOM     31  F   UNL     1       7.556   3.110  11.124  0.00  0.00    +0.000 F 
ATOM     32  C   UNL     1       7.479   4.477  13.045  0.00  0.00    +0.000 A 
ENDBRANCH  24  25
ENDBRANCH  22  24
ENDBRANCH   8  20
TORSDOF 5
ENDMDL
MODEL 4
REMARK VINA RESULT:      -8.6      1.156      1.582
REMARK  Name = 
REMARK  8 active torsions:
REMARK  status: ('A' for Active; 'I' for Inactive)
REMARK    1  A    between atoms: C_1  and  N_2
REMARK    2  A    between atoms: N_2  and  C_3
REMARK    3  A    between atoms: N_2  and  C_4
REMARK    4  A    between atoms: C_7  and  C_8
REMARK    5  A    between atoms: C_15  and  C_16
REMARK    6  A    between atoms: C_15  and  C_17
REMARK    7  A    between atoms: N_19  and  C_20
REMARK    8  A    between atoms: C_20  and  C_21
REMARK                            x       y       z     vdW  Elec       q    Type
REMARK                         _______ _______ _______ _____ _____    ______ ____
ROOT
ATOM      1  C   UNL     1       2.875   5.623  18.831  0.00  0.00    +0.000 A 
ATOM      2  C   UNL     1       2.106   4.443  18.802  0.00  0.00    +0.000 A 
ATOM      3  C   UNL     1       2.696   3.219  18.485  0.00  0.00    +0.000 A 
ATOM      4  N   UNL     1       4.002   3.068  18.191  0.00  0.00    +0.000 NA
ATOM      5  C   UNL     1       4.706   4.203  18.206  0.00  0.00    +0.000 A 
ATOM      6  C   UNL     1       4.221   5.463  18.495  0.00  0.00    +0.000 A 
ATOM      7  C   UNL     1       5.338   6.435  18.403  0.00  0.00    +0.000 C 
ATOM      8  C   UNL     1       6.508   5.518  18.005  0.00  0.00    +0.000 C 
ATOM      9  C   UNL     1       7.642   5.598  19.030  0.00  0.00    +0.000 C 
ATOM     10  O   UNL     1       6.057   4.147  17.947  0.00  0.00    +0.000 OA
ENDROOT
BRANCH   1  14
ATOM     11  C   UNL     1       1.085   9.462  19.959  0.00  0.00    +0.000 A 
ATOM     12  C   UNL     1       1.522   9.194  18.656  0.00  0.00    +0.000 A 
ATOM     13  C   UNL     1       2.083   7.953  18.291  0.00  0.00    +0.000 A 
ATOM     14  C   UNL     1       2.257   6.916  19.219  0.00  0.00    +0.000 A 
ATOM     15  C   UNL     1       1.820   7.184  20.518  0.00  0.00    +0.000 A 
ATOM     16  C   UNL     1       1.228   8.408  20.869  0.00  0.00    +0.000 A 
BRANCH  11  18
ATOM     17  C   UNL     1       0.922  11.912  19.647  0.00  0.00    +0.000 C 
ATOM     18  N   UNL     1       0.535  10.685  20.331  0.00  0.00    +0.000 N 
ATOM     19  C   UNL     1      -0.128  10.823  21.625  0.00  0.00    +0.000 C 
ENDBRANCH  11  18
ENDBRANCH   1  14
BRANCH   8  20
ATOM     20  C   UNL     1       7.086   5.907  16.621  0.00  0.00    +0.000 C 
ATOM     21  O   UNL     1       7.780   6.904  16.440  0.00  0.00    +0.000 OA
ATOM     22  N   UNL     1       6.840   4.978  15.630  0.00  0.00    +0.000 N 
ATOM     23  H   UNL     1       6.123   4.285  15.816  0.00  0.00    +0.000 HD
BRANCH  22  24
ATOM     24  C   UNL     1       7.313   5.147  14.274  0.00  0.00    +0.000 C 
BRANCH  24  25
ATOM     25  C   UNL     1       6.649   4.194  13.311  0.00  0.00    +0.000 A 
ATOM     26  C   UNL     1       5.246   4.105  13.254  0.00  0.00    +0.000 A 
ATOM     27  C   UNL     1       4.621   3.243  12.348  0.00  0.00    +0.000 A 
ATOM     28  C   UNL     1       5.396   2.459  11.502  0.00  0.00    +0.000 A 
ATOM     29  F   UNL     1       4.794   1.640  10.627  0.00  0.00    +0.000 F 
ATOM     30  C   UNL     1       6.782   2.527  11.558  0.00  0.00    +0.000 A 
ATOM     31  F   UNL     1       7.527   1.774  10.738  0.00  0.00    +0.000 F 
ATOM     32  C   UNL     1       7.413   3.383  12.459  0.00  0.00    +0.000 A 
ENDBRANCH  24  25
ENDBRANCH  22  24
ENDBRANCH   8  20
TORSDOF 5
ENDMDL
MODEL 5
REMARK VINA RESULT:      -8.5      1.327      1.767
REMARK  Name = 
REMARK  8 active torsions:
REMARK  status: ('A' for Active; 'I' for Inactive)
REMARK    1  A    between atoms: C_1  and  N_2
REMARK    2  A    between atoms: N_2  and  C_3
REMARK    3  A    between atoms: N_2  and  C_4
REMARK    4  A    between atoms: C_7  and  C_8
REMARK    5  A    between atoms: C_15  and  C_16
REMARK    6  A    between atoms: C_15  and  C_17
REMARK    7  A    between atoms: N_19  and  C_20
REMARK    8  A    between atoms: C_20  and  C_21
REMARK                            x       y       z     vdW  Elec       q    Type
REMARK                         _______ _______ _______ _____ _____    ______ ____
ROOT
ATOM      1  C   UNL     1       2.659   5.777  18.292  0.00  0.00    +0.000 A 
ATOM      2  C   UNL     1       1.773   4.686  18.189  0.00  0.00    +0.000 A 
ATOM      3  C   UNL     1       2.246   3.418  17.848  0.00  0.00    +0.000 A 
ATOM      4  N   UNL     1       3.539   3.141  17.596  0.00  0.00    +0.000 NA
ATOM      5  C   UNL     1       4.356   4.194  17.680  0.00  0.00    +0.000 A 
ATOM      6  C   UNL     1       3.994   5.487  17.999  0.00  0.00    +0.000 A 
ATOM      7  C   UNL     1       5.208   6.339  17.986  0.00  0.00    +0.000 C 
ATOM      8  C   UNL     1       6.292   5.317  17.595  0.00  0.00    +0.000 C 
ATOM      9  C   UNL     1       7.385   5.243  18.664  0.00  0.00    +0.000 C 
ATOM     10  O   UNL     1       5.704   4.005  17.468  0.00  0.00    +0.000 OA
ENDROOT
BRANCH   1  14
ATOM     11  C   UNL     1       1.161   9.703  19.537  0.00  0.00    +0.000 A 
ATOM     12  C   UNL     1       1.358   8.655  20.444  0.00  0.00    +0.000 A 
ATOM     13  C   UNL     1       1.855   7.398  20.044  0.00  0.00    +0.000 A 
ATOM     14  C   UNL     1       2.163   7.113  18.706  0.00  0.00    +0.000 A 
ATOM     15  C   UNL     1       1.967   8.159  17.802  0.00  0.00    +0.000 A 
ATOM     16  C   UNL     1       1.508   9.422  18.210  0.00  0.00    +0.000 A 
BRANCH  11  18
ATOM     17  C   UNL     1      -0.738  11.109  20.273  0.00  0.00    +0.000 C 
ATOM     18  N   UNL     1       0.666  10.947  19.919  0.00  0.00    +0.000 N 
ATOM     19  C   UNL     1       1.423  12.158  19.614  0.00  0.00    +0.000 C 
ENDBRANCH  11  18
ENDBRANCH   1  14
BRANCH   8  20
ATOM     20  C   UNL     1       6.962   5.691  16.249  0.00  0.00    +0.000 C 
ATOM     21  O   UNL     1       7.852   6.532  16.154  0.00  0.00    +0.000 OA
ATOM     22  N   UNL     1       6.546   4.920  15.183  0.00  0.00    +0.000 N 
ATOM     23  H   UNL     1       5.697   4.379  15.309  0.00  0.00    +0.000 HD
BRANCH  22  24
ATOM     24  C   UNL     1       7.067   5.098  13.847  0.00  0.00    +0.000 C 
BRANCH  24  25
ATOM     25  C   UNL     1       6.590   4.028  12.896  0.00  0.00    +0.000 A 
ATOM     26  C   UNL     1       7.513   3.161  12.282  0.00  0.00    +0.000 A 
ATOM     27  C   UNL     1       7.078   2.152  11.419  0.00  0.00    +0.000 A 
ATOM     28  C   UNL     1       5.721   2.010  11.156  0.00  0.00    +0.000 A 
ATOM     29  F   UNL     1       5.307   1.035  10.335  0.00  0.00    +0.000 F 
ATOM     30  C   UNL     1       4.801   2.869  11.744  0.00  0.00    +0.000 A 
ATOM     31  F   UNL     1       3.492   2.727  11.494  0.00  0.00    +0.000 F 
ATOM     32  C   UNL     1       5.225   3.878  12.606  0.00  0.00    +0.000 A 
ENDBRANCH  24  25
ENDBRANCH  22  24
ENDBRANCH   8  20
TORSDOF 5
ENDMDL
MODEL 6
REMARK VINA RESULT:      -8.5      1.344      2.038
REMARK  Name = 
REMARK  8 active torsions:
REMARK  status: ('A' for Active; 'I' for Inactive)
REMARK    1  A    between atoms: C_1  and  N_2
REMARK    2  A    between atoms: N_2  and  C_3
REMARK    3  A    between atoms: N_2  and  C_4
REMARK    4  A    between atoms: C_7  and  C_8
REMARK    5  A    between atoms: C_15  and  C_16
REMARK    6  A    between atoms: C_15  and  C_17
REMARK    7  A    between atoms: N_19  and  C_20
REMARK    8  A    between atoms: C_20  and  C_21
REMARK                            x       y       z     vdW  Elec       q    Type
REMARK                         _______ _______ _______ _____ _____    ______ ____
ROOT
ATOM      1  C   UNL     1       2.660   5.740  18.315  0.00  0.00    +0.000 A 
ATOM      2  C   UNL     1       1.779   4.645  18.212  0.00  0.00    +0.000 A 
ATOM      3  C   UNL     1       2.258   3.381  17.865  0.00  0.00    +0.000 A 
ATOM      4  N   UNL     1       3.551   3.111  17.608  0.00  0.00    +0.000 NA
ATOM      5  C   UNL     1       4.363   4.168  17.693  0.00  0.00    +0.000 A 
ATOM      6  C   UNL     1       3.995   5.458  18.018  0.00  0.00    +0.000 A 
ATOM      7  C   UNL     1       5.205   6.316  18.003  0.00  0.00    +0.000 C 
ATOM      8  C   UNL     1       6.293   5.302  17.606  0.00  0.00    +0.000 C 
ATOM      9  C   UNL     1       7.390   5.229  18.670  0.00  0.00    +0.000 C 
ATOM     10  O   UNL     1       5.711   3.987  17.476  0.00  0.00    +0.000 OA
ENDROOT
BRANCH   1  14
ATOM     11  C   UNL     1       1.216   9.694  19.537  0.00  0.00    +0.000 A 
ATOM     12  C   UNL     1       1.535   9.391  18.208  0.00  0.00    +0.000 A 
ATOM     13  C   UNL     1       1.984   8.115  17.814  0.00  0.00    +0.000 A 
ATOM     14  C   UNL     1       2.159   7.073  18.736  0.00  0.00    +0.000 A 
ATOM     15  C   UNL     1       1.840   7.374  20.061  0.00  0.00    +0.000 A 
ATOM     16  C   UNL     1       1.357   8.637  20.444  0.00  0.00    +0.000 A 
BRANCH  11  18
ATOM     17  C   UNL     1       1.292  12.156  19.299  0.00  0.00    +0.000 C 
ATOM     18  N   UNL     1       0.776  10.952  19.938  0.00  0.00    +0.000 N 
ATOM     19  C   UNL     1       0.103  11.114  21.224  0.00  0.00    +0.000 C 
ENDBRANCH  11  18
ENDBRANCH   1  14
BRANCH   8  20
ATOM     20  C   UNL     1       6.957   5.684  16.259  0.00  0.00    +0.000 C 
ATOM     21  O   UNL     1       7.835   6.536  16.162  0.00  0.00    +0.000 OA
ATOM     22  N   UNL     1       6.550   4.907  15.193  0.00  0.00    +0.000 N 
ATOM     23  H   UNL     1       5.708   4.355  15.321  0.00  0.00    +0.000 HD
BRANCH  22  24
ATOM     24  C   UNL     1       7.067   5.091  13.856  0.00  0.00    +0.000 C 
BRANCH  24  25
ATOM     25  C   UNL     1       6.592   4.022  12.903  0.00  0.00    +0.000 A 
ATOM     26  C   UNL     1       7.514   3.150  12.297  0.00  0.00    +0.000 A 
ATOM     27  C   UNL     1       7.081   2.142  11.431  0.00  0.00    +0.000 A 
ATOM     28  C   UNL     1       5.725   2.007  11.159  0.00  0.00    +0.000 A 
ATOM     29  F   UNL     1       5.312   1.033  10.336  0.00  0.00    +0.000 F 
ATOM     30  C   UNL     1       4.805   2.871  11.740  0.00  0.00    +0.000 A 
ATOM     31  F   UNL     1       3.497   2.736  11.480  0.00  0.00    +0.000 F 
ATOM     32  C   UNL     1       5.228   3.880  12.603  0.00  0.00    +0.000 A 
ENDBRANCH  24  25
ENDBRANCH  22  24
ENDBRANCH   8  20
TORSDOF 5
ENDMDL
MODEL 7
REMARK VINA RESULT:      -8.2      1.465      2.231
REMARK  Name = 
REMARK  8 active torsions:
REMARK  status: ('A' for Active; 'I' for Inactive)
REMARK    1  A    between atoms: C_1  and  N_2
REMARK    2  A    between atoms: N_2  and  C_3
REMARK    3  A    between atoms: N_2  and  C_4
REMARK    4  A    between atoms: C_7  and  C_8
REMARK    5  A    between atoms: C_15  and  C_16
REMARK    6  A    between atoms: C_15  and  C_17
REMARK    7  A    between atoms: N_19  and  C_20
REMARK    8  A    between atoms: C_20  and  C_21
REMARK                            x       y       z     vdW  Elec       q    Type
REMARK                         _______ _______ _______ _____ _____    ______ ____
ROOT
ATOM      1  C   UNL     1       2.838   5.609  18.792  0.00  0.00    +0.000 A 
ATOM      2  C   UNL     1       2.217   4.402  19.169  0.00  0.00    +0.000 A 
ATOM      3  C   UNL     1       2.803   3.175  18.853  0.00  0.00    +0.000 A 
ATOM      4  N   UNL     1       3.966   3.046  18.187  0.00  0.00    +0.000 NA
ATOM      5  C   UNL     1       4.525   4.203  17.824  0.00  0.00    +0.000 A 
ATOM      6  C   UNL     1       4.028   5.467  18.075  0.00  0.00    +0.000 A 
ATOM      7  C   UNL     1       4.962   6.468  17.504  0.00  0.00    +0.000 C 
ATOM      8  C   UNL     1       6.042   5.560  16.887  0.00  0.00    +0.000 C 
ATOM      9  C   UNL     1       7.419   5.863  17.482  0.00  0.00    +0.000 C 
ATOM     10  O   UNL     1       5.732   4.177  17.162  0.00  0.00    +0.000 OA
ENDROOT
BRANCH   1  14
ATOM     11  C   UNL     1       1.113   9.483  19.903  0.00  0.00    +0.000 A 
ATOM     12  C   UNL     1       1.556   9.205  18.604  0.00  0.00    +0.000 A 
ATOM     13  C   UNL     1       2.096   7.954  18.245  0.00  0.00    +0.000 A 
ATOM     14  C   UNL     1       2.242   6.914  19.175  0.00  0.00    +0.000 A 
ATOM     15  C   UNL     1       1.800   7.191  20.469  0.00  0.00    +0.000 A 
ATOM     16  C   UNL     1       1.228   8.426  20.815  0.00  0.00    +0.000 A 
BRANCH  11  18
ATOM     17  C   UNL     1       0.164  10.963  21.644  0.00  0.00    +0.000 C 
ATOM     18  N   UNL     1       0.584  10.716  20.270  0.00  0.00    +0.000 N 
ATOM     19  C   UNL     1       0.091  11.633  19.246  0.00  0.00    +0.000 C 
ENDBRANCH  11  18
ENDBRANCH   1  14
BRANCH   8  20
ATOM     20  C   UNL     1       6.131   5.750  15.352  0.00  0.00    +0.000 C 
ATOM     21  O   UNL     1       5.377   6.488  14.723  0.00  0.00    +0.000 OA
ATOM     22  N   UNL     1       7.199   5.101  14.767  0.00  0.00    +0.000 N 
ATOM     23  H   UNL     1       7.659   4.384  15.318  0.00  0.00    +0.000 HD
BRANCH  22  24
ATOM     24  C   UNL     1       7.468   5.171  13.349  0.00  0.00    +0.000 C 
BRANCH  24  25
ATOM     25  C   UNL     1       6.865   4.015  12.591  0.00  0.00    +0.000 A 
ATOM     26  C   UNL     1       7.692   3.022  12.034  0.00  0.00    +0.000 A 
ATOM     27  C   UNL     1       7.141   1.935  11.351  0.00  0.00    +0.000 A 
ATOM     28  C   UNL     1       5.762   1.840  11.211  0.00  0.00    +0.000 A 
ATOM     29  F   UNL     1       5.236   0.790  10.563  0.00  0.00    +0.000 F 
ATOM     30  C   UNL     1       4.935   2.820  11.743  0.00  0.00    +0.000 A 
ATOM     31  F   UNL     1       3.605   2.724  11.612  0.00  0.00    +0.000 F 
ATOM     32  C   UNL     1       5.475   3.909  12.426  0.00  0.00    +0.000 A 
ENDBRANCH  24  25
ENDBRANCH  22  24
ENDBRANCH   8  20
TORSDOF 5
ENDMDL
MODEL 8
REMARK VINA RESULT:      -8.0      4.765      6.081
REMARK  Name = 
REMARK  8 active torsions:
REMARK  status: ('A' for Active; 'I' for Inactive)
REMARK    1  A    between atoms: C_1  and  N_2
REMARK    2  A    between atoms: N_2  and  C_3
REMARK    3  A    between atoms: N_2  and  C_4
REMARK    4  A    between atoms: C_7  and  C_8
REMARK    5  A    between atoms: C_15  and  C_16
REMARK    6  A    between atoms: C_15  and  C_17
REMARK    7  A    between atoms: N_19  and  C_20
REMARK    8  A    between atoms: C_20  and  C_21
REMARK                            x       y       z     vdW  Elec       q    Type
REMARK                         _______ _______ _______ _____ _____    ______ ____
ROOT
ATOM      1  C   UNL     1       3.001   5.758  18.478  0.00  0.00    +0.000 A 
ATOM      2  C   UNL     1       2.323   4.746  17.770  0.00  0.00    +0.000 A 
ATOM      3  C   UNL     1       3.034   3.791  17.044  0.00  0.00    +0.000 A 
ATOM      4  N   UNL     1       4.377   3.756  16.960  0.00  0.00    +0.000 NA
ATOM      5  C   UNL     1       4.997   4.736  17.622  0.00  0.00    +0.000 A 
ATOM      6  C   UNL     1       4.393   5.734  18.361  0.00  0.00    +0.000 A 
ATOM      7  C   UNL     1       5.447   6.608  18.932  0.00  0.00    +0.000 C 
ATOM      8  C   UNL     1       6.723   5.946  18.381  0.00  0.00    +0.000 C 
ATOM      9  C   UNL     1       7.651   5.513  19.519  0.00  0.00    +0.000 C 
ATOM     10  O   UNL     1       6.374   4.770  17.620  0.00  0.00    +0.000 OA
ENDROOT
BRANCH   1  14
ATOM     11  C   UNL     1       0.807   8.695  20.881  0.00  0.00    +0.000 A 
ATOM     12  C   UNL     1       1.313   8.995  19.610  0.00  0.00    +0.000 A 
ATOM     13  C   UNL     1       2.005   8.045  18.832  0.00  0.00    +0.000 A 
ATOM     14  C   UNL     1       2.247   6.743  19.294  0.00  0.00    +0.000 A 
ATOM     15  C   UNL     1       1.741   6.444  20.560  0.00  0.00    +0.000 A 
ATOM     16  C   UNL     1       1.020   7.382  21.317  0.00  0.00    +0.000 A 
BRANCH  11  18
ATOM     17  C   UNL     1      -0.148  10.963  21.146  0.00  0.00    +0.000 C 
ATOM     18  N   UNL     1       0.127   9.627  21.659  0.00  0.00    +0.000 N 
ATOM     19  C   UNL     1       0.015   9.429  23.102  0.00  0.00    +0.000 C 
ENDBRANCH  11  18
ENDBRANCH   1  14
BRANCH   8  20
ATOM     20  C   UNL     1       7.510   6.914  17.463  0.00  0.00    +0.000 C 
ATOM     21  O   UNL     1       7.768   6.663  16.288  0.00  0.00    +0.000 OA
ATOM     22  N   UNL     1       7.804   8.128  18.049  0.00  0.00    +0.000 N 
ATOM     23  H   UNL     1       7.714   8.186  19.058  0.00  0.00    +0.000 HD
BRANCH  22  24
ATOM     24  C   UNL     1       8.514   9.175  17.350  0.00  0.00    +0.000 C 
BRANCH  24  25
ATOM     25  C   UNL     1       8.892  10.319  18.259  0.00  0.00    +0.000 A 
ATOM     26  C   UNL     1       9.278  10.072  19.589  0.00  0.00    +0.000 A 
ATOM     27  C   UNL     1       9.653  11.123  20.430  0.00  0.00    +0.000 A 
ATOM     28  C   UNL     1       9.635  12.427  19.950  0.00  0.00    +0.000 A 
ATOM     29  F   UNL     1      10.004  13.431  20.757  0.00  0.00    +0.000 F 
ATOM     30  C   UNL     1       9.242  12.685  18.643  0.00  0.00    +0.000 A 
ATOM     31  F   UNL     1       9.229  13.943  18.180  0.00  0.00    +0.000 F 
ATOM     32  C   UNL     1       8.865  11.644  17.797  0.00  0.00    +0.000 A 
ENDBRANCH  24  25
ENDBRANCH  22  24
ENDBRANCH   8  20
TORSDOF 5
ENDMDL
MODEL 9
REMARK VINA RESULT:      -8.0      4.964      8.174
REMARK  Name = 
REMARK  8 active torsions:
REMARK  status: ('A' for Active; 'I' for Inactive)
REMARK    1  A    between atoms: C_1  and  N_2
REMARK    2  A    between atoms: N_2  and  C_3
REMARK    3  A    between atoms: N_2  and  C_4
REMARK    4  A    between atoms: C_7  and  C_8
REMARK    5  A    between atoms: C_15  and  C_16
REMARK    6  A    between atoms: C_15  and  C_17
REMARK    7  A    between atoms: N_19  and  C_20
REMARK    8  A    between atoms: C_20  and  C_21
REMARK                            x       y       z     vdW  Elec       q    Type
REMARK                         _______ _______ _______ _____ _____    ______ ____
ROOT
ATOM      1  C   UNL     1      -0.492  12.923  20.382  0.00  0.00    +0.000 A 
ATOM      2  C   UNL     1       0.262  14.112  20.324  0.00  0.00    +0.000 A 
ATOM      3  C   UNL     1       1.508  14.132  19.697  0.00  0.00    +0.000 A 
ATOM      4  N   UNL     1       2.075  13.058  19.118  0.00  0.00    +0.000 NA
ATOM      5  C   UNL     1       1.352  11.939  19.203  0.00  0.00    +0.000 A 
ATOM      6  C   UNL     1       0.118  11.806  19.806  0.00  0.00    +0.000 A 
ATOM      7  C   UNL     1      -0.331  10.399  19.668  0.00  0.00    +0.000 C 
ATOM      8  C   UNL     1       0.855   9.774  18.910  0.00  0.00    +0.000 C 
ATOM      9  C   UNL     1       0.396   9.162  17.584  0.00  0.00    +0.000 C 
ATOM     10  O   UNL     1       1.836  10.791  18.614  0.00  0.00    +0.000 OA
ENDROOT
BRANCH   1  14
ATOM     11  C   UNL     1      -4.461  12.863  22.240  0.00  0.00    +0.000 A 
ATOM     12  C   UNL     1      -3.282  12.909  22.994  0.00  0.00    +0.000 A 
ATOM     13  C   UNL     1      -2.007  12.944  22.395  0.00  0.00    +0.000 A 
ATOM     14  C   UNL     1      -1.840  12.915  21.003  0.00  0.00    +0.000 A 
ATOM     15  C   UNL     1      -3.016  12.870  20.251  0.00  0.00    +0.000 A 
ATOM     16  C   UNL     1      -4.286  12.873  20.851  0.00  0.00    +0.000 A 
BRANCH  11  18
ATOM     17  C   UNL     1      -5.877  12.571  24.248  0.00  0.00    +0.000 C 
ATOM     18  N   UNL     1      -5.725  12.823  22.821  0.00  0.00    +0.000 N 
ATOM     19  C   UNL     1      -6.908  12.653  21.983  0.00  0.00    +0.000 C 
ENDBRANCH  11  18
ENDBRANCH   1  14
BRANCH   8  20
ATOM     20  C   UNL     1       1.534   8.659  19.743  0.00  0.00    +0.000 C 
ATOM     21  O   UNL     1       1.333   8.501  20.944  0.00  0.00    +0.000 OA
ATOM     22  N   UNL     1       2.304   7.791  18.995  0.00  0.00    +0.000 N 
ATOM     23  H   UNL     1       2.557   8.089  18.059  0.00  0.00    +0.000 HD
BRANCH  22  24
ATOM     24  C   UNL     1       3.005   6.672  19.583  0.00  0.00    +0.000 C 
BRANCH  24  25
ATOM     25  C   UNL     1       2.290   5.363  19.357  0.00  0.00    +0.000 A 
ATOM     26  C   UNL     1       2.063   4.894  18.050  0.00  0.00    +0.000 A 
ATOM     27  C   UNL     1       1.422   3.671  17.831  0.00  0.00    +0.000 A 
ATOM     28  C   UNL     1       0.997   2.915  18.917  0.00  0.00    +0.000 A 
ATOM     29  F   UNL     1       0.392   1.738  18.703  0.00  0.00    +0.000 F 
ATOM     30  C   UNL     1       1.202   3.373  20.212  0.00  0.00    +0.000 A 
ATOM     31  F   UNL     1       0.796   2.641  21.258  0.00  0.00    +0.000 F 
ATOM     32  C   UNL     1       1.839   4.592  20.440  0.00  0.00    +0.000 A 
ENDBRANCH  24  25
ENDBRANCH  22  24
ENDBRANCH   8  20
TORSDOF 5
ENDMDL
