MODEL 1
REMARK VINA RESULT:      -7.8      0.000      0.000
REMARK  Name = 
REMARK  9 active torsions:
REMARK  status: ('A' for Active; 'I' for Inactive)
REMARK    1  A    between atoms: C_1  and  C_2
REMARK    2  A    between atoms: C_2  and  C_3
REMARK    3  A    between atoms: C_2  and  C_4
REMARK    4  A    between atoms: C_2  and  O_5
REMARK    5  A    between atoms: O_5  and  C_6
REMARK    6  A    between atoms: C_10  and  C_11
REMARK    7  A    between atoms: C_14  and  N_15
REMARK    8  A    between atoms: N_15  and  C_16
REMARK    9  A    between atoms: C_16  and  C_17
REMARK                            x       y       z     vdW  Elec       q    Type
REMARK                         _______ _______ _______ _____ _____    ______ ____
ROOT
ATOM      1  C   UNL     1       3.814   3.833  17.954  0.00  0.00    +0.000 C 
ATOM      2  O   UNL     1       4.006   2.752  18.499  0.00  0.00    +0.000 OA
ATOM      3  N   UNL     1       3.187   4.871  18.646  0.00  0.00    +0.000 N 
ATOM      4  C   UNL     1       2.878   6.142  18.197  0.00  0.00    +0.000 A 
ATOM      5  C   UNL     1       2.258   6.781  19.250  0.00  0.00    +0.000 A 
ATOM      6  N   UNL     1       2.172   5.939  20.332  0.00  0.00    +0.000 NA
ATOM      7  C   UNL     1       2.741   4.816  19.964  0.00  0.00    +0.000 A 
ATOM      8  N   UNL     1       2.893   3.734  20.742  0.00  0.00    +0.000 N 
ATOM      9  H   UNL     1       2.392   3.687  21.621  0.00  0.00    +0.000 HD
ATOM     10  H   UNL     1       3.188   2.839  20.350  0.00  0.00    +0.000 HD
ENDROOT
BRANCH   5  11
ATOM     11  C   UNL     1       1.765   8.151  19.263  0.00  0.00    +0.000 A 
ATOM     12  C   UNL     1       1.154   8.693  20.395  0.00  0.00    +0.000 A 
ATOM     13  C   UNL     1       0.647   9.999  20.377  0.00  0.00    +0.000 A 
ATOM     14  C   UNL     1       0.765  10.817  19.248  0.00  0.00    +0.000 A 
ATOM     15  C   UNL     1       1.364  10.266  18.110  0.00  0.00    +0.000 A 
ATOM     16  C   UNL     1       1.866   8.953  18.121  0.00  0.00    +0.000 A 
BRANCH  14  17
ATOM     17  N   UNL     1       0.148  12.072  19.271  0.00  0.00    +0.000 N 
ATOM     18  H   UNL     1       0.494  12.667  18.520  0.00  0.00    +0.000 HD
BRANCH  17  19
ATOM     19  C   UNL     1      -1.307  12.145  19.324  0.00  0.00    +0.000 C 
BRANCH  19  20
ATOM     20  C   UNL     1      -1.918  11.386  18.191  0.00  0.00    +0.000 A 
ATOM     21  C   UNL     1      -2.456  10.116  18.119  0.00  0.00    +0.000 A 
ATOM     22  C   UNL     1      -2.873   9.902  16.783  0.00  0.00    +0.000 A 
ATOM     23  C   UNL     1      -2.579  11.044  16.074  0.00  0.00    +0.000 A 
ATOM     24  N   UNL     1      -2.002  11.939  16.934  0.00  0.00    +0.000 N 
ATOM     25  H   UNL     1      -1.657  12.860  16.690  0.00  0.00    +0.000 HD
ENDBRANCH  19  20
ENDBRANCH  17  19
ENDBRANCH  14  17
ENDBRANCH   5  11
BRANCH   1  26
ATOM     26  O   UNL     1       4.151   4.198  16.682  0.00  0.00    +0.000 OA
BRANCH  26  28
ATOM     27  C   UNL     1       6.144   3.655  15.333  0.00  0.00    +0.000 C 
ATOM     28  C   UNL     1       5.539   4.551  16.424  0.00  0.00    +0.000 C 
ATOM     29  C   UNL     1       6.347   4.516  17.730  0.00  0.00    +0.000 C 
ATOM     30  C   UNL     1       5.555   5.995  15.894  0.00  0.00    +0.000 C 
ENDBRANCH  26  28
ENDBRANCH   1  26
TORSDOF 6
ENDMDL
MODEL 2
REMARK VINA RESULT:      -7.8      1.080      1.313
REMARK  Name = 
REMARK  9 active torsions:
REMARK  status: ('A' for Active; 'I' for Inactive)
REMARK    1  A    between atoms: C_1  and  C_2
REMARK    2  A    between atoms: C_2  and  C_3
REMARK    3  A    between atoms: C_2  and  C_4
REMARK    4  A    between atoms: C_2  and  O_5
REMARK    5  A    between atoms: O_5  and  C_6
REMARK    6  A    between atoms: C_10  and  C_11
REMARK    7  A    between atoms: C_14  and  N_15
REMARK    8  A    between atoms: N_15  and  C_16
REMARK    9  A    between atoms: C_16  and  C_17
REMARK                            x       y       z     vdW  Elec       q    Type
REMARK                         _______ _______ _______ _____ _____    ______ ____
ROOT
ATOM      1  C   UNL     1       4.899   4.464  19.132  0.00  0.00    +0.000 C 
ATOM      2  O   UNL     1       5.007   3.300  19.500  0.00  0.00    +0.000 OA
ATOM      3  N   UNL     1       3.799   5.229  19.525  0.00  0.00    +0.000 N 
ATOM      4  C   UNL     1       3.503   6.541  19.203  0.00  0.00    +0.000 A 
ATOM      5  C   UNL     1       2.307   6.829  19.826  0.00  0.00    +0.000 A 
ATOM      6  N   UNL     1       1.855   5.731  20.518  0.00  0.00    +0.000 NA
ATOM      7  C   UNL     1       2.758   4.796  20.342  0.00  0.00    +0.000 A 
ATOM      8  N   UNL     1       2.712   3.567  20.878  0.00  0.00    +0.000 N 
ATOM      9  H   UNL     1       1.852   3.250  21.309  0.00  0.00    +0.000 HD
ATOM     10  H   UNL     1       3.352   2.833  20.571  0.00  0.00    +0.000 HD
ENDROOT
BRANCH   5  11
ATOM     11  C   UNL     1       1.599   8.100  19.796  0.00  0.00    +0.000 A 
ATOM     12  C   UNL     1       0.867   8.552  20.896  0.00  0.00    +0.000 A 
ATOM     13  C   UNL     1       0.157   9.758  20.835  0.00  0.00    +0.000 A 
ATOM     14  C   UNL     1       0.181  10.567  19.694  0.00  0.00    +0.000 A 
ATOM     15  C   UNL     1       0.902  10.105  18.587  0.00  0.00    +0.000 A 
ATOM     16  C   UNL     1       1.608   8.891  18.642  0.00  0.00    +0.000 A 
BRANCH  14  17
ATOM     17  N   UNL     1      -0.631  11.706  19.672  0.00  0.00    +0.000 N 
ATOM     18  H   UNL     1      -0.316  12.397  20.350  0.00  0.00    +0.000 HD
BRANCH  17  19
ATOM     19  C   UNL     1      -0.901  12.359  18.396  0.00  0.00    +0.000 C 
BRANCH  19  20
ATOM     20  C   UNL     1      -2.129  11.794  17.759  0.00  0.00    +0.000 A 
ATOM     21  C   UNL     1      -3.372  11.480  18.275  0.00  0.00    +0.000 A 
ATOM     22  C   UNL     1      -4.153  10.951  17.219  0.00  0.00    +0.000 A 
ATOM     23  C   UNL     1      -3.369  10.954  16.087  0.00  0.00    +0.000 A 
ATOM     24  N   UNL     1      -2.144  11.468  16.423  0.00  0.00    +0.000 N 
ATOM     25  H   UNL     1      -1.353  11.570  15.799  0.00  0.00    +0.000 HD
ENDBRANCH  19  20
ENDBRANCH  17  19
ENDBRANCH  14  17
ENDBRANCH   5  11
BRANCH   1  26
ATOM     26  O   UNL     1       5.758   5.174  18.344  0.00  0.00    +0.000 OA
BRANCH  26  28
ATOM     27  C   UNL     1       5.395   6.259  16.158  0.00  0.00    +0.000 C 
ATOM     28  C   UNL     1       5.697   4.953  16.906  0.00  0.00    +0.000 C 
ATOM     29  C   UNL     1       4.686   3.842  16.583  0.00  0.00    +0.000 C 
ATOM     30  C   UNL     1       7.088   4.475  16.455  0.00  0.00    +0.000 C 
ENDBRANCH  26  28
ENDBRANCH   1  26
TORSDOF 6
ENDMDL
MODEL 3
REMARK VINA RESULT:      -7.6      3.262      8.552
REMARK  Name = 
REMARK  9 active torsions:
REMARK  status: ('A' for Active; 'I' for Inactive)
REMARK    1  A    between atoms: C_1  and  C_2
REMARK    2  A    between atoms: C_2  and  C_3
REMARK    3  A    between atoms: C_2  and  C_4
REMARK    4  A    between atoms: C_2  and  O_5
REMARK    5  A    between atoms: O_5  and  C_6
REMARK    6  A    between atoms: C_10  and  C_11
REMARK    7  A    between atoms: C_14  and  N_15
REMARK    8  A    between atoms: N_15  and  C_16
REMARK    9  A    between atoms: C_16  and  C_17
REMARK                            x       y       z     vdW  Elec       q    Type
REMARK                         _______ _______ _______ _____ _____    ______ ____
ROOT
ATOM      1  C   UNL     1      -1.726  11.631  18.467  0.00  0.00    +0.000 C 
ATOM      2  O   UNL     1      -2.320  12.388  19.226  0.00  0.00    +0.000 OA
ATOM      3  N   UNL     1      -0.720  10.793  18.951  0.00  0.00    +0.000 N 
ATOM      4  C   UNL     1       0.060   9.890  18.252  0.00  0.00    +0.000 A 
ATOM      5  C   UNL     1       0.910   9.319  19.176  0.00  0.00    +0.000 A 
ATOM      6  N   UNL     1       0.680   9.848  20.423  0.00  0.00    +0.000 NA
ATOM      7  C   UNL     1      -0.300  10.709  20.276  0.00  0.00    +0.000 A 
ATOM      8  N   UNL     1      -0.851  11.428  21.265  0.00  0.00    +0.000 N 
ATOM      9  H   UNL     1      -0.389  11.462  22.166  0.00  0.00    +0.000 HD
ATOM     10  H   UNL     1      -1.490  12.199  21.064  0.00  0.00    +0.000 HD
ENDROOT
BRANCH   5  11
ATOM     11  C   UNL     1       1.909   8.293  18.916  0.00  0.00    +0.000 A 
ATOM     12  C   UNL     1       2.690   8.314  17.759  0.00  0.00    +0.000 A 
ATOM     13  C   UNL     1       3.618   7.296  17.505  0.00  0.00    +0.000 A 
ATOM     14  C   UNL     1       3.824   6.248  18.409  0.00  0.00    +0.000 A 
ATOM     15  C   UNL     1       3.029   6.221  19.561  0.00  0.00    +0.000 A 
ATOM     16  C   UNL     1       2.091   7.236  19.814  0.00  0.00    +0.000 A 
BRANCH  14  17
ATOM     17  N   UNL     1       4.695   5.216  18.041  0.00  0.00    +0.000 N 
ATOM     18  H   UNL     1       4.249   4.572  17.391  0.00  0.00    +0.000 HD
BRANCH  17  19
ATOM     19  C   UNL     1       6.029   5.554  17.561  0.00  0.00    +0.000 C 
BRANCH  19  20
ATOM     20  C   UNL     1       6.248   5.022  16.182  0.00  0.00    +0.000 A 
ATOM     21  C   UNL     1       5.657   3.982  15.492  0.00  0.00    +0.000 A 
ATOM     22  C   UNL     1       6.272   3.908  14.219  0.00  0.00    +0.000 A 
ATOM     23  C   UNL     1       7.221   4.902  14.163  0.00  0.00    +0.000 A 
ATOM     24  N   UNL     1       7.201   5.574  15.357  0.00  0.00    +0.000 N 
ATOM     25  H   UNL     1       7.808   6.342  15.616  0.00  0.00    +0.000 HD
ENDBRANCH  19  20
ENDBRANCH  17  19
ENDBRANCH  14  17
ENDBRANCH   5  11
BRANCH   1  26
ATOM     26  O   UNL     1      -1.920  11.472  17.125  0.00  0.00    +0.000 OA
BRANCH  26  28
ATOM     27  C   UNL     1      -2.905  10.157  15.284  0.00  0.00    +0.000 C 
ATOM     28  C   UNL     1      -3.098  10.733  16.694  0.00  0.00    +0.000 C 
ATOM     29  C   UNL     1      -4.349  11.619  16.802  0.00  0.00    +0.000 C 
ATOM     30  C   UNL     1      -3.273   9.545  17.656  0.00  0.00    +0.000 C 
ENDBRANCH  26  28
ENDBRANCH   1  26
TORSDOF 6
ENDMDL
MODEL 4
REMARK VINA RESULT:      -7.6      3.251      8.193
REMARK  Name = 
REMARK  9 active torsions:
REMARK  status: ('A' for Active; 'I' for Inactive)
REMARK    1  A    between atoms: C_1  and  C_2
REMARK    2  A    between atoms: C_2  and  C_3
REMARK    3  A    between atoms: C_2  and  C_4
REMARK    4  A    between atoms: C_2  and  O_5
REMARK    5  A    between atoms: O_5  and  C_6
REMARK    6  A    between atoms: C_10  and  C_11
REMARK    7  A    between atoms: C_14  and  N_15
REMARK    8  A    between atoms: N_15  and  C_16
REMARK    9  A    between atoms: C_16  and  C_17
REMARK                            x       y       z     vdW  Elec       q    Type
REMARK                         _______ _______ _______ _____ _____    ______ ____
ROOT
ATOM      1  C   UNL     1      -1.788  11.627  18.533  0.00  0.00    +0.000 C 
ATOM      2  O   UNL     1      -2.386  12.363  19.308  0.00  0.00    +0.000 OA
ATOM      3  N   UNL     1      -0.766  10.795  18.996  0.00  0.00    +0.000 N 
ATOM      4  C   UNL     1       0.022   9.916  18.276  0.00  0.00    +0.000 A 
ATOM      5  C   UNL     1       0.886   9.341  19.183  0.00  0.00    +0.000 A 
ATOM      6  N   UNL     1       0.657   9.846  20.441  0.00  0.00    +0.000 NA
ATOM      7  C   UNL     1      -0.335  10.695  20.316  0.00  0.00    +0.000 A 
ATOM      8  N   UNL     1      -0.890  11.389  21.321  0.00  0.00    +0.000 N 
ATOM      9  H   UNL     1      -0.421  11.414  22.219  0.00  0.00    +0.000 HD
ATOM     10  H   UNL     1      -1.540  12.154  21.138  0.00  0.00    +0.000 HD
ENDROOT
BRANCH   5  11
ATOM     11  C   UNL     1       1.897   8.334  18.900  0.00  0.00    +0.000 A 
ATOM     12  C   UNL     1       2.601   8.328  17.693  0.00  0.00    +0.000 A 
ATOM     13  C   UNL     1       3.541   7.327  17.420  0.00  0.00    +0.000 A 
ATOM     14  C   UNL     1       3.838   6.324  18.350  0.00  0.00    +0.000 A 
ATOM     15  C   UNL     1       3.120   6.323  19.551  0.00  0.00    +0.000 A 
ATOM     16  C   UNL     1       2.169   7.320  19.825  0.00  0.00    +0.000 A 
BRANCH  14  17
ATOM     17  N   UNL     1       4.714   5.303  17.966  0.00  0.00    +0.000 N 
ATOM     18  H   UNL     1       5.195   4.909  18.772  0.00  0.00    +0.000 HD
BRANCH  17  19
ATOM     19  C   UNL     1       4.220   4.227  17.115  0.00  0.00    +0.000 C 
BRANCH  19  20
ATOM     20  C   UNL     1       3.105   3.491  17.784  0.00  0.00    +0.000 A 
ATOM     21  C   UNL     1       1.732   3.600  17.672  0.00  0.00    +0.000 A 
ATOM     22  C   UNL     1       1.154   2.663  18.561  0.00  0.00    +0.000 A 
ATOM     23  C   UNL     1       2.185   2.006  19.193  0.00  0.00    +0.000 A 
ATOM     24  N   UNL     1       3.365   2.513  18.716  0.00  0.00    +0.000 N 
ATOM     25  H   UNL     1       4.293   2.240  19.016  0.00  0.00    +0.000 HD
ENDBRANCH  19  20
ENDBRANCH  17  19
ENDBRANCH  14  17
ENDBRANCH   5  11
BRANCH   1  26
ATOM     26  O   UNL     1      -1.989  11.488  17.190  0.00  0.00    +0.000 OA
BRANCH  26  28
ATOM     27  C   UNL     1      -3.444   9.579  17.763  0.00  0.00    +0.000 C 
ATOM     28  C   UNL     1      -3.129  10.695  16.755  0.00  0.00    +0.000 C 
ATOM     29  C   UNL     1      -2.891  10.156  15.336  0.00  0.00    +0.000 C 
ATOM     30  C   UNL     1      -4.349  11.631  16.709  0.00  0.00    +0.000 C 
ENDBRANCH  26  28
ENDBRANCH   1  26
TORSDOF 6
ENDMDL
MODEL 5
REMARK VINA RESULT:      -7.4      1.583      2.849
REMARK  Name = 
REMARK  9 active torsions:
REMARK  status: ('A' for Active; 'I' for Inactive)
REMARK    1  A    between atoms: C_1  and  C_2
REMARK    2  A    between atoms: C_2  and  C_3
REMARK    3  A    between atoms: C_2  and  C_4
REMARK    4  A    between atoms: C_2  and  O_5
REMARK    5  A    between atoms: O_5  and  C_6
REMARK    6  A    between atoms: C_10  and  C_11
REMARK    7  A    between atoms: C_14  and  N_15
REMARK    8  A    between atoms: N_15  and  C_16
REMARK    9  A    between atoms: C_16  and  C_17
REMARK                            x       y       z     vdW  Elec       q    Type
REMARK                         _______ _______ _______ _____ _____    ______ ____
ROOT
ATOM      1  C   UNL     1       4.311   4.402  18.650  0.00  0.00    +0.000 C 
ATOM      2  O   UNL     1       5.259   3.945  18.023  0.00  0.00    +0.000 OA
ATOM      3  N   UNL     1       3.861   5.701  18.403  0.00  0.00    +0.000 N 
ATOM      4  C   UNL     1       2.825   6.385  19.013  0.00  0.00    +0.000 A 
ATOM      5  C   UNL     1       2.789   7.631  18.425  0.00  0.00    +0.000 A 
ATOM      6  N   UNL     1       3.776   7.737  17.475  0.00  0.00    +0.000 NA
ATOM      7  C   UNL     1       4.393   6.580  17.463  0.00  0.00    +0.000 A 
ATOM      8  N   UNL     1       5.410   6.254  16.651  0.00  0.00    +0.000 N 
ATOM      9  H   UNL     1       5.870   6.984  16.121  0.00  0.00    +0.000 HD
ATOM     10  H   UNL     1       5.955   5.405  16.803  0.00  0.00    +0.000 HD
ENDROOT
BRANCH   5  11
ATOM     11  C   UNL     1       1.852   8.704  18.725  0.00  0.00    +0.000 A 
ATOM     12  C   UNL     1       1.694   9.794  17.866  0.00  0.00    +0.000 A 
ATOM     13  C   UNL     1       0.818  10.837  18.190  0.00  0.00    +0.000 A 
ATOM     14  C   UNL     1       0.046  10.813  19.357  0.00  0.00    +0.000 A 
ATOM     15  C   UNL     1       0.217   9.727  20.223  0.00  0.00    +0.000 A 
ATOM     16  C   UNL     1       1.102   8.683  19.906  0.00  0.00    +0.000 A 
BRANCH  14  17
ATOM     17  N   UNL     1      -0.731  11.936  19.662  0.00  0.00    +0.000 N 
ATOM     18  H   UNL     1      -0.338  12.779  19.248  0.00  0.00    +0.000 HD
BRANCH  17  19
ATOM     19  C   UNL     1      -2.167  11.891  19.415  0.00  0.00    +0.000 C 
BRANCH  19  20
ATOM     20  C   UNL     1      -2.463  11.205  18.121  0.00  0.00    +0.000 A 
ATOM     21  C   UNL     1      -2.892   9.924  17.836  0.00  0.00    +0.000 A 
ATOM     22  C   UNL     1      -2.986   9.807  16.428  0.00  0.00    +0.000 A 
ATOM     23  C   UNL     1      -2.612  11.017  15.890  0.00  0.00    +0.000 A 
ATOM     24  N   UNL     1      -2.297  11.860  16.922  0.00  0.00    +0.000 N 
ATOM     25  H   UNL     1      -1.963  12.812  16.831  0.00  0.00    +0.000 HD
ENDBRANCH  19  20
ENDBRANCH  17  19
ENDBRANCH  14  17
ENDBRANCH   5  11
BRANCH   1  26
ATOM     26  O   UNL     1       3.575   3.784  19.620  0.00  0.00    +0.000 OA
BRANCH  26  28
ATOM     27  C   UNL     1       1.909   3.176  17.905  0.00  0.00    +0.000 C 
ATOM     28  C   UNL     1       2.623   2.766  19.201  0.00  0.00    +0.000 C 
ATOM     29  C   UNL     1       1.640   2.457  20.341  0.00  0.00    +0.000 C 
ATOM     30  C   UNL     1       3.421   1.485  18.902  0.00  0.00    +0.000 C 
ENDBRANCH  26  28
ENDBRANCH   1  26
TORSDOF 6
ENDMDL
MODEL 6
REMARK VINA RESULT:      -7.4      1.126      1.707
REMARK  Name = 
REMARK  9 active torsions:
REMARK  status: ('A' for Active; 'I' for Inactive)
REMARK    1  A    between atoms: C_1  and  C_2
REMARK    2  A    between atoms: C_2  and  C_3
REMARK    3  A    between atoms: C_2  and  C_4
REMARK    4  A    between atoms: C_2  and  O_5
REMARK    5  A    between atoms: O_5  and  C_6
REMARK    6  A    between atoms: C_10  and  C_11
REMARK    7  A    between atoms: C_14  and  N_15
REMARK    8  A    between atoms: N_15  and  C_16
REMARK    9  A    between atoms: C_16  and  C_17
REMARK                            x       y       z     vdW  Elec       q    Type
REMARK                         _______ _______ _______ _____ _____    ______ ____
ROOT
ATOM      1  C   UNL     1       4.608   4.462  18.567  0.00  0.00    +0.000 C 
ATOM      2  O   UNL     1       4.738   3.322  18.995  0.00  0.00    +0.000 OA
ATOM      3  N   UNL     1       3.633   5.309  19.099  0.00  0.00    +0.000 N 
ATOM      4  C   UNL     1       3.333   6.611  18.741  0.00  0.00    +0.000 A 
ATOM      5  C   UNL     1       2.291   7.003  19.553  0.00  0.00    +0.000 A 
ATOM      6  N   UNL     1       1.936   5.980  20.398  0.00  0.00    +0.000 NA
ATOM      7  C   UNL     1       2.751   4.988  20.128  0.00  0.00    +0.000 A 
ATOM      8  N   UNL     1       2.760   3.801  20.754  0.00  0.00    +0.000 N 
ATOM      9  H   UNL     1       1.986   3.560  21.361  0.00  0.00    +0.000 HD
ATOM     10  H   UNL     1       3.300   3.016  20.389  0.00  0.00    +0.000 HD
ENDROOT
BRANCH   5  11
ATOM     11  C   UNL     1       1.640   8.305  19.560  0.00  0.00    +0.000 A 
ATOM     12  C   UNL     1       1.721   9.165  18.463  0.00  0.00    +0.000 A 
ATOM     13  C   UNL     1       1.124  10.431  18.502  0.00  0.00    +0.000 A 
ATOM     14  C   UNL     1       0.398  10.866  19.617  0.00  0.00    +0.000 A 
ATOM     15  C   UNL     1       0.331  10.009  20.720  0.00  0.00    +0.000 A 
ATOM     16  C   UNL     1       0.937   8.742  20.688  0.00  0.00    +0.000 A 
BRANCH  14  17
ATOM     17  N   UNL     1      -0.086  12.180  19.622  0.00  0.00    +0.000 N 
ATOM     18  H   UNL     1       0.591  12.819  20.034  0.00  0.00    +0.000 HD
BRANCH  17  19
ATOM     19  C   UNL     1      -0.607  12.747  18.384  0.00  0.00    +0.000 C 
BRANCH  19  20
ATOM     20  C   UNL     1      -1.839  12.024  17.946  0.00  0.00    +0.000 A 
ATOM     21  C   UNL     1      -2.956  11.604  18.642  0.00  0.00    +0.000 A 
ATOM     22  C   UNL     1      -3.810  10.945  17.725  0.00  0.00    +0.000 A 
ATOM     23  C   UNL     1      -3.195  10.979  16.495  0.00  0.00    +0.000 A 
ATOM     24  N   UNL     1      -2.001  11.636  16.636  0.00  0.00    +0.000 N 
ATOM     25  H   UNL     1      -1.319  11.792  15.904  0.00  0.00    +0.000 HD
ENDBRANCH  19  20
ENDBRANCH  17  19
ENDBRANCH  14  17
ENDBRANCH   5  11
BRANCH   1  26
ATOM     26  O   UNL     1       5.328   5.072  17.580  0.00  0.00    +0.000 OA
BRANCH  26  28
ATOM     27  C   UNL     1       6.974   6.897  17.364  0.00  0.00    +0.000 C 
ATOM     28  C   UNL     1       6.689   5.482  17.891  0.00  0.00    +0.000 C 
ATOM     29  C   UNL     1       7.690   4.444  17.361  0.00  0.00    +0.000 C 
ATOM     30  C   UNL     1       6.817   5.527  19.423  0.00  0.00    +0.000 C 
ENDBRANCH  26  28
ENDBRANCH   1  26
TORSDOF 6
ENDMDL
MODEL 7
REMARK VINA RESULT:      -7.4      1.151      1.502
REMARK  Name = 
REMARK  9 active torsions:
REMARK  status: ('A' for Active; 'I' for Inactive)
REMARK    1  A    between atoms: C_1  and  C_2
REMARK    2  A    between atoms: C_2  and  C_3
REMARK    3  A    between atoms: C_2  and  C_4
REMARK    4  A    between atoms: C_2  and  O_5
REMARK    5  A    between atoms: O_5  and  C_6
REMARK    6  A    between atoms: C_10  and  C_11
REMARK    7  A    between atoms: C_14  and  N_15
REMARK    8  A    between atoms: N_15  and  C_16
REMARK    9  A    between atoms: C_16  and  C_17
REMARK                            x       y       z     vdW  Elec       q    Type
REMARK                         _______ _______ _______ _____ _____    ______ ____
ROOT
ATOM      1  C   UNL     1       4.580   4.377  18.580  0.00  0.00    +0.000 C 
ATOM      2  O   UNL     1       4.700   3.235  19.010  0.00  0.00    +0.000 OA
ATOM      3  N   UNL     1       3.626   5.240  19.123  0.00  0.00    +0.000 N 
ATOM      4  C   UNL     1       3.340   6.544  18.764  0.00  0.00    +0.000 A 
ATOM      5  C   UNL     1       2.315   6.955  19.590  0.00  0.00    +0.000 A 
ATOM      6  N   UNL     1       1.958   5.939  20.443  0.00  0.00    +0.000 NA
ATOM      7  C   UNL     1       2.754   4.935  20.165  0.00  0.00    +0.000 A 
ATOM      8  N   UNL     1       2.754   3.750  20.795  0.00  0.00    +0.000 N 
ATOM      9  H   UNL     1       1.985   3.522  21.414  0.00  0.00    +0.000 HD
ATOM     10  H   UNL     1       3.277   2.956  20.425  0.00  0.00    +0.000 HD
ENDROOT
BRANCH   5  11
ATOM     11  C   UNL     1       1.684   8.266  19.601  0.00  0.00    +0.000 A 
ATOM     12  C   UNL     1       0.977   8.724  20.715  0.00  0.00    +0.000 A 
ATOM     13  C   UNL     1       0.340   9.971  20.693  0.00  0.00    +0.000 A 
ATOM     14  C   UNL     1       0.417  10.816  19.580  0.00  0.00    +0.000 A 
ATOM     15  C   UNL     1       1.113  10.349  18.460  0.00  0.00    +0.000 A 
ATOM     16  C   UNL     1       1.745   9.094  18.475  0.00  0.00    +0.000 A 
BRANCH  14  17
ATOM     17  N   UNL     1      -0.326  12.002  19.595  0.00  0.00    +0.000 N 
ATOM     18  H   UNL     1       0.212  12.768  19.995  0.00  0.00    +0.000 HD
BRANCH  17  19
ATOM     19  C   UNL     1      -0.975  12.446  18.368  0.00  0.00    +0.000 C 
BRANCH  19  20
ATOM     20  C   UNL     1      -2.212  11.651  18.103  0.00  0.00    +0.000 A 
ATOM     21  C   UNL     1      -2.409  10.438  17.472  0.00  0.00    +0.000 A 
ATOM     22  C   UNL     1      -3.799  10.169  17.485  0.00  0.00    +0.000 A 
ATOM     23  C   UNL     1      -4.415  11.222  18.122  0.00  0.00    +0.000 A 
ATOM     24  N   UNL     1      -3.446  12.116  18.494  0.00  0.00    +0.000 N 
ATOM     25  H   UNL     1      -3.603  13.001  18.960  0.00  0.00    +0.000 HD
ENDBRANCH  19  20
ENDBRANCH  17  19
ENDBRANCH  14  17
ENDBRANCH   5  11
BRANCH   1  26
ATOM     26  O   UNL     1       5.296   4.972  17.581  0.00  0.00    +0.000 OA
BRANCH  26  28
ATOM     27  C   UNL     1       6.863   6.868  17.387  0.00  0.00    +0.000 C 
ATOM     28  C   UNL     1       6.639   5.436  17.895  0.00  0.00    +0.000 C 
ATOM     29  C   UNL     1       7.682   4.449  17.348  0.00  0.00    +0.000 C 
ATOM     30  C   UNL     1       6.770   5.465  19.427  0.00  0.00    +0.000 C 
ENDBRANCH  26  28
ENDBRANCH   1  26
TORSDOF 6
ENDMDL
MODEL 8
REMARK VINA RESULT:      -7.4      3.695      8.645
REMARK  Name = 
REMARK  9 active torsions:
REMARK  status: ('A' for Active; 'I' for Inactive)
REMARK    1  A    between atoms: C_1  and  C_2
REMARK    2  A    between atoms: C_2  and  C_3
REMARK    3  A    between atoms: C_2  and  C_4
REMARK    4  A    between atoms: C_2  and  O_5
REMARK    5  A    between atoms: O_5  and  C_6
REMARK    6  A    between atoms: C_10  and  C_11
REMARK    7  A    between atoms: C_14  and  N_15
REMARK    8  A    between atoms: N_15  and  C_16
REMARK    9  A    between atoms: C_16  and  C_17
REMARK                            x       y       z     vdW  Elec       q    Type
REMARK                         _______ _______ _______ _____ _____    ______ ____
ROOT
ATOM      1  C   UNL     1      -0.289  11.871  21.682  0.00  0.00    +0.000 C 
ATOM      2  O   UNL     1      -0.947  12.131  22.682  0.00  0.00    +0.000 OA
ATOM      3  N   UNL     1       0.171  10.572  21.458  0.00  0.00    +0.000 N 
ATOM      4  C   UNL     1       0.930  10.096  20.404  0.00  0.00    +0.000 A 
ATOM      5  C   UNL     1       1.128   8.754  20.647  0.00  0.00    +0.000 A 
ATOM      6  N   UNL     1       0.518   8.390  21.824  0.00  0.00    +0.000 NA
ATOM      7  C   UNL     1      -0.058   9.475  22.284  0.00  0.00    +0.000 A 
ATOM      8  N   UNL     1      -0.789   9.545  23.407  0.00  0.00    +0.000 N 
ATOM      9  H   UNL     1      -0.769   8.768  24.056  0.00  0.00    +0.000 HD
ATOM     10  H   UNL     1      -1.067  10.445  23.800  0.00  0.00    +0.000 HD
ENDROOT
BRANCH   5  11
ATOM     11  C   UNL     1       1.857   7.818  19.804  0.00  0.00    +0.000 A 
ATOM     12  C   UNL     1       2.323   8.188  18.540  0.00  0.00    +0.000 A 
ATOM     13  C   UNL     1       2.985   7.263  17.725  0.00  0.00    +0.000 A 
ATOM     14  C   UNL     1       3.238   5.954  18.153  0.00  0.00    +0.000 A 
ATOM     15  C   UNL     1       2.757   5.582  19.413  0.00  0.00    +0.000 A 
ATOM     16  C   UNL     1       2.083   6.506  20.230  0.00  0.00    +0.000 A 
BRANCH  14  17
ATOM     17  N   UNL     1       3.816   5.060  17.246  0.00  0.00    +0.000 N 
ATOM     18  H   UNL     1       4.025   5.516  16.360  0.00  0.00    +0.000 HD
BRANCH  17  19
ATOM     19  C   UNL     1       4.962   4.264  17.670  0.00  0.00    +0.000 C 
BRANCH  19  20
ATOM     20  C   UNL     1       6.110   5.144  18.048  0.00  0.00    +0.000 A 
ATOM     21  C   UNL     1       6.706   6.208  17.399  0.00  0.00    +0.000 A 
ATOM     22  C   UNL     1       7.775   6.659  18.211  0.00  0.00    +0.000 A 
ATOM     23  C   UNL     1       7.805   5.861  19.332  0.00  0.00    +0.000 A 
ATOM     24  N   UNL     1       6.792   4.945  19.226  0.00  0.00    +0.000 N 
ATOM     25  H   UNL     1       6.584   4.211  19.892  0.00  0.00    +0.000 HD
ENDBRANCH  19  20
ENDBRANCH  17  19
ENDBRANCH  14  17
ENDBRANCH   5  11
BRANCH   1  26
ATOM     26  O   UNL     1       0.084  12.724  20.683  0.00  0.00    +0.000 OA
BRANCH  26  28
ATOM     27  C   UNL     1      -2.159  12.280  19.755  0.00  0.00    +0.000 C 
ATOM     28  C   UNL     1      -0.959  13.238  19.807  0.00  0.00    +0.000 C 
ATOM     29  C   UNL     1      -0.383  13.537  18.415  0.00  0.00    +0.000 C 
ATOM     30  C   UNL     1      -1.454  14.563  20.412  0.00  0.00    +0.000 C 
ENDBRANCH  26  28
ENDBRANCH   1  26
TORSDOF 6
ENDMDL
MODEL 9
REMARK VINA RESULT:      -7.3      0.807      1.535
REMARK  Name = 
REMARK  9 active torsions:
REMARK  status: ('A' for Active; 'I' for Inactive)
REMARK    1  A    between atoms: C_1  and  C_2
REMARK    2  A    between atoms: C_2  and  C_3
REMARK    3  A    between atoms: C_2  and  C_4
REMARK    4  A    between atoms: C_2  and  O_5
REMARK    5  A    between atoms: O_5  and  C_6
REMARK    6  A    between atoms: C_10  and  C_11
REMARK    7  A    between atoms: C_14  and  N_15
REMARK    8  A    between atoms: N_15  and  C_16
REMARK    9  A    between atoms: C_16  and  C_17
REMARK                            x       y       z     vdW  Elec       q    Type
REMARK                         _______ _______ _______ _____ _____    ______ ____
ROOT
ATOM      1  C   UNL     1       4.728   4.401  17.679  0.00  0.00    +0.000 C 
ATOM      2  O   UNL     1       4.981   3.295  18.144  0.00  0.00    +0.000 OA
ATOM      3  N   UNL     1       3.843   5.257  18.337  0.00  0.00    +0.000 N 
ATOM      4  C   UNL     1       3.430   6.523  17.963  0.00  0.00    +0.000 A 
ATOM      5  C   UNL     1       2.549   6.944  18.936  0.00  0.00    +0.000 A 
ATOM      6  N   UNL     1       2.403   5.972  19.896  0.00  0.00    +0.000 NA
ATOM      7  C   UNL     1       3.188   4.985  19.535  0.00  0.00    +0.000 A 
ATOM      8  N   UNL     1       3.361   3.845  20.221  0.00  0.00    +0.000 N 
ATOM      9  H   UNL     1       2.728   3.626  20.980  0.00  0.00    +0.000 HD
ATOM     10  H   UNL     1       3.850   3.050  19.807  0.00  0.00    +0.000 HD
ENDROOT
BRANCH   5  11
ATOM     11  C   UNL     1       1.863   8.227  18.988  0.00  0.00    +0.000 A 
ATOM     12  C   UNL     1       1.819   9.074  17.879  0.00  0.00    +0.000 A 
ATOM     13  C   UNL     1       1.190  10.323  17.959  0.00  0.00    +0.000 A 
ATOM     14  C   UNL     1       0.555  10.752  19.130  0.00  0.00    +0.000 A 
ATOM     15  C   UNL     1       0.613   9.907  20.244  0.00  0.00    +0.000 A 
ATOM     16  C   UNL     1       1.251   8.657  20.170  0.00  0.00    +0.000 A 
BRANCH  14  17
ATOM     17  N   UNL     1       0.035  12.050  19.165  0.00  0.00    +0.000 N 
ATOM     18  H   UNL     1       0.470  12.640  18.458  0.00  0.00    +0.000 HD
BRANCH  17  19
ATOM     19  C   UNL     1      -1.411  12.235  19.135  0.00  0.00    +0.000 C 
BRANCH  19  20
ATOM     20  C   UNL     1      -2.028  11.428  18.039  0.00  0.00    +0.000 A 
ATOM     21  C   UNL     1      -2.620  10.180  18.037  0.00  0.00    +0.000 A 
ATOM     22  C   UNL     1      -3.013   9.894  16.707  0.00  0.00    +0.000 A 
ATOM     23  C   UNL     1      -2.651  10.973  15.932  0.00  0.00    +0.000 A 
ATOM     24  N   UNL     1      -2.055  11.899  16.747  0.00  0.00    +0.000 N 
ATOM     25  H   UNL     1      -1.664  12.785  16.452  0.00  0.00    +0.000 HD
ENDBRANCH  19  20
ENDBRANCH  17  19
ENDBRANCH  14  17
ENDBRANCH   5  11
BRANCH   1  26
ATOM     26  O   UNL     1       5.221   4.959  16.535  0.00  0.00    +0.000 OA
BRANCH  26  28
ATOM     27  C   UNL     1       6.824   6.785  16.963  0.00  0.00    +0.000 C 
ATOM     28  C   UNL     1       6.629   5.329  16.515  0.00  0.00    +0.000 C 
ATOM     29  C   UNL     1       7.231   5.054  15.129  0.00  0.00    +0.000 C 
ATOM     30  C   UNL     1       7.354   4.434  17.534  0.00  0.00    +0.000 C 
ENDBRANCH  26  28
ENDBRANCH   1  26
TORSDOF 6
ENDMDL
