MODEL 1
REMARK VINA RESULT:      -6.4      0.000      0.000
REMARK  Name = 
REMARK  8 active torsions:
REMARK  status: ('A' for Active; 'I' for Inactive)
REMARK    1  A    between atoms: C_1  and  O_2
REMARK    2  A    between atoms: O_2  and  C_3
REMARK    3  A    between atoms: C_3  and  C_4
REMARK    4  A    between atoms: C_3  and  O_17
REMARK    5  A    between atoms: C_4  and  N_5
REMARK    6  A    between atoms: N_5  and  C_6
REMARK    7  A    between atoms: C_8  and  C_9
REMARK    8  A    between atoms: O_17  and  C_18
REMARK                            x       y       z     vdW  Elec       q    Type
REMARK                         _______ _______ _______ _____ _____    ______ ____
ROOT
ATOM      1  C   UNL     1       3.808   6.048  17.793  0.00  0.00    +0.000 A 
ATOM      2  C   UNL     1       3.218   7.166  18.252  0.00  0.00    +0.000 A 
ATOM      3  C   UNL     1       2.354   7.030  19.462  0.00  0.00    +0.000 A 
ATOM      4  C   UNL     1       1.638   8.268  19.938  0.00  0.00    +0.000 C 
ATOM      5  N   UNL     1       2.159   5.925  20.123  0.00  0.00    +0.000 NA
ATOM      6  C   UNL     1       2.791   4.809  19.648  0.00  0.00    +0.000 A 
ATOM      7  C   UNL     1       2.831   3.507  20.081  0.00  0.00    +0.000 A 
ATOM      8 BR   UNL     1       1.992   2.753  21.570  0.00  0.00    +0.000 Br
ATOM      9  C   UNL     1       3.645   2.816  19.182  0.00  0.00    +0.000 A 
ATOM     10  N   UNL     1       4.110   3.603  18.209  0.00  0.00    +0.000 NA
ATOM     11  N   UNL     1       3.590   4.837  18.497  0.00  0.00    +0.000 N 
ENDROOT
BRANCH   1  12
ATOM     12  N   UNL     1       4.596   6.036  16.636  0.00  0.00    +0.000 N 
ATOM     13  H   UNL     1       4.511   5.110  16.191  0.00  0.00    +0.000 HD
BRANCH  12  14
ATOM     14  C   UNL     1       6.051   6.284  16.734  0.00  0.00    +0.000 C 
BRANCH  14  15
ATOM     15  C   UNL     1       6.878   5.027  16.336  0.00  0.00    +0.000 C 
BRANCH  15  17
ATOM     16  C   UNL     1       7.665   5.250  18.581  0.00  0.00    +0.000 C 
ATOM     17  O   UNL     1       7.850   4.647  17.313  0.00  0.00    +0.000 OA
ENDBRANCH  15  17
BRANCH  15  18
ATOM     18  O   UNL     1       7.527   5.307  15.085  0.00  0.00    +0.000 OA
ATOM     19  C   UNL     1       6.875   4.681  13.989  0.00  0.00    +0.000 C 
ENDBRANCH  15  18
ENDBRANCH  14  15
ENDBRANCH  12  14
ENDBRANCH   1  12
TORSDOF 5
ENDMDL
MODEL 2
REMARK VINA RESULT:      -6.4      0.662      1.758
REMARK  Name = 
REMARK  8 active torsions:
REMARK  status: ('A' for Active; 'I' for Inactive)
REMARK    1  A    between atoms: C_1  and  O_2
REMARK    2  A    between atoms: O_2  and  C_3
REMARK    3  A    between atoms: C_3  and  C_4
REMARK    4  A    between atoms: C_3  and  O_17
REMARK    5  A    between atoms: C_4  and  N_5
REMARK    6  A    between atoms: N_5  and  C_6
REMARK    7  A    between atoms: C_8  and  C_9
REMARK    8  A    between atoms: O_17  and  C_18
REMARK                            x       y       z     vdW  Elec       q    Type
REMARK                         _______ _______ _______ _____ _____    ______ ____
ROOT
ATOM      1  C   UNL     1       3.833   5.825  17.733  0.00  0.00    +0.000 A 
ATOM      2  C   UNL     1       3.266   6.959  18.184  0.00  0.00    +0.000 A 
ATOM      3  C   UNL     1       2.423   6.855  19.412  0.00  0.00    +0.000 A 
ATOM      4  C   UNL     1       1.734   8.111  19.880  0.00  0.00    +0.000 C 
ATOM      5  N   UNL     1       2.226   5.764  20.095  0.00  0.00    +0.000 NA
ATOM      6  C   UNL     1       2.834   4.632  19.627  0.00  0.00    +0.000 A 
ATOM      7  C   UNL     1       2.865   3.337  20.082  0.00  0.00    +0.000 A 
ATOM      8 BR   UNL     1       2.043   2.619  21.598  0.00  0.00    +0.000 Br
ATOM      9  C   UNL     1       3.652   2.620  19.180  0.00  0.00    +0.000 A 
ATOM     10  N   UNL     1       4.109   3.384  18.185  0.00  0.00    +0.000 NA
ATOM     11  N   UNL     1       3.612   4.629  18.462  0.00  0.00    +0.000 N 
ENDROOT
BRANCH   1  12
ATOM     12  N   UNL     1       4.598   5.783  16.562  0.00  0.00    +0.000 N 
ATOM     13  H   UNL     1       4.492   4.851  16.134  0.00  0.00    +0.000 HD
BRANCH  12  14
ATOM     14  C   UNL     1       6.058   6.012  16.628  0.00  0.00    +0.000 C 
BRANCH  14  15
ATOM     15  C   UNL     1       6.838   5.023  15.714  0.00  0.00    +0.000 C 
BRANCH  15  17
ATOM     16  C   UNL     1       6.120   3.843  13.765  0.00  0.00    +0.000 C 
ATOM     17  O   UNL     1       6.024   3.980  15.171  0.00  0.00    +0.000 OA
ENDBRANCH  15  17
BRANCH  15  18
ATOM     18  O   UNL     1       7.903   4.453  16.492  0.00  0.00    +0.000 OA
ATOM     19  C   UNL     1       7.704   4.632  17.888  0.00  0.00    +0.000 C 
ENDBRANCH  15  18
ENDBRANCH  14  15
ENDBRANCH  12  14
ENDBRANCH   1  12
TORSDOF 5
ENDMDL
MODEL 3
REMARK VINA RESULT:      -6.3      1.046      1.176
REMARK  Name = 
REMARK  8 active torsions:
REMARK  status: ('A' for Active; 'I' for Inactive)
REMARK    1  A    between atoms: C_1  and  O_2
REMARK    2  A    between atoms: O_2  and  C_3
REMARK    3  A    between atoms: C_3  and  C_4
REMARK    4  A    between atoms: C_3  and  O_17
REMARK    5  A    between atoms: C_4  and  N_5
REMARK    6  A    between atoms: N_5  and  C_6
REMARK    7  A    between atoms: C_8  and  C_9
REMARK    8  A    between atoms: O_17  and  C_18
REMARK                            x       y       z     vdW  Elec       q    Type
REMARK                         _______ _______ _______ _____ _____    ______ ____
ROOT
ATOM      1  C   UNL     1       3.938   4.750  17.245  0.00  0.00    +0.000 A 
ATOM      2  C   UNL     1       3.611   6.035  17.467  0.00  0.00    +0.000 A 
ATOM      3  C   UNL     1       2.766   6.325  18.664  0.00  0.00    +0.000 A 
ATOM      4  C   UNL     1       2.344   7.756  18.877  0.00  0.00    +0.000 C 
ATOM      5  N   UNL     1       2.357   5.437  19.524  0.00  0.00    +0.000 NA
ATOM      6  C   UNL     1       2.724   4.141  19.287  0.00  0.00    +0.000 A 
ATOM      7  C   UNL     1       2.497   2.970  19.966  0.00  0.00    +0.000 A 
ATOM      8 BR   UNL     1       1.552   2.716  21.557  0.00  0.00    +0.000 Br
ATOM      9  C   UNL     1       3.122   1.960  19.234  0.00  0.00    +0.000 A 
ATOM     10  N   UNL     1       3.721   2.426  18.135  0.00  0.00    +0.000 NA
ATOM     11  N   UNL     1       3.483   3.774  18.168  0.00  0.00    +0.000 N 
ENDROOT
BRANCH   1  12
ATOM     12  N   UNL     1       4.676   4.346  16.127  0.00  0.00    +0.000 N 
ATOM     13  H   UNL     1       5.279   3.555  16.401  0.00  0.00    +0.000 HD
BRANCH  12  14
ATOM     14  C   UNL     1       5.582   5.305  15.458  0.00  0.00    +0.000 C 
BRANCH  14  15
ATOM     15  C   UNL     1       7.073   4.883  15.597  0.00  0.00    +0.000 C 
BRANCH  15  17
ATOM     16  C   UNL     1       7.309   6.560  17.283  0.00  0.00    +0.000 C 
ATOM     17  O   UNL     1       7.662   5.261  16.844  0.00  0.00    +0.000 OA
ENDBRANCH  15  17
BRANCH  15  18
ATOM     18  O   UNL     1       7.801   5.482  14.513  0.00  0.00    +0.000 OA
ATOM     19  C   UNL     1       7.446   4.927  13.255  0.00  0.00    +0.000 C 
ENDBRANCH  15  18
ENDBRANCH  14  15
ENDBRANCH  12  14
ENDBRANCH   1  12
TORSDOF 5
ENDMDL
MODEL 4
REMARK VINA RESULT:      -6.2      4.065      5.999
REMARK  Name = 
REMARK  8 active torsions:
REMARK  status: ('A' for Active; 'I' for Inactive)
REMARK    1  A    between atoms: C_1  and  O_2
REMARK    2  A    between atoms: O_2  and  C_3
REMARK    3  A    between atoms: C_3  and  C_4
REMARK    4  A    between atoms: C_3  and  O_17
REMARK    5  A    between atoms: C_4  and  N_5
REMARK    6  A    between atoms: N_5  and  C_6
REMARK    7  A    between atoms: C_8  and  C_9
REMARK    8  A    between atoms: O_17  and  C_18
REMARK                            x       y       z     vdW  Elec       q    Type
REMARK                         _______ _______ _______ _____ _____    ______ ____
ROOT
ATOM      1  C   UNL     1       6.200   4.668  18.080  0.00  0.00    +0.000 A 
ATOM      2  C   UNL     1       6.736   5.804  18.563  0.00  0.00    +0.000 A 
ATOM      3  C   UNL     1       7.449   6.685  17.591  0.00  0.00    +0.000 A 
ATOM      4  C   UNL     1       8.108   7.924  18.143  0.00  0.00    +0.000 C 
ATOM      5  N   UNL     1       7.558   6.457  16.314  0.00  0.00    +0.000 NA
ATOM      6  C   UNL     1       6.982   5.308  15.847  0.00  0.00    +0.000 A 
ATOM      7  C   UNL     1       6.884   4.760  14.592  0.00  0.00    +0.000 A 
ATOM      8 BR   UNL     1       7.537   5.434  12.977  0.00  0.00    +0.000 Br
ATOM      9  C   UNL     1       6.181   3.563  14.737  0.00  0.00    +0.000 A 
ATOM     10  N   UNL     1       5.839   3.325  16.006  0.00  0.00    +0.000 NA
ATOM     11  N   UNL     1       6.326   4.404  16.693  0.00  0.00    +0.000 N 
ENDROOT
BRANCH   1  12
ATOM     12  N   UNL     1       5.556   3.735  18.901  0.00  0.00    +0.000 N 
ATOM     13  H   UNL     1       5.655   2.801  18.475  0.00  0.00    +0.000 HD
BRANCH  12  14
ATOM     14  C   UNL     1       4.111   3.877  19.184  0.00  0.00    +0.000 C 
BRANCH  14  15
ATOM     15  C   UNL     1       3.508   2.567  19.770  0.00  0.00    +0.000 C 
BRANCH  15  17
ATOM     16  C   UNL     1       2.426   2.404  17.646  0.00  0.00    +0.000 C 
ATOM     17  O   UNL     1       2.403   2.058  19.018  0.00  0.00    +0.000 OA
ENDBRANCH  15  17
BRANCH  15  18
ATOM     18  O   UNL     1       3.094   2.840  21.118  0.00  0.00    +0.000 OA
ATOM     19  C   UNL     1       2.088   3.841  21.180  0.00  0.00    +0.000 C 
ENDBRANCH  15  18
ENDBRANCH  14  15
ENDBRANCH  12  14
ENDBRANCH   1  12
TORSDOF 5
ENDMDL
MODEL 5
REMARK VINA RESULT:      -6.2      1.475      1.667
REMARK  Name = 
REMARK  8 active torsions:
REMARK  status: ('A' for Active; 'I' for Inactive)
REMARK    1  A    between atoms: C_1  and  O_2
REMARK    2  A    between atoms: O_2  and  C_3
REMARK    3  A    between atoms: C_3  and  C_4
REMARK    4  A    between atoms: C_3  and  O_17
REMARK    5  A    between atoms: C_4  and  N_5
REMARK    6  A    between atoms: N_5  and  C_6
REMARK    7  A    between atoms: C_8  and  C_9
REMARK    8  A    between atoms: O_17  and  C_18
REMARK                            x       y       z     vdW  Elec       q    Type
REMARK                         _______ _______ _______ _____ _____    ______ ____
ROOT
ATOM      1  C   UNL     1       5.028   4.635  18.390  0.00  0.00    +0.000 A 
ATOM      2  C   UNL     1       4.395   5.781  18.080  0.00  0.00    +0.000 A 
ATOM      3  C   UNL     1       3.052   6.003  18.694  0.00  0.00    +0.000 A 
ATOM      4  C   UNL     1       2.313   7.255  18.295  0.00  0.00    +0.000 C 
ATOM      5  N   UNL     1       2.468   5.194  19.531  0.00  0.00    +0.000 NA
ATOM      6  C   UNL     1       3.146   4.048  19.847  0.00  0.00    +0.000 A 
ATOM      7  C   UNL     1       2.857   2.998  20.682  0.00  0.00    +0.000 A 
ATOM      8 BR   UNL     1       1.348   2.747  21.754  0.00  0.00    +0.000 Br
ATOM      9  C   UNL     1       3.933   2.113  20.590  0.00  0.00    +0.000 A 
ATOM     10  N   UNL     1       4.873   2.542  19.744  0.00  0.00    +0.000 NA
ATOM     11  N   UNL     1       4.393   3.741  19.288  0.00  0.00    +0.000 N 
ENDROOT
BRANCH   1  12
ATOM     12  N   UNL     1       6.265   4.288  17.834  0.00  0.00    +0.000 N 
ATOM     13  H   UNL     1       6.991   4.893  18.247  0.00  0.00    +0.000 HD
BRANCH  12  14
ATOM     14  C   UNL     1       6.468   4.385  16.372  0.00  0.00    +0.000 C 
BRANCH  14  15
ATOM     15  C   UNL     1       7.454   5.532  16.003  0.00  0.00    +0.000 C 
BRANCH  15  17
ATOM     16  C   UNL     1       7.699   7.423  17.442  0.00  0.00    +0.000 C 
ATOM     17  O   UNL     1       6.986   6.831  16.372  0.00  0.00    +0.000 OA
ENDBRANCH  15  17
BRANCH  15  18
ATOM     18  O   UNL     1       7.676   5.479  14.585  0.00  0.00    +0.000 OA
ATOM     19  C   UNL     1       6.799   4.569  13.937  0.00  0.00    +0.000 C 
ENDBRANCH  15  18
ENDBRANCH  14  15
ENDBRANCH  12  14
ENDBRANCH   1  12
TORSDOF 5
ENDMDL
MODEL 6
REMARK VINA RESULT:      -6.2      3.650      5.731
REMARK  Name = 
REMARK  8 active torsions:
REMARK  status: ('A' for Active; 'I' for Inactive)
REMARK    1  A    between atoms: C_1  and  O_2
REMARK    2  A    between atoms: O_2  and  C_3
REMARK    3  A    between atoms: C_3  and  C_4
REMARK    4  A    between atoms: C_3  and  O_17
REMARK    5  A    between atoms: C_4  and  N_5
REMARK    6  A    between atoms: N_5  and  C_6
REMARK    7  A    between atoms: C_8  and  C_9
REMARK    8  A    between atoms: O_17  and  C_18
REMARK                            x       y       z     vdW  Elec       q    Type
REMARK                         _______ _______ _______ _____ _____    ______ ____
ROOT
ATOM      1  C   UNL     1       6.082   4.645  17.873  0.00  0.00    +0.000 A 
ATOM      2  C   UNL     1       6.619   5.753  18.414  0.00  0.00    +0.000 A 
ATOM      3  C   UNL     1       7.416   6.634  17.509  0.00  0.00    +0.000 A 
ATOM      4  C   UNL     1       8.075   7.840  18.128  0.00  0.00    +0.000 C 
ATOM      5  N   UNL     1       7.598   6.430  16.236  0.00  0.00    +0.000 NA
ATOM      6  C   UNL     1       7.020   5.309  15.708  0.00  0.00    +0.000 A 
ATOM      7  C   UNL     1       6.985   4.791  14.437  0.00  0.00    +0.000 A 
ATOM      8 BR   UNL     1       7.755   5.480  12.881  0.00  0.00    +0.000 Br
ATOM      9  C   UNL     1       6.239   3.613  14.510  0.00  0.00    +0.000 A 
ATOM     10  N   UNL     1       5.813   3.358  15.750  0.00  0.00    +0.000 NA
ATOM     11  N   UNL     1       6.287   4.407  16.491  0.00  0.00    +0.000 N 
ENDROOT
BRANCH   1  12
ATOM     12  N   UNL     1       5.362   3.714  18.631  0.00  0.00    +0.000 N 
ATOM     13  H   UNL     1       5.279   2.843  18.085  0.00  0.00    +0.000 HD
BRANCH  12  14
ATOM     14  C   UNL     1       3.983   4.028  19.066  0.00  0.00    +0.000 C 
BRANCH  14  15
ATOM     15  C   UNL     1       3.010   4.147  17.858  0.00  0.00    +0.000 C 
BRANCH  15  17
ATOM     16  C   UNL     1       2.614   6.448  18.367  0.00  0.00    +0.000 C 
ATOM     17  O   UNL     1       2.055   5.202  17.992  0.00  0.00    +0.000 OA
ENDBRANCH  15  17
BRANCH  15  18
ATOM     18  O   UNL     1       2.330   2.889  17.717  0.00  0.00    +0.000 OA
ATOM     19  C   UNL     1       1.181   2.804  18.549  0.00  0.00    +0.000 C 
ENDBRANCH  15  18
ENDBRANCH  14  15
ENDBRANCH  12  14
ENDBRANCH   1  12
TORSDOF 5
ENDMDL
MODEL 7
REMARK VINA RESULT:      -6.1      1.582      2.271
REMARK  Name = 
REMARK  8 active torsions:
REMARK  status: ('A' for Active; 'I' for Inactive)
REMARK    1  A    between atoms: C_1  and  O_2
REMARK    2  A    between atoms: O_2  and  C_3
REMARK    3  A    between atoms: C_3  and  C_4
REMARK    4  A    between atoms: C_3  and  O_17
REMARK    5  A    between atoms: C_4  and  N_5
REMARK    6  A    between atoms: N_5  and  C_6
REMARK    7  A    between atoms: C_8  and  C_9
REMARK    8  A    between atoms: O_17  and  C_18
REMARK                            x       y       z     vdW  Elec       q    Type
REMARK                         _______ _______ _______ _____ _____    ______ ____
ROOT
ATOM      1  C   UNL     1       4.565   5.855  17.237  0.00  0.00    +0.000 A 
ATOM      2  C   UNL     1       3.925   7.038  17.278  0.00  0.00    +0.000 A 
ATOM      3  C   UNL     1       2.835   7.185  18.288  0.00  0.00    +0.000 A 
ATOM      4  C   UNL     1       2.073   8.486  18.290  0.00  0.00    +0.000 C 
ATOM      5  N   UNL     1       2.485   6.275  19.151  0.00  0.00    +0.000 NA
ATOM      6  C   UNL     1       3.169   5.092  19.102  0.00  0.00    +0.000 A 
ATOM      7  C   UNL     1       3.089   3.940  19.845  0.00  0.00    +0.000 A 
ATOM      8 BR   UNL     1       1.952   3.558  21.277  0.00  0.00    +0.000 Br
ATOM      9  C   UNL     1       4.046   3.067  19.325  0.00  0.00    +0.000 A 
ATOM     10  N   UNL     1       4.714   3.599  18.298  0.00  0.00    +0.000 NA
ATOM     11  N   UNL     1       4.181   4.852  18.163  0.00  0.00    +0.000 N 
ENDROOT
BRANCH   1  12
ATOM     12  N   UNL     1       5.565   5.576  16.299  0.00  0.00    +0.000 N 
ATOM     13  H   UNL     1       5.464   4.596  15.994  0.00  0.00    +0.000 HD
BRANCH  12  14
ATOM     14  C   UNL     1       6.989   5.716  16.677  0.00  0.00    +0.000 C 
BRANCH  14  15
ATOM     15  C   UNL     1       7.212   6.909  17.651  0.00  0.00    +0.000 C 
BRANCH  15  17
ATOM     16  C   UNL     1       8.141   9.092  17.927  0.00  0.00    +0.000 C 
ATOM     17  O   UNL     1       7.783   8.061  17.026  0.00  0.00    +0.000 OA
ENDBRANCH  15  17
BRANCH  15  18
ATOM     18  O   UNL     1       8.068   6.455  18.711  0.00  0.00    +0.000 OA
ATOM     19  C   UNL     1       7.412   5.540  19.578  0.00  0.00    +0.000 C 
ENDBRANCH  15  18
ENDBRANCH  14  15
ENDBRANCH  12  14
ENDBRANCH   1  12
TORSDOF 5
ENDMDL
MODEL 8
REMARK VINA RESULT:      -6.1      1.414      2.285
REMARK  Name = 
REMARK  8 active torsions:
REMARK  status: ('A' for Active; 'I' for Inactive)
REMARK    1  A    between atoms: C_1  and  O_2
REMARK    2  A    between atoms: O_2  and  C_3
REMARK    3  A    between atoms: C_3  and  C_4
REMARK    4  A    between atoms: C_3  and  O_17
REMARK    5  A    between atoms: C_4  and  N_5
REMARK    6  A    between atoms: N_5  and  C_6
REMARK    7  A    between atoms: C_8  and  C_9
REMARK    8  A    between atoms: O_17  and  C_18
REMARK                            x       y       z     vdW  Elec       q    Type
REMARK                         _______ _______ _______ _____ _____    ______ ____
ROOT
ATOM      1  C   UNL     1       5.111   4.704  18.406  0.00  0.00    +0.000 A 
ATOM      2  C   UNL     1       4.481   5.851  18.092  0.00  0.00    +0.000 A 
ATOM      3  C   UNL     1       3.120   6.058  18.671  0.00  0.00    +0.000 A 
ATOM      4  C   UNL     1       2.386   7.312  18.267  0.00  0.00    +0.000 C 
ATOM      5  N   UNL     1       2.517   5.236  19.480  0.00  0.00    +0.000 NA
ATOM      6  C   UNL     1       3.191   4.089  19.800  0.00  0.00    +0.000 A 
ATOM      7  C   UNL     1       2.884   3.027  20.613  0.00  0.00    +0.000 A 
ATOM      8 BR   UNL     1       1.346   2.755  21.639  0.00  0.00    +0.000 Br
ATOM      9  C   UNL     1       3.967   2.149  20.541  0.00  0.00    +0.000 A 
ATOM     10  N   UNL     1       4.928   2.593  19.728  0.00  0.00    +0.000 NA
ATOM     11  N   UNL     1       4.455   3.795  19.274  0.00  0.00    +0.000 N 
ENDROOT
BRANCH   1  12
ATOM     12  N   UNL     1       6.365   4.370  17.881  0.00  0.00    +0.000 N 
ATOM     13  H   UNL     1       7.054   5.062  18.213  0.00  0.00    +0.000 HD
BRANCH  12  14
ATOM     14  C   UNL     1       6.557   4.307  16.416  0.00  0.00    +0.000 C 
BRANCH  14  15
ATOM     15  C   UNL     1       6.958   5.691  15.828  0.00  0.00    +0.000 C 
BRANCH  15  17
ATOM     16  C   UNL     1       6.972   4.667  13.669  0.00  0.00    +0.000 C 
ATOM     17  O   UNL     1       7.571   5.611  14.539  0.00  0.00    +0.000 OA
ENDBRANCH  15  17
BRANCH  15  18
ATOM     18  O   UNL     1       7.857   6.318  16.756  0.00  0.00    +0.000 OA
ATOM     19  C   UNL     1       7.410   7.608  17.149  0.00  0.00    +0.000 C 
ENDBRANCH  15  18
ENDBRANCH  14  15
ENDBRANCH  12  14
ENDBRANCH   1  12
TORSDOF 5
ENDMDL
MODEL 9
REMARK VINA RESULT:      -6.1      1.635      2.291
REMARK  Name = 
REMARK  8 active torsions:
REMARK  status: ('A' for Active; 'I' for Inactive)
REMARK    1  A    between atoms: C_1  and  O_2
REMARK    2  A    between atoms: O_2  and  C_3
REMARK    3  A    between atoms: C_3  and  C_4
REMARK    4  A    between atoms: C_3  and  O_17
REMARK    5  A    between atoms: C_4  and  N_5
REMARK    6  A    between atoms: N_5  and  C_6
REMARK    7  A    between atoms: C_8  and  C_9
REMARK    8  A    between atoms: O_17  and  C_18
REMARK                            x       y       z     vdW  Elec       q    Type
REMARK                         _______ _______ _______ _____ _____    ______ ____
ROOT
ATOM      1  C   UNL     1       5.198   5.256  18.987  0.00  0.00    +0.000 A 
ATOM      2  C   UNL     1       4.603   6.423  18.679  0.00  0.00    +0.000 A 
ATOM      3  C   UNL     1       3.130   6.392  18.440  0.00  0.00    +0.000 A 
ATOM      4  C   UNL     1       2.473   7.686  18.029  0.00  0.00    +0.000 C 
ATOM      5  N   UNL     1       2.376   5.335  18.542  0.00  0.00    +0.000 NA
ATOM      6  C   UNL     1       3.004   4.168  18.880  0.00  0.00    +0.000 A 
ATOM      7  C   UNL     1       2.544   2.891  19.089  0.00  0.00    +0.000 A 
ATOM      8 BR   UNL     1       0.790   2.258  18.986  0.00  0.00    +0.000 Br
ATOM      9  C   UNL     1       3.660   2.117  19.408  0.00  0.00    +0.000 A 
ATOM     10  N   UNL     1       4.791   2.828  19.404  0.00  0.00    +0.000 NA
ATOM     11  N   UNL     1       4.388   4.097  19.086  0.00  0.00    +0.000 N 
ENDROOT
BRANCH   1  12
ATOM     12  N   UNL     1       6.580   5.147  19.178  0.00  0.00    +0.000 N 
ATOM     13  H   UNL     1       6.914   6.001  19.649  0.00  0.00    +0.000 HD
BRANCH  12  14
ATOM     14  C   UNL     1       7.473   4.977  18.011  0.00  0.00    +0.000 C 
BRANCH  14  15
ATOM     15  C   UNL     1       6.981   5.798  16.784  0.00  0.00    +0.000 C 
BRANCH  15  17
ATOM     16  C   UNL     1       6.054   3.896  15.676  0.00  0.00    +0.000 C 
ATOM     17  O   UNL     1       6.891   5.033  15.580  0.00  0.00    +0.000 OA
ENDBRANCH  15  17
BRANCH  15  18
ATOM     18  O   UNL     1       7.889   6.895  16.598  0.00  0.00    +0.000 OA
ATOM     19  C   UNL     1       7.612   7.978  17.475  0.00  0.00    +0.000 C 
ENDBRANCH  15  18
ENDBRANCH  14  15
ENDBRANCH  12  14
ENDBRANCH   1  12
TORSDOF 5
ENDMDL
