MODEL 1
REMARK VINA RESULT:      -8.0      0.000      0.000
REMARK  Name = 
REMARK  7 active torsions:
REMARK  status: ('A' for Active; 'I' for Inactive)
REMARK    1  A    between atoms: C_2  and  C_10
REMARK    2  A    between atoms: N_3  and  C_4
REMARK    3  A    between atoms: C_4  and  C_5
REMARK    4  A    between atoms: N_12  and  C_13
REMARK    5  A    between atoms: C_13  and  C_14
REMARK    6  A    between atoms: N_19  and  S_20
REMARK    7  A    between atoms: S_20  and  C_23
REMARK                            x       y       z     vdW  Elec       q    Type
REMARK                         _______ _______ _______ _____ _____    ______ ____
ROOT
ATOM      1  C   UNL     1       2.106   6.244  20.578  0.00  0.00    +0.000 C 
ENDROOT
BRANCH   1   2
ATOM      2  C   UNL     1       2.455   5.001  19.691  0.00  0.00    +0.000 C 
ATOM      3  O   UNL     1       1.333   4.374  19.083  0.00  0.00    +0.000 OA
ATOM      4  C   UNL     1       0.527   3.568  19.926  0.00  0.00    +0.000 C 
ATOM      5  C   UNL     1       1.305   2.607  20.808  0.00  0.00    +0.000 C 
ATOM      6  C   UNL     1       2.587   3.201  21.367  0.00  0.00    +0.000 C 
ATOM      7  N   UNL     1       3.307   3.985  20.346  0.00  0.00    +0.000 NA
BRANCH   7   8
ATOM      8  S   UNL     1       4.278   3.085  19.252  0.00  0.00    +0.000 S 
ATOM      9  O   UNL     1       5.212   2.279  20.006  0.00  0.00    +0.000 OA
ATOM     10  O   UNL     1       3.428   2.492  18.243  0.00  0.00    +0.000 OA
BRANCH   8  11
ATOM     11  C   UNL     1       5.217   4.332  18.396  0.00  0.00    +0.000 A 
ATOM     12  C   UNL     1       6.172   5.094  19.079  0.00  0.00    +0.000 A 
ATOM     13  C   UNL     1       7.023   5.935  18.358  0.00  0.00    +0.000 A 
ATOM     14  C   UNL     1       6.922   6.011  16.967  0.00  0.00    +0.000 A 
ATOM     15  C   UNL     1       5.964   5.253  16.292  0.00  0.00    +0.000 A 
ATOM     16  C   UNL     1       5.110   4.410  17.002  0.00  0.00    +0.000 A 
ENDBRANCH   8  11
ENDBRANCH   7   8
ENDBRANCH   1   2
BRANCH   1  19
ATOM     17  C   UNL     1       2.284   7.942  18.729  0.00  0.00    +0.000 C 
ATOM     18  O   UNL     1       3.176   7.414  18.086  0.00  0.00    +0.000 OA
ATOM     19  N   UNL     1       1.720   7.473  19.895  0.00  0.00    +0.000 N 
ATOM     20  H   UNL     1       0.879   7.959  20.189  0.00  0.00    +0.000 HD
BRANCH  17  22
ATOM     21  O   UNL     1       2.232   9.940  17.408  0.00  0.00    +0.000 OA
ATOM     22  C   UNL     1       1.674   9.297  18.286  0.00  0.00    +0.000 C 
ATOM     23  N   UNL     1       0.510   9.658  18.930  0.00  0.00    +0.000 N 
ATOM     24  H   UNL     1       0.230   9.108  19.737  0.00  0.00    +0.000 HD
BRANCH  23  25
ATOM     25  C   UNL     1      -0.103  10.937  18.675  0.00  0.00    +0.000 C 
BRANCH  25  26
ATOM     26  C   UNL     1      -1.469  10.749  18.094  0.00  0.00    +0.000 A 
ATOM     27  C   UNL     1      -1.854   9.899  17.074  0.00  0.00    +0.000 A 
ATOM     28  C   UNL     1      -3.223  10.067  16.709  0.00  0.00    +0.000 A 
ATOM     29  C   UNL     1      -3.843  11.027  17.475  0.00  0.00    +0.000 A 
ATOM     30  S   UNL     1      -2.784  11.708  18.632  0.00  0.00    +0.000 S 
ENDBRANCH  25  26
ENDBRANCH  23  25
ENDBRANCH  17  22
ENDBRANCH   1  19
TORSDOF 7
ENDMDL
MODEL 2
REMARK VINA RESULT:      -7.9      1.074      1.074
REMARK  Name = 
REMARK  7 active torsions:
REMARK  status: ('A' for Active; 'I' for Inactive)
REMARK    1  A    between atoms: C_2  and  C_10
REMARK    2  A    between atoms: N_3  and  C_4
REMARK    3  A    between atoms: C_4  and  C_5
REMARK    4  A    between atoms: N_12  and  C_13
REMARK    5  A    between atoms: C_13  and  C_14
REMARK    6  A    between atoms: N_19  and  S_20
REMARK    7  A    between atoms: S_20  and  C_23
REMARK                            x       y       z     vdW  Elec       q    Type
REMARK                         _______ _______ _______ _____ _____    ______ ____
ROOT
ATOM      1  C   UNL     1       2.132   6.165  20.590  0.00  0.00    +0.000 C 
ENDROOT
BRANCH   1   2
ATOM      2  C   UNL     1       2.499   4.940  19.687  0.00  0.00    +0.000 C 
ATOM      3  O   UNL     1       1.392   4.335  19.030  0.00  0.00    +0.000 OA
ATOM      4  C   UNL     1       0.554   3.517  19.828  0.00  0.00    +0.000 C 
ATOM      5  C   UNL     1       1.297   2.530  20.711  0.00  0.00    +0.000 C 
ATOM      6  C   UNL     1       2.565   3.101  21.325  0.00  0.00    +0.000 C 
ATOM      7  N   UNL     1       3.322   3.902  20.345  0.00  0.00    +0.000 NA
BRANCH   7   8
ATOM      8  S   UNL     1       4.321   3.019  19.262  0.00  0.00    +0.000 S 
ATOM      9  O   UNL     1       5.216   2.179  20.026  0.00  0.00    +0.000 OA
ATOM     10  O   UNL     1       3.501   2.468  18.205  0.00  0.00    +0.000 OA
BRANCH   8  11
ATOM     11  C   UNL     1       5.308   4.276  18.477  0.00  0.00    +0.000 A 
ATOM     12  C   UNL     1       6.165   5.082  19.235  0.00  0.00    +0.000 A 
ATOM     13  C   UNL     1       7.062   5.934  18.586  0.00  0.00    +0.000 A 
ATOM     14  C   UNL     1       7.103   5.976  17.191  0.00  0.00    +0.000 A 
ATOM     15  C   UNL     1       6.242   5.175  16.439  0.00  0.00    +0.000 A 
ATOM     16  C   UNL     1       5.344   4.321  17.078  0.00  0.00    +0.000 A 
ENDBRANCH   8  11
ENDBRANCH   7   8
ENDBRANCH   1   2
BRANCH   1  19
ATOM     17  C   UNL     1       1.330   8.550  20.565  0.00  0.00    +0.000 C 
ATOM     18  O   UNL     1       1.298   8.741  21.770  0.00  0.00    +0.000 OA
ATOM     19  N   UNL     1       1.706   7.390  19.925  0.00  0.00    +0.000 N 
ATOM     20  H   UNL     1       1.831   7.477  18.922  0.00  0.00    +0.000 HD
BRANCH  17  22
ATOM     21  O   UNL     1       1.621   9.920  18.621  0.00  0.00    +0.000 OA
ATOM     22  C   UNL     1       0.896   9.656  19.570  0.00  0.00    +0.000 C 
ATOM     23  N   UNL     1      -0.318  10.250  19.842  0.00  0.00    +0.000 N 
ATOM     24  H   UNL     1      -0.753  10.041  20.736  0.00  0.00    +0.000 HD
BRANCH  23  25
ATOM     25  C   UNL     1      -0.790  11.355  19.045  0.00  0.00    +0.000 C 
BRANCH  25  26
ATOM     26  C   UNL     1      -1.891  10.905  18.138  0.00  0.00    +0.000 A 
ATOM     27  C   UNL     1      -1.820  10.011  17.086  0.00  0.00    +0.000 A 
ATOM     28  C   UNL     1      -3.052   9.906  16.373  0.00  0.00    +0.000 A 
ATOM     29  C   UNL     1      -4.029  10.710  16.915  0.00  0.00    +0.000 A 
ATOM     30  S   UNL     1      -3.465  11.572  18.281  0.00  0.00    +0.000 S 
ENDBRANCH  25  26
ENDBRANCH  23  25
ENDBRANCH  17  22
ENDBRANCH   1  19
TORSDOF 7
ENDMDL
MODEL 3
REMARK VINA RESULT:      -7.8      1.743      2.331
REMARK  Name = 
REMARK  7 active torsions:
REMARK  status: ('A' for Active; 'I' for Inactive)
REMARK    1  A    between atoms: C_2  and  C_10
REMARK    2  A    between atoms: N_3  and  C_4
REMARK    3  A    between atoms: C_4  and  C_5
REMARK    4  A    between atoms: N_12  and  C_13
REMARK    5  A    between atoms: C_13  and  C_14
REMARK    6  A    between atoms: N_19  and  S_20
REMARK    7  A    between atoms: S_20  and  C_23
REMARK                            x       y       z     vdW  Elec       q    Type
REMARK                         _______ _______ _______ _____ _____    ______ ____
ROOT
ATOM      1  C   UNL     1       2.383   6.055  20.188  0.00  0.00    +0.000 C 
ENDROOT
BRANCH   1   2
ATOM      2  C   UNL     1       2.200   4.850  19.204  0.00  0.00    +0.000 C 
ATOM      3  O   UNL     1       0.974   4.146  19.352  0.00  0.00    +0.000 OA
ATOM      4  C   UNL     1       0.877   3.273  20.464  0.00  0.00    +0.000 C 
ATOM      5  C   UNL     1       2.079   2.365  20.658  0.00  0.00    +0.000 C 
ATOM      6  C   UNL     1       3.406   3.050  20.374  0.00  0.00    +0.000 C 
ATOM      7  N   UNL     1       3.329   3.895  19.169  0.00  0.00    +0.000 NA
BRANCH   7   8
ATOM      8  S   UNL     1       3.502   3.081  17.666  0.00  0.00    +0.000 S 
ATOM      9  O   UNL     1       3.871   1.706  17.916  0.00  0.00    +0.000 OA
ATOM     10  O   UNL     1       2.376   3.409  16.819  0.00  0.00    +0.000 OA
BRANCH   8  11
ATOM     11  C   UNL     1       4.901   3.882  16.910  0.00  0.00    +0.000 A 
ATOM     12  C   UNL     1       5.961   4.348  17.696  0.00  0.00    +0.000 A 
ATOM     13  C   UNL     1       7.126   4.806  17.077  0.00  0.00    +0.000 A 
ATOM     14  C   UNL     1       7.231   4.794  15.684  0.00  0.00    +0.000 A 
ATOM     15  C   UNL     1       6.169   4.333  14.905  0.00  0.00    +0.000 A 
ATOM     16  C   UNL     1       5.002   3.873  15.514  0.00  0.00    +0.000 A 
ENDBRANCH   8  11
ENDBRANCH   7   8
ENDBRANCH   1   2
BRANCH   1  19
ATOM     17  C   UNL     1       2.314   8.009  18.604  0.00  0.00    +0.000 C 
ATOM     18  O   UNL     1       3.117   7.601  17.781  0.00  0.00    +0.000 OA
ATOM     19  N   UNL     1       1.908   7.362  19.750  0.00  0.00    +0.000 N 
ATOM     20  H   UNL     1       1.111   7.781  20.218  0.00  0.00    +0.000 HD
BRANCH  17  22
ATOM     21  O   UNL     1       2.064  10.164  17.589  0.00  0.00    +0.000 OA
ATOM     22  C   UNL     1       1.649   9.400  18.449  0.00  0.00    +0.000 C 
ATOM     23  N   UNL     1       0.603   9.653  19.310  0.00  0.00    +0.000 N 
ATOM     24  H   UNL     1       0.451   8.995  20.069  0.00  0.00    +0.000 HD
BRANCH  23  25
ATOM     25  C   UNL     1      -0.038  10.944  19.328  0.00  0.00    +0.000 C 
BRANCH  25  26
ATOM     26  C   UNL     1      -0.585  11.232  20.690  0.00  0.00    +0.000 A 
ATOM     27  C   UNL     1      -0.261  10.621  21.888  0.00  0.00    +0.000 A 
ATOM     28  C   UNL     1      -1.066  11.082  22.972  0.00  0.00    +0.000 A 
ATOM     29  C   UNL     1      -1.966  12.043  22.570  0.00  0.00    +0.000 A 
ATOM     30  S   UNL     1      -1.829  12.393  20.902  0.00  0.00    +0.000 S 
ENDBRANCH  25  26
ENDBRANCH  23  25
ENDBRANCH  17  22
ENDBRANCH   1  19
TORSDOF 7
ENDMDL
MODEL 4
REMARK VINA RESULT:      -7.7      1.439      1.652
REMARK  Name = 
REMARK  7 active torsions:
REMARK  status: ('A' for Active; 'I' for Inactive)
REMARK    1  A    between atoms: C_2  and  C_10
REMARK    2  A    between atoms: N_3  and  C_4
REMARK    3  A    between atoms: C_4  and  C_5
REMARK    4  A    between atoms: N_12  and  C_13
REMARK    5  A    between atoms: C_13  and  C_14
REMARK    6  A    between atoms: N_19  and  S_20
REMARK    7  A    between atoms: S_20  and  C_23
REMARK                            x       y       z     vdW  Elec       q    Type
REMARK                         _______ _______ _______ _____ _____    ______ ____
ROOT
ATOM      1  C   UNL     1       2.069   5.895  21.048  0.00  0.00    +0.000 C 
ENDROOT
BRANCH   1   2
ATOM      2  C   UNL     1       1.777   4.813  19.954  0.00  0.00    +0.000 C 
ATOM      3  O   UNL     1       0.793   3.854  20.318  0.00  0.00    +0.000 OA
ATOM      4  C   UNL     1       1.199   2.847  21.229  0.00  0.00    +0.000 C 
ATOM      5  C   UNL     1       2.528   2.195  20.894  0.00  0.00    +0.000 C 
ATOM      6  C   UNL     1       3.567   3.174  20.369  0.00  0.00    +0.000 C 
ATOM      7  N   UNL     1       2.973   4.129  19.416  0.00  0.00    +0.000 NA
BRANCH   7   8
ATOM      8  S   UNL     1       2.785   3.566  17.805  0.00  0.00    +0.000 S 
ATOM      9  O   UNL     1       3.022   2.140  17.773  0.00  0.00    +0.000 OA
ATOM     10  O   UNL     1       1.577   4.134  17.244  0.00  0.00    +0.000 OA
BRANCH   8  11
ATOM     11  C   UNL     1       4.119   4.350  16.924  0.00  0.00    +0.000 A 
ATOM     12  C   UNL     1       4.312   5.733  17.013  0.00  0.00    +0.000 A 
ATOM     13  C   UNL     1       5.464   6.303  16.467  0.00  0.00    +0.000 A 
ATOM     14  C   UNL     1       6.417   5.496  15.841  0.00  0.00    +0.000 A 
ATOM     15  C   UNL     1       6.217   4.118  15.750  0.00  0.00    +0.000 A 
ATOM     16  C   UNL     1       5.070   3.539  16.293  0.00  0.00    +0.000 A 
ENDBRANCH   8  11
ENDBRANCH   7   8
ENDBRANCH   1   2
BRANCH   1  19
ATOM     17  C   UNL     1       1.752   8.068  19.818  0.00  0.00    +0.000 C 
ATOM     18  O   UNL     1       2.512   7.860  18.887  0.00  0.00    +0.000 OA
ATOM     19  N   UNL     1       1.479   7.216  20.865  0.00  0.00    +0.000 N 
ATOM     20  H   UNL     1       0.696   7.492  21.448  0.00  0.00    +0.000 HD
BRANCH  17  22
ATOM     21  O   UNL     1       0.921   9.959  21.032  0.00  0.00    +0.000 OA
ATOM     22  C   UNL     1       0.988   9.411  19.940  0.00  0.00    +0.000 C 
ATOM     23  N   UNL     1       0.451   9.893  18.765  0.00  0.00    +0.000 N 
ATOM     24  H   UNL     1       0.455   9.275  17.960  0.00  0.00    +0.000 HD
BRANCH  23  25
ATOM     25  C   UNL     1      -0.360  11.085  18.764  0.00  0.00    +0.000 C 
BRANCH  25  26
ATOM     26  C   UNL     1      -1.665  10.822  18.082  0.00  0.00    +0.000 A 
ATOM     27  C   UNL     1      -1.926   9.945  17.045  0.00  0.00    +0.000 A 
ATOM     28  C   UNL     1      -3.270  10.039  16.575  0.00  0.00    +0.000 A 
ATOM     29  C   UNL     1      -3.996  10.971  17.281  0.00  0.00    +0.000 A 
ATOM     30  S   UNL     1      -3.066  11.714  18.508  0.00  0.00    +0.000 S 
ENDBRANCH  25  26
ENDBRANCH  23  25
ENDBRANCH  17  22
ENDBRANCH   1  19
TORSDOF 7
ENDMDL
MODEL 5
REMARK VINA RESULT:      -7.7      1.768      4.092
REMARK  Name = 
REMARK  7 active torsions:
REMARK  status: ('A' for Active; 'I' for Inactive)
REMARK    1  A    between atoms: C_2  and  C_10
REMARK    2  A    between atoms: N_3  and  C_4
REMARK    3  A    between atoms: C_4  and  C_5
REMARK    4  A    between atoms: N_12  and  C_13
REMARK    5  A    between atoms: C_13  and  C_14
REMARK    6  A    between atoms: N_19  and  S_20
REMARK    7  A    between atoms: S_20  and  C_23
REMARK                            x       y       z     vdW  Elec       q    Type
REMARK                         _______ _______ _______ _____ _____    ______ ____
ROOT
ATOM      1  C   UNL     1       3.860   7.538  17.236  0.00  0.00    +0.000 C 
ENDROOT
BRANCH   1   2
ATOM      2  C   UNL     1       4.584   6.288  17.839  0.00  0.00    +0.000 C 
ATOM      3  O   UNL     1       5.967   6.477  18.110  0.00  0.00    +0.000 OA
ATOM      4  C   UNL     1       6.837   6.461  16.992  0.00  0.00    +0.000 C 
ATOM      5  C   UNL     1       6.600   5.312  16.028  0.00  0.00    +0.000 C 
ATOM      6  C   UNL     1       5.129   4.990  15.819  0.00  0.00    +0.000 C 
ATOM      7  N   UNL     1       4.385   5.028  17.091  0.00  0.00    +0.000 NA
BRANCH   7   8
ATOM      8  S   UNL     1       4.488   3.618  18.066  0.00  0.00    +0.000 S 
ATOM      9  O   UNL     1       4.446   2.451  17.213  0.00  0.00    +0.000 OA
ATOM     10  O   UNL     1       5.544   3.792  19.039  0.00  0.00    +0.000 OA
BRANCH   8  11
ATOM     11  C   UNL     1       2.977   3.645  19.009  0.00  0.00    +0.000 A 
ATOM     12  C   UNL     1       1.763   3.284  18.414  0.00  0.00    +0.000 A 
ATOM     13  C   UNL     1       0.625   3.136  19.210  0.00  0.00    +0.000 A 
ATOM     14  C   UNL     1       0.702   3.342  20.589  0.00  0.00    +0.000 A 
ATOM     15  C   UNL     1       1.915   3.706  21.177  0.00  0.00    +0.000 A 
ATOM     16  C   UNL     1       3.057   3.857  20.391  0.00  0.00    +0.000 A 
ENDBRANCH   8  11
ENDBRANCH   7   8
ENDBRANCH   1   2
BRANCH   1  19
ATOM     17  C   UNL     1       2.214   9.311  17.927  0.00  0.00    +0.000 C 
ATOM     18  O   UNL     1       2.752  10.271  17.401  0.00  0.00    +0.000 OA
ATOM     19  N   UNL     1       2.651   8.005  17.903  0.00  0.00    +0.000 N 
ATOM     20  H   UNL     1       1.984   7.325  18.251  0.00  0.00    +0.000 HD
BRANCH  17  22
ATOM     21  O   UNL     1       0.839   8.952  19.856  0.00  0.00    +0.000 OA
ATOM     22  C   UNL     1       0.914   9.480  18.756  0.00  0.00    +0.000 C 
ATOM     23  N   UNL     1      -0.066  10.249  18.165  0.00  0.00    +0.000 N 
ATOM     24  H   UNL     1       0.065  10.510  17.192  0.00  0.00    +0.000 HD
BRANCH  23  25
ATOM     25  C   UNL     1      -1.354  10.404  18.793  0.00  0.00    +0.000 C 
BRANCH  25  26
ATOM     26  C   UNL     1      -2.425  10.520  17.755  0.00  0.00    +0.000 A 
ATOM     27  C   UNL     1      -2.470   9.931  16.504  0.00  0.00    +0.000 A 
ATOM     28  C   UNL     1      -3.599  10.355  15.741  0.00  0.00    +0.000 A 
ATOM     29  C   UNL     1      -4.388  11.240  16.440  0.00  0.00    +0.000 A 
ATOM     30  S   UNL     1      -3.777  11.544  18.008  0.00  0.00    +0.000 S 
ENDBRANCH  25  26
ENDBRANCH  23  25
ENDBRANCH  17  22
ENDBRANCH   1  19
TORSDOF 7
ENDMDL
MODEL 6
REMARK VINA RESULT:      -7.6      4.019      7.248
REMARK  Name = 
REMARK  7 active torsions:
REMARK  status: ('A' for Active; 'I' for Inactive)
REMARK    1  A    between atoms: C_2  and  C_10
REMARK    2  A    between atoms: N_3  and  C_4
REMARK    3  A    between atoms: C_4  and  C_5
REMARK    4  A    between atoms: N_12  and  C_13
REMARK    5  A    between atoms: C_13  and  C_14
REMARK    6  A    between atoms: N_19  and  S_20
REMARK    7  A    between atoms: S_20  and  C_23
REMARK                            x       y       z     vdW  Elec       q    Type
REMARK                         _______ _______ _______ _____ _____    ______ ____
ROOT
ATOM      1  C   UNL     1       5.992   4.318  18.492  0.00  0.00    +0.000 C 
ENDROOT
BRANCH   1   2
ATOM      2  C   UNL     1       4.542   4.108  19.045  0.00  0.00    +0.000 C 
ATOM      3  O   UNL     1       4.449   3.195  20.131  0.00  0.00    +0.000 OA
ATOM      4  C   UNL     1       4.542   1.818  19.806  0.00  0.00    +0.000 C 
ATOM      5  C   UNL     1       3.682   1.390  18.630  0.00  0.00    +0.000 C 
ATOM      6  C   UNL     1       3.648   2.409  17.503  0.00  0.00    +0.000 C 
ATOM      7  N   UNL     1       3.523   3.783  18.024  0.00  0.00    +0.000 NA
BRANCH   7   8
ATOM      8  S   UNL     1       1.936   4.289  18.441  0.00  0.00    +0.000 S 
ATOM      9  O   UNL     1       1.081   4.159  17.283  0.00  0.00    +0.000 OA
ATOM     10  O   UNL     1       1.569   3.695  19.709  0.00  0.00    +0.000 OA
BRANCH   8  11
ATOM     11  C   UNL     1       2.120   6.028  18.778  0.00  0.00    +0.000 A 
ATOM     12  C   UNL     1       2.363   6.929  17.736  0.00  0.00    +0.000 A 
ATOM     13  C   UNL     1       2.324   8.302  17.991  0.00  0.00    +0.000 A 
ATOM     14  C   UNL     1       2.040   8.768  19.277  0.00  0.00    +0.000 A 
ATOM     15  C   UNL     1       1.804   7.864  20.314  0.00  0.00    +0.000 A 
ATOM     16  C   UNL     1       1.841   6.491  20.069  0.00  0.00    +0.000 A 
ENDBRANCH   8  11
ENDBRANCH   7   8
ENDBRANCH   1   2
BRANCH   1  19
ATOM     17  C   UNL     1       7.432   6.380  18.433  0.00  0.00    +0.000 C 
ATOM     18  O   UNL     1       8.265   6.041  19.258  0.00  0.00    +0.000 OA
ATOM     19  N   UNL     1       6.345   5.648  18.011  0.00  0.00    +0.000 N 
ATOM     20  H   UNL     1       5.865   6.025  17.200  0.00  0.00    +0.000 HD
BRANCH  17  22
ATOM     21  O   UNL     1       6.836   7.977  16.750  0.00  0.00    +0.000 OA
ATOM     22  C   UNL     1       7.501   7.773  17.755  0.00  0.00    +0.000 C 
ATOM     23  N   UNL     1       8.320   8.691  18.377  0.00  0.00    +0.000 N 
ATOM     24  H   UNL     1       8.926   8.353  19.119  0.00  0.00    +0.000 HD
BRANCH  23  25
ATOM     25  C   UNL     1       8.542   9.990  17.793  0.00  0.00    +0.000 C 
BRANCH  25  26
ATOM     26  C   UNL     1       9.545  10.755  18.596  0.00  0.00    +0.000 A 
ATOM     27  C   UNL     1      10.712  11.354  18.158  0.00  0.00    +0.000 A 
ATOM     28  C   UNL     1      11.479  11.904  19.228  0.00  0.00    +0.000 A 
ATOM     29  C   UNL     1      10.865  11.722  20.446  0.00  0.00    +0.000 A 
ATOM     30  S   UNL     1       9.369  10.908  20.295  0.00  0.00    +0.000 S 
ENDBRANCH  25  26
ENDBRANCH  23  25
ENDBRANCH  17  22
ENDBRANCH   1  19
TORSDOF 7
ENDMDL
MODEL 7
REMARK VINA RESULT:      -7.5      1.611      2.058
REMARK  Name = 
REMARK  7 active torsions:
REMARK  status: ('A' for Active; 'I' for Inactive)
REMARK    1  A    between atoms: C_2  and  C_10
REMARK    2  A    between atoms: N_3  and  C_4
REMARK    3  A    between atoms: C_4  and  C_5
REMARK    4  A    between atoms: N_12  and  C_13
REMARK    5  A    between atoms: C_13  and  C_14
REMARK    6  A    between atoms: N_19  and  S_20
REMARK    7  A    between atoms: S_20  and  C_23
REMARK                            x       y       z     vdW  Elec       q    Type
REMARK                         _______ _______ _______ _____ _____    ______ ____
ROOT
ATOM      1  C   UNL     1       2.344   5.927  20.916  0.00  0.00    +0.000 C 
ENDROOT
BRANCH   1   2
ATOM      2  C   UNL     1       1.963   4.863  19.832  0.00  0.00    +0.000 C 
ATOM      3  O   UNL     1       0.822   4.076  20.150  0.00  0.00    +0.000 OA
ATOM      4  C   UNL     1       1.009   3.052  21.112  0.00  0.00    +0.000 C 
ATOM      5  C   UNL     1       2.243   2.196  20.887  0.00  0.00    +0.000 C 
ATOM      6  C   UNL     1       3.451   2.988  20.413  0.00  0.00    +0.000 C 
ATOM      7  N   UNL     1       3.073   3.988  19.397  0.00  0.00    +0.000 NA
BRANCH   7   8
ATOM      8  S   UNL     1       2.907   3.404  17.790  0.00  0.00    +0.000 S 
ATOM      9  O   UNL     1       3.242   1.997  17.764  0.00  0.00    +0.000 OA
ATOM     10  O   UNL     1       1.658   3.883  17.240  0.00  0.00    +0.000 OA
BRANCH   8  11
ATOM     11  C   UNL     1       4.175   4.272  16.891  0.00  0.00    +0.000 A 
ATOM     12  C   UNL     1       4.939   3.609  15.924  0.00  0.00    +0.000 A 
ATOM     13  C   UNL     1       5.799   4.344  15.105  0.00  0.00    +0.000 A 
ATOM     14  C   UNL     1       5.890   5.730  15.249  0.00  0.00    +0.000 A 
ATOM     15  C   UNL     1       5.130   6.386  16.218  0.00  0.00    +0.000 A 
ATOM     16  C   UNL     1       4.268   5.661  17.041  0.00  0.00    +0.000 A 
ENDBRANCH   8  11
ENDBRANCH   7   8
ENDBRANCH   1   2
BRANCH   1  19
ATOM     17  C   UNL     1       1.577   8.152  20.027  0.00  0.00    +0.000 C 
ATOM     18  O   UNL     1       2.249   8.180  19.009  0.00  0.00    +0.000 OA
ATOM     19  N   UNL     1       1.551   7.149  20.970  0.00  0.00    +0.000 N 
ATOM     20  H   UNL     1       0.808   7.227  21.656  0.00  0.00    +0.000 HD
BRANCH  17  22
ATOM     21  O   UNL     1       0.317   9.484  21.569  0.00  0.00    +0.000 OA
ATOM     22  C   UNL     1       0.646   9.334  20.400  0.00  0.00    +0.000 C 
ATOM     23  N   UNL     1       0.274  10.146  19.350  0.00  0.00    +0.000 N 
ATOM     24  H   UNL     1       0.498   9.831  18.411  0.00  0.00    +0.000 HD
BRANCH  23  25
ATOM     25  C   UNL     1      -0.663  11.223  19.552  0.00  0.00    +0.000 C 
BRANCH  25  26
ATOM     26  C   UNL     1      -1.813  11.092  18.605  0.00  0.00    +0.000 A 
ATOM     27  C   UNL     1      -3.029  11.750  18.641  0.00  0.00    +0.000 A 
ATOM     28  C   UNL     1      -3.929  11.293  17.633  0.00  0.00    +0.000 A 
ATOM     29  C   UNL     1      -3.364  10.313  16.848  0.00  0.00    +0.000 A 
ATOM     30  S   UNL     1      -1.758   9.961  17.317  0.00  0.00    +0.000 S 
ENDBRANCH  25  26
ENDBRANCH  23  25
ENDBRANCH  17  22
ENDBRANCH   1  19
TORSDOF 7
ENDMDL
MODEL 8
REMARK VINA RESULT:      -7.5      1.888      2.577
REMARK  Name = 
REMARK  7 active torsions:
REMARK  status: ('A' for Active; 'I' for Inactive)
REMARK    1  A    between atoms: C_2  and  C_10
REMARK    2  A    between atoms: N_3  and  C_4
REMARK    3  A    between atoms: C_4  and  C_5
REMARK    4  A    between atoms: N_12  and  C_13
REMARK    5  A    between atoms: C_13  and  C_14
REMARK    6  A    between atoms: N_19  and  S_20
REMARK    7  A    between atoms: S_20  and  C_23
REMARK                            x       y       z     vdW  Elec       q    Type
REMARK                         _______ _______ _______ _____ _____    ______ ____
ROOT
ATOM      1  C   UNL     1       2.227   5.978  20.452  0.00  0.00    +0.000 C 
ENDROOT
BRANCH   1   2
ATOM      2  C   UNL     1       2.071   4.769  19.468  0.00  0.00    +0.000 C 
ATOM      3  O   UNL     1       0.904   3.984  19.675  0.00  0.00    +0.000 OA
ATOM      4  C   UNL     1       0.926   3.100  20.782  0.00  0.00    +0.000 C 
ATOM      5  C   UNL     1       2.194   2.273  20.901  0.00  0.00    +0.000 C 
ATOM      6  C   UNL     1       3.456   3.046  20.552  0.00  0.00    +0.000 C 
ATOM      7  N   UNL     1       3.257   3.892  19.361  0.00  0.00    +0.000 NA
BRANCH   7   8
ATOM      8  S   UNL     1       3.400   3.101  17.843  0.00  0.00    +0.000 S 
ATOM      9  O   UNL     1       3.708   1.707  18.067  0.00  0.00    +0.000 OA
ATOM     10  O   UNL     1       2.293   3.494  16.999  0.00  0.00    +0.000 OA
BRANCH   8  11
ATOM     11  C   UNL     1       4.836   3.855  17.107  0.00  0.00    +0.000 A 
ATOM     12  C   UNL     1       4.923   4.009  15.719  0.00  0.00    +0.000 A 
ATOM     13  C   UNL     1       5.967   4.762  15.176  0.00  0.00    +0.000 A 
ATOM     14  C   UNL     1       6.912   5.358  16.014  0.00  0.00    +0.000 A 
ATOM     15  C   UNL     1       6.823   5.196  17.397  0.00  0.00    +0.000 A 
ATOM     16  C   UNL     1       5.785   4.447  17.950  0.00  0.00    +0.000 A 
ENDBRANCH   8  11
ENDBRANCH   7   8
ENDBRANCH   1   2
BRANCH   1  19
ATOM     17  C   UNL     1       2.280   7.837  18.757  0.00  0.00    +0.000 C 
ATOM     18  O   UNL     1       2.992   7.301  17.924  0.00  0.00    +0.000 OA
ATOM     19  N   UNL     1       1.868   7.301  19.957  0.00  0.00    +0.000 N 
ATOM     20  H   UNL     1       1.145   7.829  20.435  0.00  0.00    +0.000 HD
BRANCH  17  22
ATOM     21  O   UNL     1       2.086   9.893  17.543  0.00  0.00    +0.000 OA
ATOM     22  C   UNL     1       1.755   9.281  18.548  0.00  0.00    +0.000 C 
ATOM     23  N   UNL     1       0.921   9.754  19.539  0.00  0.00    +0.000 N 
ATOM     24  H   UNL     1       0.840   9.202  20.387  0.00  0.00    +0.000 HD
BRANCH  23  25
ATOM     25  C   UNL     1       0.442  11.113  19.507  0.00  0.00    +0.000 C 
BRANCH  25  26
ATOM     26  C   UNL     1      -0.124  11.493  20.838  0.00  0.00    +0.000 A 
ATOM     27  C   UNL     1      -0.488  10.662  21.881  0.00  0.00    +0.000 A 
ATOM     28  C   UNL     1      -1.094  11.371  22.961  0.00  0.00    +0.000 A 
ATOM     29  C   UNL     1      -1.156  12.724  22.715  0.00  0.00    +0.000 A 
ATOM     30  S   UNL     1      -0.475  13.132  21.200  0.00  0.00    +0.000 S 
ENDBRANCH  25  26
ENDBRANCH  23  25
ENDBRANCH  17  22
ENDBRANCH   1  19
TORSDOF 7
ENDMDL
MODEL 9
REMARK VINA RESULT:      -7.4      1.405      1.612
REMARK  Name = 
REMARK  7 active torsions:
REMARK  status: ('A' for Active; 'I' for Inactive)
REMARK    1  A    between atoms: C_2  and  C_10
REMARK    2  A    between atoms: N_3  and  C_4
REMARK    3  A    between atoms: C_4  and  C_5
REMARK    4  A    between atoms: N_12  and  C_13
REMARK    5  A    between atoms: C_13  and  C_14
REMARK    6  A    between atoms: N_19  and  S_20
REMARK    7  A    between atoms: S_20  and  C_23
REMARK                            x       y       z     vdW  Elec       q    Type
REMARK                         _______ _______ _______ _____ _____    ______ ____
ROOT
ATOM      1  C   UNL     1       2.125   6.414  20.437  0.00  0.00    +0.000 C 
ENDROOT
BRANCH   1   2
ATOM      2  C   UNL     1       2.500   5.146  19.597  0.00  0.00    +0.000 C 
ATOM      3  O   UNL     1       1.396   4.496  18.981  0.00  0.00    +0.000 OA
ATOM      4  C   UNL     1       0.573   3.712  19.827  0.00  0.00    +0.000 C 
ATOM      5  C   UNL     1       1.333   2.781  20.756  0.00  0.00    +0.000 C 
ATOM      6  C   UNL     1       2.598   3.398  21.329  0.00  0.00    +0.000 C 
ATOM      7  N   UNL     1       3.340   4.154  20.303  0.00  0.00    +0.000 NA
BRANCH   7   8
ATOM      8  S   UNL     1       4.341   3.226  19.261  0.00  0.00    +0.000 S 
ATOM      9  O   UNL     1       5.199   2.382  20.061  0.00  0.00    +0.000 OA
ATOM     10  O   UNL     1       3.532   2.672  18.197  0.00  0.00    +0.000 OA
BRANCH   8  11
ATOM     11  C   UNL     1       5.374   4.444  18.472  0.00  0.00    +0.000 A 
ATOM     12  C   UNL     1       6.310   5.169  19.218  0.00  0.00    +0.000 A 
ATOM     13  C   UNL     1       7.233   5.984  18.557  0.00  0.00    +0.000 A 
ATOM     14  C   UNL     1       7.220   6.069  17.163  0.00  0.00    +0.000 A 
ATOM     15  C   UNL     1       6.281   5.348  16.424  0.00  0.00    +0.000 A 
ATOM     16  C   UNL     1       5.356   4.531  17.075  0.00  0.00    +0.000 A 
ENDBRANCH   8  11
ENDBRANCH   7   8
ENDBRANCH   1   2
BRANCH   1  19
ATOM     17  C   UNL     1       1.227   8.760  20.290  0.00  0.00    +0.000 C 
ATOM     18  O   UNL     1       1.090   8.975  21.483  0.00  0.00    +0.000 OA
ATOM     19  N   UNL     1       1.703   7.604  19.710  0.00  0.00    +0.000 N 
ATOM     20  H   UNL     1       1.903   7.675  18.718  0.00  0.00    +0.000 HD
BRANCH  17  22
ATOM     21  O   UNL     1       1.662  10.199  18.425  0.00  0.00    +0.000 OA
ATOM     22  C   UNL     1       0.827   9.824  19.236  0.00  0.00    +0.000 C 
ATOM     23  N   UNL     1      -0.482  10.252  19.299  0.00  0.00    +0.000 N 
ATOM     24  H   UNL     1      -1.030   9.970  20.106  0.00  0.00    +0.000 HD
BRANCH  23  25
ATOM     25  C   UNL     1      -0.951  11.306  18.434  0.00  0.00    +0.000 C 
BRANCH  25  26
ATOM     26  C   UNL     1      -2.301  11.775  18.875  0.00  0.00    +0.000 A 
ATOM     27  C   UNL     1      -2.632  12.455  20.033  0.00  0.00    +0.000 A 
ATOM     28  C   UNL     1      -4.040  12.645  20.171  0.00  0.00    +0.000 A 
ATOM     29  C   UNL     1      -4.736  12.120  19.106  0.00  0.00    +0.000 A 
ATOM     30  S   UNL     1      -3.696  11.418  17.944  0.00  0.00    +0.000 S 
ENDBRANCH  25  26
ENDBRANCH  23  25
ENDBRANCH  17  22
ENDBRANCH   1  19
TORSDOF 7
ENDMDL
