MODEL 1
REMARK VINA RESULT:      -7.4      0.000      0.000
REMARK  Name = 
REMARK  8 active torsions:
REMARK  status: ('A' for Active; 'I' for Inactive)
REMARK    1  A    between atoms: N_1  and  S_2
REMARK    2  A    between atoms: S_2  and  C_5
REMARK    3  A    between atoms: C_8  and  N_9
REMARK    4  A    between atoms: C_10  and  C_11
REMARK    5  A    between atoms: C_16  and  C_17
REMARK    6  A    between atoms: N_18  and  C_19
REMARK    7  A    between atoms: C_22  and  S_23
REMARK    8  A    between atoms: S_23  and  N_24
REMARK                            x       y       z     vdW  Elec       q    Type
REMARK                         _______ _______ _______ _____ _____    ______ ____
ROOT
ATOM      1  C   UNL     1      10.187  11.611  18.983  0.00  0.00    +0.000 A 
ATOM      2  C   UNL     1      11.344  11.859  18.222  0.00  0.00    +0.000 A 
ATOM      3  C   UNL     1      12.270  12.821  18.628  0.00  0.00    +0.000 A 
ATOM      4  C   UNL     1      12.045  13.555  19.787  0.00  0.00    +0.000 A 
ATOM      5  C   UNL     1      10.901  13.318  20.547  0.00  0.00    +0.000 A 
ATOM      6  C   UNL     1       9.967  12.339  20.166  0.00  0.00    +0.000 A 
ENDROOT
BRANCH   1   8
ATOM      7  N   UNL     1       9.128   9.427  19.037  0.00  0.00    +0.000 NA
ATOM      8  C   UNL     1       9.237  10.590  18.470  0.00  0.00    +0.000 C 
BRANCH   7  12
ATOM      9  C   UNL     1       7.252   6.559  17.631  0.00  0.00    +0.000 A 
ATOM     10  N   UNL     1       6.911   7.600  16.903  0.00  0.00    +0.000 NA
ATOM     11  N   UNL     1       7.515   8.747  17.366  0.00  0.00    +0.000 NA
ATOM     12  C   UNL     1       8.305   8.542  18.408  0.00  0.00    +0.000 A 
ATOM     13  S   UNL     1       8.293   6.888  18.938  0.00  0.00    +0.000 S 
BRANCH   9  14
ATOM     14  S   UNL     1       6.783   4.896  17.294  0.00  0.00    +0.000 S 
ATOM     15  O   UNL     1       5.883   4.480  18.344  0.00  0.00    +0.000 OA
ATOM     16  O   UNL     1       8.004   4.178  16.994  0.00  0.00    +0.000 OA
BRANCH  14  17
ATOM     17  N   UNL     1       5.895   4.871  15.854  0.00  0.00    +0.000 NA
ATOM     18  H   UNL     1       6.352   4.265  15.174  0.00  0.00    +0.000 HD
ATOM     19  H   UNL     1       5.759   5.819  15.502  0.00  0.00    +0.000 HD
ENDBRANCH  14  17
ENDBRANCH   9  14
ENDBRANCH   7  12
ENDBRANCH   1   8
BRANCH   6  20
ATOM     20  C   UNL     1       8.776  12.159  21.043  0.00  0.00    +0.000 C 
ATOM     21  N   UNL     1       8.770  12.628  22.256  0.00  0.00    +0.000 NA
BRANCH  21  22
ATOM     22  C   UNL     1       7.654  12.401  22.995  0.00  0.00    +0.000 A 
ATOM     23  N   UNL     1       6.388  12.637  22.691  0.00  0.00    +0.000 NA
ATOM     24  N   UNL     1       5.508  12.265  23.688  0.00  0.00    +0.000 NA
ATOM     25  C   UNL     1       6.152  11.757  24.717  0.00  0.00    +0.000 A 
ATOM     26  S   UNL     1       7.843  11.684  24.567  0.00  0.00    +0.000 S 
BRANCH  25  27
ATOM     27  S   UNL     1       5.374  11.170  26.184  0.00  0.00    +0.000 S 
ATOM     28  O   UNL     1       6.431  10.646  27.018  0.00  0.00    +0.000 OA
ATOM     29  O   UNL     1       4.480  12.223  26.612  0.00  0.00    +0.000 OA
BRANCH  27  30
ATOM     30  N   UNL     1       4.398   9.859  25.745  0.00  0.00    +0.000 NA
ATOM     31  H   UNL     1       4.622   9.529  24.805  0.00  0.00    +0.000 HD
ATOM     32  H   UNL     1       3.410  10.081  25.868  0.00  0.00    +0.000 HD
ENDBRANCH  27  30
ENDBRANCH  25  27
ENDBRANCH  21  22
ENDBRANCH   6  20
TORSDOF 8
ENDMDL
MODEL 2
REMARK VINA RESULT:      -7.3      4.445      4.951
REMARK  Name = 
REMARK  8 active torsions:
REMARK  status: ('A' for Active; 'I' for Inactive)
REMARK    1  A    between atoms: N_1  and  S_2
REMARK    2  A    between atoms: S_2  and  C_5
REMARK    3  A    between atoms: C_8  and  N_9
REMARK    4  A    between atoms: C_10  and  C_11
REMARK    5  A    between atoms: C_16  and  C_17
REMARK    6  A    between atoms: N_18  and  C_19
REMARK    7  A    between atoms: C_22  and  S_23
REMARK    8  A    between atoms: S_23  and  N_24
REMARK                            x       y       z     vdW  Elec       q    Type
REMARK                         _______ _______ _______ _____ _____    ______ ____
ROOT
ATOM      1  C   UNL     1       9.914  11.734  18.853  0.00  0.00    +0.000 A 
ATOM      2  C   UNL     1      11.223  11.384  19.232  0.00  0.00    +0.000 A 
ATOM      3  C   UNL     1      12.115  12.354  19.691  0.00  0.00    +0.000 A 
ATOM      4  C   UNL     1      11.717  13.684  19.763  0.00  0.00    +0.000 A 
ATOM      5  C   UNL     1      10.422  14.042  19.389  0.00  0.00    +0.000 A 
ATOM      6  C   UNL     1       9.503  13.076  18.944  0.00  0.00    +0.000 A 
ENDROOT
BRANCH   1   8
ATOM      7  N   UNL     1       8.994   9.489  18.935  0.00  0.00    +0.000 NA
ATOM      8  C   UNL     1       9.034  10.648  18.350  0.00  0.00    +0.000 C 
BRANCH   7  12
ATOM      9  C   UNL     1       7.290   6.488  17.588  0.00  0.00    +0.000 A 
ATOM     10  N   UNL     1       6.941   7.482  16.799  0.00  0.00    +0.000 NA
ATOM     11  N   UNL     1       7.480   8.672  17.233  0.00  0.00    +0.000 NA
ATOM     12  C   UNL     1       8.233   8.545  18.314  0.00  0.00    +0.000 A 
ATOM     13  S   UNL     1       8.262   6.917  18.919  0.00  0.00    +0.000 S 
BRANCH   9  14
ATOM     14  S   UNL     1       6.900   4.795  17.308  0.00  0.00    +0.000 S 
ATOM     15  O   UNL     1       8.145   4.095  17.095  0.00  0.00    +0.000 OA
ATOM     16  O   UNL     1       5.828   4.776  16.336  0.00  0.00    +0.000 OA
BRANCH  14  17
ATOM     17  N   UNL     1       6.221   4.160  18.721  0.00  0.00    +0.000 NA
ATOM     18  H   UNL     1       6.845   3.461  19.124  0.00  0.00    +0.000 HD
ATOM     19  H   UNL     1       5.289   3.789  18.534  0.00  0.00    +0.000 HD
ENDBRANCH  14  17
ENDBRANCH   9  14
ENDBRANCH   7  12
ENDBRANCH   1   8
BRANCH   6  20
ATOM     20  C   UNL     1       8.144  13.556  18.566  0.00  0.00    +0.000 C 
ATOM     21  N   UNL     1       7.692  14.688  19.021  0.00  0.00    +0.000 NA
BRANCH  21  22
ATOM     22  C   UNL     1       6.435  15.040  18.645  0.00  0.00    +0.000 A 
ATOM     23  N   UNL     1       5.686  14.550  17.672  0.00  0.00    +0.000 NA
ATOM     24  N   UNL     1       4.443  15.146  17.587  0.00  0.00    +0.000 NA
ATOM     25  C   UNL     1       4.302  16.073  18.510  0.00  0.00    +0.000 A 
ATOM     26  S   UNL     1       5.634  16.296  19.542  0.00  0.00    +0.000 S 
BRANCH  25  27
ATOM     27  S   UNL     1       2.855  17.056  18.719  0.00  0.00    +0.000 S 
ATOM     28  O   UNL     1       3.096  17.887  19.875  0.00  0.00    +0.000 OA
ATOM     29  O   UNL     1       2.541  17.591  17.413  0.00  0.00    +0.000 OA
BRANCH  27  30
ATOM     30  N   UNL     1       1.591  16.006  19.125  0.00  0.00    +0.000 NA
ATOM     31  H   UNL     1       0.709  16.308  18.708  0.00  0.00    +0.000 HD
ATOM     32  H   UNL     1       1.534  15.873  20.134  0.00  0.00    +0.000 HD
ENDBRANCH  27  30
ENDBRANCH  25  27
ENDBRANCH  21  22
ENDBRANCH   6  20
TORSDOF 8
ENDMDL
MODEL 3
REMARK VINA RESULT:      -7.1      1.448      1.784
REMARK  Name = 
REMARK  8 active torsions:
REMARK  status: ('A' for Active; 'I' for Inactive)
REMARK    1  A    between atoms: N_1  and  S_2
REMARK    2  A    between atoms: S_2  and  C_5
REMARK    3  A    between atoms: C_8  and  N_9
REMARK    4  A    between atoms: C_10  and  C_11
REMARK    5  A    between atoms: C_16  and  C_17
REMARK    6  A    between atoms: N_18  and  C_19
REMARK    7  A    between atoms: C_22  and  S_23
REMARK    8  A    between atoms: S_23  and  N_24
REMARK                            x       y       z     vdW  Elec       q    Type
REMARK                         _______ _______ _______ _____ _____    ______ ____
ROOT
ATOM      1  C   UNL     1      10.177  11.380  18.629  0.00  0.00    +0.000 A 
ATOM      2  C   UNL     1      11.072  11.694  17.590  0.00  0.00    +0.000 A 
ATOM      3  C   UNL     1      12.118  12.595  17.798  0.00  0.00    +0.000 A 
ATOM      4  C   UNL     1      12.272  13.203  19.038  0.00  0.00    +0.000 A 
ATOM      5  C   UNL     1      11.390  12.900  20.075  0.00  0.00    +0.000 A 
ATOM      6  C   UNL     1      10.343  11.979  19.890  0.00  0.00    +0.000 A 
ENDROOT
BRANCH   1   8
ATOM      7  N   UNL     1       9.181   9.166  18.588  0.00  0.00    +0.000 NA
ATOM      8  C   UNL     1       9.075  10.432  18.320  0.00  0.00    +0.000 C 
BRANCH   7  12
ATOM      9  C   UNL     1       6.741   6.543  17.647  0.00  0.00    +0.000 A 
ATOM     10  N   UNL     1       6.375   7.624  16.990  0.00  0.00    +0.000 NA
ATOM     11  N   UNL     1       7.188   8.690  17.301  0.00  0.00    +0.000 NA
ATOM     12  C   UNL     1       8.150   8.387  18.158  0.00  0.00    +0.000 A 
ATOM     13  S   UNL     1       8.062   6.740  18.703  0.00  0.00    +0.000 S 
BRANCH   9  14
ATOM     14  S   UNL     1       6.027   4.949  17.439  0.00  0.00    +0.000 S 
ATOM     15  O   UNL     1       6.829   4.240  16.470  0.00  0.00    +0.000 OA
ATOM     16  O   UNL     1       4.605   5.156  17.259  0.00  0.00    +0.000 OA
BRANCH  14  17
ATOM     17  N   UNL     1       6.165   4.104  18.897  0.00  0.00    +0.000 NA
ATOM     18  H   UNL     1       6.033   4.740  19.683  0.00  0.00    +0.000 HD
ATOM     19  H   UNL     1       7.059   3.611  18.941  0.00  0.00    +0.000 HD
ENDBRANCH  14  17
ENDBRANCH   9  14
ENDBRANCH   7  12
ENDBRANCH   1   8
BRANCH   6  20
ATOM     20  C   UNL     1       9.453  11.722  21.057  0.00  0.00    +0.000 C 
ATOM     21  N   UNL     1       8.985  12.709  21.762  0.00  0.00    +0.000 NA
BRANCH  21  22
ATOM     22  C   UNL     1       8.199  12.385  22.822  0.00  0.00    +0.000 A 
ATOM     23  N   UNL     1       8.028  11.212  23.407  0.00  0.00    +0.000 NA
ATOM     24  N   UNL     1       7.155  11.257  24.477  0.00  0.00    +0.000 NA
ATOM     25  C   UNL     1       6.697  12.477  24.659  0.00  0.00    +0.000 A 
ATOM     26  S   UNL     1       7.276  13.651  23.575  0.00  0.00    +0.000 S 
BRANCH  25  27
ATOM     27  S   UNL     1       5.559  12.934  25.923  0.00  0.00    +0.000 S 
ATOM     28  O   UNL     1       4.827  14.070  25.415  0.00  0.00    +0.000 OA
ATOM     29  O   UNL     1       4.920  11.709  26.348  0.00  0.00    +0.000 OA
BRANCH  27  30
ATOM     30  N   UNL     1       6.468  13.484  27.241  0.00  0.00    +0.000 NA
ATOM     31  H   UNL     1       6.853  14.413  27.064  0.00  0.00    +0.000 HD
ATOM     32  H   UNL     1       7.176  12.800  27.509  0.00  0.00    +0.000 HD
ENDBRANCH  27  30
ENDBRANCH  25  27
ENDBRANCH  21  22
ENDBRANCH   6  20
TORSDOF 8
ENDMDL
MODEL 4
REMARK VINA RESULT:      -7.0      7.480     11.353
REMARK  Name = 
REMARK  8 active torsions:
REMARK  status: ('A' for Active; 'I' for Inactive)
REMARK    1  A    between atoms: N_1  and  S_2
REMARK    2  A    between atoms: S_2  and  C_5
REMARK    3  A    between atoms: C_8  and  N_9
REMARK    4  A    between atoms: C_10  and  C_11
REMARK    5  A    between atoms: C_16  and  C_17
REMARK    6  A    between atoms: N_18  and  C_19
REMARK    7  A    between atoms: C_22  and  S_23
REMARK    8  A    between atoms: S_23  and  N_24
REMARK                            x       y       z     vdW  Elec       q    Type
REMARK                         _______ _______ _______ _____ _____    ______ ____
ROOT
ATOM      1  C   UNL     1       2.831   4.788  19.771  0.00  0.00    +0.000 A 
ATOM      2  C   UNL     1       2.245   4.477  21.012  0.00  0.00    +0.000 A 
ATOM      3  C   UNL     1       2.437   3.225  21.597  0.00  0.00    +0.000 A 
ATOM      4  C   UNL     1       3.203   2.266  20.945  0.00  0.00    +0.000 A 
ATOM      5  C   UNL     1       3.788   2.562  19.714  0.00  0.00    +0.000 A 
ATOM      6  C   UNL     1       3.622   3.825  19.119  0.00  0.00    +0.000 A 
ENDROOT
BRANCH   1   8
ATOM      7  N   UNL     1       2.252   7.137  19.967  0.00  0.00    +0.000 NA
ATOM      8  C   UNL     1       2.557   6.133  19.203  0.00  0.00    +0.000 C 
BRANCH   7  12
ATOM      9  C   UNL     1       0.906  10.347  18.698  0.00  0.00    +0.000 A 
ATOM     10  N   UNL     1       1.573   9.817  17.694  0.00  0.00    +0.000 NA
ATOM     11  N   UNL     1       2.165   8.631  18.065  0.00  0.00    +0.000 NA
ATOM     12  C   UNL     1       1.916   8.287  19.319  0.00  0.00    +0.000 A 
ATOM     13  S   UNL     1       0.970   9.476  20.160  0.00  0.00    +0.000 S 
BRANCH   9  14
ATOM     14  S   UNL     1      -0.082  11.799  18.595  0.00  0.00    +0.000 S 
ATOM     15  O   UNL     1       0.776  12.874  18.152  0.00  0.00    +0.000 OA
ATOM     16  O   UNL     1      -0.834  11.872  19.830  0.00  0.00    +0.000 OA
BRANCH  14  17
ATOM     17  N   UNL     1      -1.244  11.575  17.387  0.00  0.00    +0.000 NA
ATOM     18  H   UNL     1      -1.329  10.583  17.165  0.00  0.00    +0.000 HD
ATOM     19  H   UNL     1      -1.020  12.139  16.567  0.00  0.00    +0.000 HD
ENDBRANCH  14  17
ENDBRANCH   9  14
ENDBRANCH   7  12
ENDBRANCH   1   8
BRANCH   6  20
ATOM     20  C   UNL     1       4.285   4.047  17.804  0.00  0.00    +0.000 C 
ATOM     21  N   UNL     1       5.574   4.203  17.729  0.00  0.00    +0.000 NA
BRANCH  21  22
ATOM     22  C   UNL     1       6.095   4.422  16.494  0.00  0.00    +0.000 A 
ATOM     23  N   UNL     1       7.135   5.161  16.145  0.00  0.00    +0.000 NA
ATOM     24  N   UNL     1       7.387   5.142  14.788  0.00  0.00    +0.000 NA
ATOM     25  C   UNL     1       6.518   4.380  14.158  0.00  0.00    +0.000 A 
ATOM     26  S   UNL     1       5.347   3.633  15.138  0.00  0.00    +0.000 S 
BRANCH  25  27
ATOM     27  S   UNL     1       6.512   4.107  12.419  0.00  0.00    +0.000 S 
ATOM     28  O   UNL     1       5.125   4.100  12.017  0.00  0.00    +0.000 OA
ATOM     29  O   UNL     1       7.489   5.018  11.866  0.00  0.00    +0.000 OA
BRANCH  27  30
ATOM     30  N   UNL     1       7.108   2.545  12.154  0.00  0.00    +0.000 NA
ATOM     31  H   UNL     1       6.396   1.941  11.742  0.00  0.00    +0.000 HD
ATOM     32  H   UNL     1       7.518   2.160  13.005  0.00  0.00    +0.000 HD
ENDBRANCH  27  30
ENDBRANCH  25  27
ENDBRANCH  21  22
ENDBRANCH   6  20
TORSDOF 8
ENDMDL
MODEL 5
REMARK VINA RESULT:      -7.0      1.714      1.947
REMARK  Name = 
REMARK  8 active torsions:
REMARK  status: ('A' for Active; 'I' for Inactive)
REMARK    1  A    between atoms: N_1  and  S_2
REMARK    2  A    between atoms: S_2  and  C_5
REMARK    3  A    between atoms: C_8  and  N_9
REMARK    4  A    between atoms: C_10  and  C_11
REMARK    5  A    between atoms: C_16  and  C_17
REMARK    6  A    between atoms: N_18  and  C_19
REMARK    7  A    between atoms: C_22  and  S_23
REMARK    8  A    between atoms: S_23  and  N_24
REMARK                            x       y       z     vdW  Elec       q    Type
REMARK                         _______ _______ _______ _____ _____    ______ ____
ROOT
ATOM      1  C   UNL     1       9.390  10.816  19.005  0.00  0.00    +0.000 A 
ATOM      2  C   UNL     1       9.940  11.175  17.761  0.00  0.00    +0.000 A 
ATOM      3  C   UNL     1      10.530  12.427  17.578  0.00  0.00    +0.000 A 
ATOM      4  C   UNL     1      10.563  13.338  18.627  0.00  0.00    +0.000 A 
ATOM      5  C   UNL     1      10.019  12.993  19.864  0.00  0.00    +0.000 A 
ATOM      6  C   UNL     1       9.440  11.729  20.074  0.00  0.00    +0.000 A 
ENDROOT
BRANCH   1   8
ATOM      7  N   UNL     1       8.675   8.687  18.084  0.00  0.00    +0.000 NA
ATOM      8  C   UNL     1       8.758   9.476  19.112  0.00  0.00    +0.000 C 
BRANCH   7  12
ATOM      9  C   UNL     1       6.280   5.872  18.330  0.00  0.00    +0.000 A 
ATOM     10  N   UNL     1       7.263   5.578  19.154  0.00  0.00    +0.000 NA
ATOM     11  N   UNL     1       8.248   6.538  19.112  0.00  0.00    +0.000 NA
ATOM     12  C   UNL     1       7.978   7.534  18.283  0.00  0.00    +0.000 A 
ATOM     13  S   UNL     1       6.484   7.302  17.427  0.00  0.00    +0.000 S 
BRANCH   9  14
ATOM     14  S   UNL     1       4.786   4.956  18.178  0.00  0.00    +0.000 S 
ATOM     15  O   UNL     1       4.043   5.521  17.075  0.00  0.00    +0.000 OA
ATOM     16  O   UNL     1       4.229   4.854  19.510  0.00  0.00    +0.000 OA
BRANCH  14  17
ATOM     17  N   UNL     1       5.171   3.368  17.741  0.00  0.00    +0.000 NA
ATOM     18  H   UNL     1       5.218   3.287  16.726  0.00  0.00    +0.000 HD
ATOM     19  H   UNL     1       4.505   2.712  18.154  0.00  0.00    +0.000 HD
ENDBRANCH  14  17
ENDBRANCH   9  14
ENDBRANCH   7  12
ENDBRANCH   1   8
BRANCH   6  20
ATOM     20  C   UNL     1       8.885  11.454  21.428  0.00  0.00    +0.000 C 
ATOM     21  N   UNL     1       8.424  12.422  22.165  0.00  0.00    +0.000 NA
BRANCH  21  22
ATOM     22  C   UNL     1       7.957  12.087  23.395  0.00  0.00    +0.000 A 
ATOM     23  N   UNL     1       8.612  12.001  24.542  0.00  0.00    +0.000 NA
ATOM     24  N   UNL     1       7.806  11.643  25.604  0.00  0.00    +0.000 NA
ATOM     25  C   UNL     1       6.561  11.471  25.214  0.00  0.00    +0.000 A 
ATOM     26  S   UNL     1       6.265  11.728  23.560  0.00  0.00    +0.000 S 
BRANCH  25  27
ATOM     27  S   UNL     1       5.239  11.008  26.282  0.00  0.00    +0.000 S 
ATOM     28  O   UNL     1       5.846  10.332  27.404  0.00  0.00    +0.000 OA
ATOM     29  O   UNL     1       4.408  12.182  26.423  0.00  0.00    +0.000 OA
BRANCH  27  30
ATOM     30  N   UNL     1       4.310   9.857  25.459  0.00  0.00    +0.000 NA
ATOM     31  H   UNL     1       4.617   8.908  25.675  0.00  0.00    +0.000 HD
ATOM     32  H   UNL     1       4.286  10.054  24.458  0.00  0.00    +0.000 HD
ENDBRANCH  27  30
ENDBRANCH  25  27
ENDBRANCH  21  22
ENDBRANCH   6  20
TORSDOF 8
ENDMDL
MODEL 6
REMARK VINA RESULT:      -7.0      1.046      1.312
REMARK  Name = 
REMARK  8 active torsions:
REMARK  status: ('A' for Active; 'I' for Inactive)
REMARK    1  A    between atoms: N_1  and  S_2
REMARK    2  A    between atoms: S_2  and  C_5
REMARK    3  A    between atoms: C_8  and  N_9
REMARK    4  A    between atoms: C_10  and  C_11
REMARK    5  A    between atoms: C_16  and  C_17
REMARK    6  A    between atoms: N_18  and  C_19
REMARK    7  A    between atoms: C_22  and  S_23
REMARK    8  A    between atoms: S_23  and  N_24
REMARK                            x       y       z     vdW  Elec       q    Type
REMARK                         _______ _______ _______ _____ _____    ______ ____
ROOT
ATOM      1  C   UNL     1      10.093  11.452  18.988  0.00  0.00    +0.000 A 
ATOM      2  C   UNL     1      11.258  11.532  18.203  0.00  0.00    +0.000 A 
ATOM      3  C   UNL     1      12.272  12.437  18.522  0.00  0.00    +0.000 A 
ATOM      4  C   UNL     1      12.128  13.281  19.616  0.00  0.00    +0.000 A 
ATOM      5  C   UNL     1      10.977  13.212  20.401  0.00  0.00    +0.000 A 
ATOM      6  C   UNL     1       9.954  12.292  20.107  0.00  0.00    +0.000 A 
ENDROOT
BRANCH   1   8
ATOM      7  N   UNL     1       9.186   9.209  18.786  0.00  0.00    +0.000 NA
ATOM      8  C   UNL     1       9.049  10.482  18.567  0.00  0.00    +0.000 C 
BRANCH   7  12
ATOM      9  C   UNL     1       6.887   6.552  17.614  0.00  0.00    +0.000 A 
ATOM     10  N   UNL     1       6.579   7.624  16.916  0.00  0.00    +0.000 NA
ATOM     11  N   UNL     1       7.343   8.702  17.302  0.00  0.00    +0.000 NA
ATOM     12  C   UNL     1       8.215   8.415  18.256  0.00  0.00    +0.000 A 
ATOM     13  S   UNL     1       8.089   6.770  18.800  0.00  0.00    +0.000 S 
BRANCH   9  14
ATOM     14  S   UNL     1       6.217   4.948  17.344  0.00  0.00    +0.000 S 
ATOM     15  O   UNL     1       7.111   4.252  16.448  0.00  0.00    +0.000 OA
ATOM     16  O   UNL     1       4.814   5.134  17.041  0.00  0.00    +0.000 OA
BRANCH  14  17
ATOM     17  N   UNL     1       6.240   4.102  18.808  0.00  0.00    +0.000 NA
ATOM     18  H   UNL     1       5.360   3.605  18.938  0.00  0.00    +0.000 HD
ATOM     19  H   UNL     1       6.449   4.734  19.583  0.00  0.00    +0.000 HD
ENDBRANCH  14  17
ENDBRANCH   9  14
ENDBRANCH   7  12
ENDBRANCH   1   8
BRANCH   6  20
ATOM     20  C   UNL     1       8.763  12.294  21.003  0.00  0.00    +0.000 C 
ATOM     21  N   UNL     1       8.896  12.099  22.281  0.00  0.00    +0.000 NA
BRANCH  21  22
ATOM     22  C   UNL     1       7.758  12.094  23.022  0.00  0.00    +0.000 A 
ATOM     23  N   UNL     1       6.512  12.318  22.640  0.00  0.00    +0.000 NA
ATOM     24  N   UNL     1       5.598  12.216  23.670  0.00  0.00    +0.000 NA
ATOM     25  C   UNL     1       6.197  11.916  24.802  0.00  0.00    +0.000 A 
ATOM     26  S   UNL     1       7.884  11.731  24.717  0.00  0.00    +0.000 S 
BRANCH  25  27
ATOM     27  S   UNL     1       5.367  11.704  26.341  0.00  0.00    +0.000 S 
ATOM     28  O   UNL     1       4.919  13.018  26.741  0.00  0.00    +0.000 OA
ATOM     29  O   UNL     1       4.469  10.585  26.161  0.00  0.00    +0.000 OA
BRANCH  27  30
ATOM     30  N   UNL     1       6.525  11.214  27.473  0.00  0.00    +0.000 NA
ATOM     31  H   UNL     1       6.230  11.433  28.425  0.00  0.00    +0.000 HD
ATOM     32  H   UNL     1       7.446  11.588  27.240  0.00  0.00    +0.000 HD
ENDBRANCH  27  30
ENDBRANCH  25  27
ENDBRANCH  21  22
ENDBRANCH   6  20
TORSDOF 8
ENDMDL
MODEL 7
REMARK VINA RESULT:      -7.0      7.307      8.497
REMARK  Name = 
REMARK  8 active torsions:
REMARK  status: ('A' for Active; 'I' for Inactive)
REMARK    1  A    between atoms: N_1  and  S_2
REMARK    2  A    between atoms: S_2  and  C_5
REMARK    3  A    between atoms: C_8  and  N_9
REMARK    4  A    between atoms: C_10  and  C_11
REMARK    5  A    between atoms: C_16  and  C_17
REMARK    6  A    between atoms: N_18  and  C_19
REMARK    7  A    between atoms: C_22  and  S_23
REMARK    8  A    between atoms: S_23  and  N_24
REMARK                            x       y       z     vdW  Elec       q    Type
REMARK                         _______ _______ _______ _____ _____    ______ ____
ROOT
ATOM      1  C   UNL     1       3.609   3.935  19.145  0.00  0.00    +0.000 A 
ATOM      2  C   UNL     1       3.631   2.654  19.728  0.00  0.00    +0.000 A 
ATOM      3  C   UNL     1       3.026   2.425  20.965  0.00  0.00    +0.000 A 
ATOM      4  C   UNL     1       2.409   3.472  21.640  0.00  0.00    +0.000 A 
ATOM      5  C   UNL     1       2.383   4.745  21.072  0.00  0.00    +0.000 A 
ATOM      6  C   UNL     1       2.969   4.990  19.817  0.00  0.00    +0.000 A 
ENDROOT
BRANCH   1   8
ATOM      7  N   UNL     1       5.592   4.184  17.766  0.00  0.00    +0.000 NA
ATOM      8  C   UNL     1       4.298   4.102  17.839  0.00  0.00    +0.000 C 
BRANCH   7  12
ATOM      9  C   UNL     1       6.525   4.442  14.191  0.00  0.00    +0.000 A 
ATOM     10  N   UNL     1       7.493   5.035  14.857  0.00  0.00    +0.000 NA
ATOM     11  N   UNL     1       7.231   5.045  16.208  0.00  0.00    +0.000 NA
ATOM     12  C   UNL     1       6.094   4.446  16.528  0.00  0.00    +0.000 A 
ATOM     13  S   UNL     1       5.222   3.884  15.135  0.00  0.00    +0.000 S 
BRANCH   9  14
ATOM     14  S   UNL     1       6.540   4.125  12.460  0.00  0.00    +0.000 S 
ATOM     15  O   UNL     1       7.495   5.031  11.864  0.00  0.00    +0.000 OA
ATOM     16  O   UNL     1       5.156   4.078  12.039  0.00  0.00    +0.000 OA
BRANCH  14  17
ATOM     17  N   UNL     1       7.130   2.560  12.205  0.00  0.00    +0.000 NA
ATOM     18  H   UNL     1       6.779   1.934  12.929  0.00  0.00    +0.000 HD
ATOM     19  H   UNL     1       8.150   2.566  12.156  0.00  0.00    +0.000 HD
ENDBRANCH  14  17
ENDBRANCH   9  14
ENDBRANCH   7  12
ENDBRANCH   1   8
BRANCH   6  20
ATOM     20  C   UNL     1       2.891   6.383  19.294  0.00  0.00    +0.000 C 
ATOM     21  N   UNL     1       1.866   7.136  19.566  0.00  0.00    +0.000 NA
BRANCH  21  22
ATOM     22  C   UNL     1       1.864   8.385  19.031  0.00  0.00    +0.000 A 
ATOM     23  N   UNL     1       2.401   8.809  17.899  0.00  0.00    +0.000 NA
ATOM     24  N   UNL     1       2.190  10.154  17.664  0.00  0.00    +0.000 NA
ATOM     25  C   UNL     1       1.493  10.697  18.640  0.00  0.00    +0.000 A 
ATOM     26  S   UNL     1       1.040   9.647  19.896  0.00  0.00    +0.000 S 
BRANCH  25  27
ATOM     27  S   UNL     1       1.024  12.394  18.701  0.00  0.00    +0.000 S 
ATOM     28  O   UNL     1       0.715  12.676  20.083  0.00  0.00    +0.000 OA
ATOM     29  O   UNL     1       2.031  13.115  17.954  0.00  0.00    +0.000 OA
BRANCH  27  30
ATOM     30  N   UNL     1      -0.420  12.547  17.833  0.00  0.00    +0.000 NA
ATOM     31  H   UNL     1      -0.252  12.527  16.826  0.00  0.00    +0.000 HD
ATOM     32  H   UNL     1      -0.945  13.366  18.137  0.00  0.00    +0.000 HD
ENDBRANCH  27  30
ENDBRANCH  25  27
ENDBRANCH  21  22
ENDBRANCH   6  20
TORSDOF 8
ENDMDL
MODEL 8
REMARK VINA RESULT:      -6.9      1.765      2.013
REMARK  Name = 
REMARK  8 active torsions:
REMARK  status: ('A' for Active; 'I' for Inactive)
REMARK    1  A    between atoms: N_1  and  S_2
REMARK    2  A    between atoms: S_2  and  C_5
REMARK    3  A    between atoms: C_8  and  N_9
REMARK    4  A    between atoms: C_10  and  C_11
REMARK    5  A    between atoms: C_16  and  C_17
REMARK    6  A    between atoms: N_18  and  C_19
REMARK    7  A    between atoms: C_22  and  S_23
REMARK    8  A    between atoms: S_23  and  N_24
REMARK                            x       y       z     vdW  Elec       q    Type
REMARK                         _______ _______ _______ _____ _____    ______ ____
ROOT
ATOM      1  C   UNL     1       9.516  11.332  18.833  0.00  0.00    +0.000 A 
ATOM      2  C   UNL     1       9.996  11.820  17.604  0.00  0.00    +0.000 A 
ATOM      3  C   UNL     1      10.391  13.152  17.471  0.00  0.00    +0.000 A 
ATOM      4  C   UNL     1      10.295  14.015  18.557  0.00  0.00    +0.000 A 
ATOM      5  C   UNL     1       9.818  13.543  19.779  0.00  0.00    +0.000 A 
ATOM      6  C   UNL     1       9.436  12.198  19.938  0.00  0.00    +0.000 A 
ENDROOT
BRANCH   1   8
ATOM      7  N   UNL     1       8.465   9.356  17.891  0.00  0.00    +0.000 NA
ATOM      8  C   UNL     1       9.092   9.909  18.886  0.00  0.00    +0.000 C 
BRANCH   7  12
ATOM      9  C   UNL     1       6.777   6.066  18.098  0.00  0.00    +0.000 A 
ATOM     10  N   UNL     1       7.689   6.060  19.047  0.00  0.00    +0.000 NA
ATOM     11  N   UNL     1       8.422   7.225  19.037  0.00  0.00    +0.000 NA
ATOM     12  C   UNL     1       8.035   8.082  18.105  0.00  0.00    +0.000 A 
ATOM     13  S   UNL     1       6.756   7.453  17.111  0.00  0.00    +0.000 S 
BRANCH   9  14
ATOM     14  S   UNL     1       5.568   4.811  17.856  0.00  0.00    +0.000 S 
ATOM     15  O   UNL     1       5.931   4.086  16.661  0.00  0.00    +0.000 OA
ATOM     16  O   UNL     1       4.278   5.449  18.009  0.00  0.00    +0.000 OA
BRANCH  14  17
ATOM     17  N   UNL     1       5.668   3.713  19.140  0.00  0.00    +0.000 NA
ATOM     18  H   UNL     1       4.814   3.160  19.192  0.00  0.00    +0.000 HD
ATOM     19  H   UNL     1       5.870   4.202  20.013  0.00  0.00    +0.000 HD
ENDBRANCH  14  17
ENDBRANCH   9  14
ENDBRANCH   7  12
ENDBRANCH   1   8
BRANCH   6  20
ATOM     20  C   UNL     1       8.940  11.789  21.281  0.00  0.00    +0.000 C 
ATOM     21  N   UNL     1       8.234  12.608  22.004  0.00  0.00    +0.000 NA
BRANCH  21  22
ATOM     22  C   UNL     1       7.840  12.163  23.226  0.00  0.00    +0.000 A 
ATOM     23  N   UNL     1       8.574  11.891  24.292  0.00  0.00    +0.000 NA
ATOM     24  N   UNL     1       7.828  11.468  25.374  0.00  0.00    +0.000 NA
ATOM     25  C   UNL     1       6.546  11.439  25.080  0.00  0.00    +0.000 A 
ATOM     26  S   UNL     1       6.142  11.915  23.499  0.00  0.00    +0.000 S 
BRANCH  25  27
ATOM     27  S   UNL     1       5.279  10.952  26.202  0.00  0.00    +0.000 S 
ATOM     28  O   UNL     1       4.336  10.175  25.431  0.00  0.00    +0.000 OA
ATOM     29  O   UNL     1       5.955  10.438  27.372  0.00  0.00    +0.000 OA
BRANCH  27  30
ATOM     30  N   UNL     1       4.474  12.358  26.690  0.00  0.00    +0.000 NA
ATOM     31  H   UNL     1       3.787  12.653  25.994  0.00  0.00    +0.000 HD
ATOM     32  H   UNL     1       5.137  13.093  26.938  0.00  0.00    +0.000 HD
ENDBRANCH  27  30
ENDBRANCH  25  27
ENDBRANCH  21  22
ENDBRANCH   6  20
TORSDOF 8
ENDMDL
MODEL 9
REMARK VINA RESULT:      -6.9      4.511      5.035
REMARK  Name = 
REMARK  8 active torsions:
REMARK  status: ('A' for Active; 'I' for Inactive)
REMARK    1  A    between atoms: N_1  and  S_2
REMARK    2  A    between atoms: S_2  and  C_5
REMARK    3  A    between atoms: C_8  and  N_9
REMARK    4  A    between atoms: C_10  and  C_11
REMARK    5  A    between atoms: C_16  and  C_17
REMARK    6  A    between atoms: N_18  and  C_19
REMARK    7  A    between atoms: C_22  and  S_23
REMARK    8  A    between atoms: S_23  and  N_24
REMARK                            x       y       z     vdW  Elec       q    Type
REMARK                         _______ _______ _______ _____ _____    ______ ____
ROOT
ATOM      1  C   UNL     1       9.852  11.856  18.198  0.00  0.00    +0.000 A 
ATOM      2  C   UNL     1      11.220  11.595  18.403  0.00  0.00    +0.000 A 
ATOM      3  C   UNL     1      12.107  12.632  18.697  0.00  0.00    +0.000 A 
ATOM      4  C   UNL     1      11.643  13.940  18.774  0.00  0.00    +0.000 A 
ATOM      5  C   UNL     1      10.291  14.211  18.572  0.00  0.00    +0.000 A 
ATOM      6  C   UNL     1       9.378  13.177  18.295  0.00  0.00    +0.000 A 
ENDROOT
BRANCH   1   8
ATOM      7  N   UNL     1       8.884   9.678  18.655  0.00  0.00    +0.000 NA
ATOM      8  C   UNL     1       8.978  10.703  17.864  0.00  0.00    +0.000 C 
BRANCH   7  12
ATOM      9  C   UNL     1       7.270   6.476  17.725  0.00  0.00    +0.000 A 
ATOM     10  N   UNL     1       6.803   7.371  16.880  0.00  0.00    +0.000 NA
ATOM     11  N   UNL     1       7.300   8.623  17.161  0.00  0.00    +0.000 NA
ATOM     12  C   UNL     1       8.138   8.640  18.186  0.00  0.00    +0.000 A 
ATOM     13  S   UNL     1       8.311   7.080  18.930  0.00  0.00    +0.000 S 
BRANCH   9  14
ATOM     14  S   UNL     1       6.964   4.746  17.631  0.00  0.00    +0.000 S 
ATOM     15  O   UNL     1       6.324   4.353  18.866  0.00  0.00    +0.000 OA
ATOM     16  O   UNL     1       8.193   4.136  17.172  0.00  0.00    +0.000 OA
BRANCH  14  17
ATOM     17  N   UNL     1       5.846   4.465  16.394  0.00  0.00    +0.000 NA
ATOM     18  H   UNL     1       4.993   4.061  16.780  0.00  0.00    +0.000 HD
ATOM     19  H   UNL     1       6.258   3.879  15.666  0.00  0.00    +0.000 HD
ENDBRANCH  14  17
ENDBRANCH   9  14
ENDBRANCH   7  12
ENDBRANCH   1   8
BRANCH   6  20
ATOM     20  C   UNL     1       7.954  13.566  18.093  0.00  0.00    +0.000 C 
ATOM     21  N   UNL     1       7.486  14.660  18.617  0.00  0.00    +0.000 NA
BRANCH  21  22
ATOM     22  C   UNL     1       6.172  14.928  18.403  0.00  0.00    +0.000 A 
ATOM     23  N   UNL     1       5.263  14.203  17.773  0.00  0.00    +0.000 NA
ATOM     24  N   UNL     1       4.012  14.787  17.758  0.00  0.00    +0.000 NA
ATOM     25  C   UNL     1       4.026  15.943  18.386  0.00  0.00    +0.000 A 
ATOM     26  S   UNL     1       5.524  16.411  19.038  0.00  0.00    +0.000 S 
BRANCH  25  27
ATOM     27  S   UNL     1       2.620  16.988  18.577  0.00  0.00    +0.000 S 
ATOM     28  O   UNL     1       2.561  17.805  17.387  0.00  0.00    +0.000 OA
ATOM     29  O   UNL     1       1.537  16.128  18.998  0.00  0.00    +0.000 OA
BRANCH  27  30
ATOM     30  N   UNL     1       2.941  18.028  19.873  0.00  0.00    +0.000 NA
ATOM     31  H   UNL     1       2.125  18.129  20.478  0.00  0.00    +0.000 HD
ATOM     32  H   UNL     1       3.311  18.920  19.544  0.00  0.00    +0.000 HD
ENDBRANCH  27  30
ENDBRANCH  25  27
ENDBRANCH  21  22
ENDBRANCH   6  20
TORSDOF 8
ENDMDL
