MODEL 1
REMARK VINA RESULT:      -7.3      0.000      0.000
REMARK  Name = 
REMARK  6 active torsions:
REMARK  status: ('A' for Active; 'I' for Inactive)
REMARK    1  A    between atoms: C_2  and  C_3
REMARK    2  A    between atoms: C_3  and  S_4
REMARK    3  A    between atoms: S_4  and  C_5
REMARK    4  A    between atoms: C_8  and  S_9
REMARK    5  A    between atoms: S_9  and  N_12
REMARK    6  A    between atoms: N_20  and  C_21
REMARK                            x       y       z     vdW  Elec       q    Type
REMARK                         _______ _______ _______ _____ _____    ______ ____
ROOT
ATOM      1  C   UNL     1       1.842   6.498  20.458  0.00  0.00    +0.000 A 
ATOM      2  C   UNL     1       1.108   7.236  21.383  0.00  0.00    +0.000 A 
ATOM      3  C   UNL     1       0.791   8.564  21.087  0.00  0.00    +0.000 A 
ATOM      4  C   UNL     1       1.202   9.096  19.870  0.00  0.00    +0.000 A 
ATOM      5  C   UNL     1       1.983   8.312  19.033  0.00  0.00    +0.000 A 
ATOM      6  N   UNL     1       2.298   7.022  19.297  0.00  0.00    +0.000 NA
ENDROOT
BRANCH   4   7
ATOM      7  S   UNL     1       0.850  10.761  19.386  0.00  0.00    +0.000 S 
ATOM      8  O   UNL     1       0.994  11.583  20.568  0.00  0.00    +0.000 OA
ATOM      9  O   UNL     1       1.620  11.025  18.190  0.00  0.00    +0.000 OA
BRANCH   7  10
ATOM     10  N   UNL     1      -0.815  10.735  18.949  0.00  0.00    +0.000 NA
ATOM     11  C   UNL     1      -1.550  12.007  19.184  0.00  0.00    +0.000 C 
ATOM     12  C   UNL     1      -3.034  11.899  18.858  0.00  0.00    +0.000 C 
ATOM     13  C   UNL     1      -3.252  11.326  17.467  0.00  0.00    +0.000 C 
ATOM     14  C   UNL     1      -2.613   9.950  17.396  0.00  0.00    +0.000 C 
ATOM     15  C   UNL     1      -1.117  10.017  17.685  0.00  0.00    +0.000 C 
ENDBRANCH   7  10
ENDBRANCH   4   7
BRANCH   1  16
ATOM     16  S   UNL     1       2.143   4.771  20.737  0.00  0.00    +0.000 S 
BRANCH  16  17
ATOM     17  C   UNL     1       1.840   4.140  19.052  0.00  0.00    +0.000 C 
BRANCH  17  19
ATOM     18  O   UNL     1       3.623   2.664  18.479  0.00  0.00    +0.000 OA
ATOM     19  C   UNL     1       3.156   3.795  18.381  0.00  0.00    +0.000 C 
ATOM     20  N   UNL     1       3.749   4.842  17.679  0.00  0.00    +0.000 N 
ATOM     21  H   UNL     1       3.435   5.779  17.885  0.00  0.00    +0.000 HD
BRANCH  20  22
ATOM     22  C   UNL     1       4.879   4.726  16.823  0.00  0.00    +0.000 A 
ATOM     23  C   UNL     1       4.747   4.361  15.477  0.00  0.00    +0.000 A 
ATOM     24  C   UNL     1       5.852   4.304  14.625  0.00  0.00    +0.000 A 
ATOM     25  C   UNL     1       7.115   4.646  15.099  0.00  0.00    +0.000 A 
ATOM     26  C   UNL     1       7.275   5.000  16.435  0.00  0.00    +0.000 A 
ATOM     27  C   UNL     1       6.166   5.022  17.297  0.00  0.00    +0.000 A 
ATOM     28 BR   UNL     1       6.490   5.382  19.137  0.00  0.00    +0.000 Br
ENDBRANCH  20  22
ENDBRANCH  17  19
ENDBRANCH  16  17
ENDBRANCH   1  16
TORSDOF 6
ENDMDL
MODEL 2
REMARK VINA RESULT:      -7.2      3.932      9.457
REMARK  Name = 
REMARK  6 active torsions:
REMARK  status: ('A' for Active; 'I' for Inactive)
REMARK    1  A    between atoms: C_2  and  C_3
REMARK    2  A    between atoms: C_3  and  S_4
REMARK    3  A    between atoms: S_4  and  C_5
REMARK    4  A    between atoms: C_8  and  S_9
REMARK    5  A    between atoms: S_9  and  N_12
REMARK    6  A    between atoms: N_20  and  C_21
REMARK                            x       y       z     vdW  Elec       q    Type
REMARK                         _______ _______ _______ _____ _____    ______ ____
ROOT
ATOM      1  C   UNL     1       1.048   9.780  19.243  0.00  0.00    +0.000 A 
ATOM      2  C   UNL     1       1.617   9.563  17.993  0.00  0.00    +0.000 A 
ATOM      3  C   UNL     1       2.340   8.385  17.777  0.00  0.00    +0.000 A 
ATOM      4  C   UNL     1       2.448   7.466  18.813  0.00  0.00    +0.000 A 
ATOM      5  C   UNL     1       1.904   7.790  20.047  0.00  0.00    +0.000 A 
ATOM      6  N   UNL     1       1.195   8.921  20.278  0.00  0.00    +0.000 NA
ENDROOT
BRANCH   4   7
ATOM      7  S   UNL     1       3.330   5.940  18.651  0.00  0.00    +0.000 S 
ATOM      8  O   UNL     1       3.563   5.736  17.237  0.00  0.00    +0.000 OA
ATOM      9  O   UNL     1       4.427   5.985  19.593  0.00  0.00    +0.000 OA
BRANCH   7  10
ATOM     10  N   UNL     1       2.216   4.744  19.190  0.00  0.00    +0.000 NA
ATOM     11  C   UNL     1       1.831   3.734  18.169  0.00  0.00    +0.000 C 
ATOM     12  C   UNL     1       0.782   2.752  18.677  0.00  0.00    +0.000 C 
ATOM     13  C   UNL     1       1.198   2.139  20.004  0.00  0.00    +0.000 C 
ATOM     14  C   UNL     1       1.391   3.251  21.021  0.00  0.00    +0.000 C 
ATOM     15  C   UNL     1       2.459   4.240  20.566  0.00  0.00    +0.000 C 
ENDBRANCH   7  10
ENDBRANCH   4   7
BRANCH   1  16
ATOM     16  S   UNL     1       0.008  11.194  19.512  0.00  0.00    +0.000 S 
BRANCH  16  17
ATOM     17  C   UNL     1      -0.874  11.222  17.916  0.00  0.00    +0.000 C 
BRANCH  17  19
ATOM     18  O   UNL     1      -2.697   9.705  18.169  0.00  0.00    +0.000 OA
ATOM     19  C   UNL     1      -2.337  10.877  18.124  0.00  0.00    +0.000 C 
ATOM     20  N   UNL     1      -3.187  11.974  18.250  0.00  0.00    +0.000 N 
ATOM     21  H   UNL     1      -2.844  12.869  17.930  0.00  0.00    +0.000 HD
BRANCH  20  22
ATOM     22  C   UNL     1      -4.556  11.919  18.629  0.00  0.00    +0.000 A 
ATOM     23  C   UNL     1      -5.551  11.512  17.732  0.00  0.00    +0.000 A 
ATOM     24  C   UNL     1      -6.887  11.404  18.123  0.00  0.00    +0.000 A 
ATOM     25  C   UNL     1      -7.250  11.669  19.440  0.00  0.00    +0.000 A 
ATOM     26  C   UNL     1      -6.283  12.087  20.349  0.00  0.00    +0.000 A 
ATOM     27  C   UNL     1      -4.946  12.229  19.941  0.00  0.00    +0.000 A 
ATOM     28 BR   UNL     1      -3.711  12.934  21.206  0.00  0.00    +0.000 Br
ENDBRANCH  20  22
ENDBRANCH  17  19
ENDBRANCH  16  17
ENDBRANCH   1  16
TORSDOF 6
ENDMDL
MODEL 3
REMARK VINA RESULT:      -7.1      3.935      9.394
REMARK  Name = 
REMARK  6 active torsions:
REMARK  status: ('A' for Active; 'I' for Inactive)
REMARK    1  A    between atoms: C_2  and  C_3
REMARK    2  A    between atoms: C_3  and  S_4
REMARK    3  A    between atoms: S_4  and  C_5
REMARK    4  A    between atoms: C_8  and  S_9
REMARK    5  A    between atoms: S_9  and  N_12
REMARK    6  A    between atoms: N_20  and  C_21
REMARK                            x       y       z     vdW  Elec       q    Type
REMARK                         _______ _______ _______ _____ _____    ______ ____
ROOT
ATOM      1  C   UNL     1       1.027   9.253  19.099  0.00  0.00    +0.000 A 
ATOM      2  C   UNL     1       1.604   9.154  17.836  0.00  0.00    +0.000 A 
ATOM      3  C   UNL     1       2.494   8.107  17.581  0.00  0.00    +0.000 A 
ATOM      4  C   UNL     1       2.757   7.191  18.592  0.00  0.00    +0.000 A 
ATOM      5  C   UNL     1       2.189   7.398  19.841  0.00  0.00    +0.000 A 
ATOM      6  N   UNL     1       1.320   8.401  20.109  0.00  0.00    +0.000 NA
ENDROOT
BRANCH   4   7
ATOM      7  S   UNL     1       3.859   5.822  18.380  0.00  0.00    +0.000 S 
ATOM      8  O   UNL     1       4.125   5.712  16.962  0.00  0.00    +0.000 OA
ATOM      9  O   UNL     1       4.933   5.993  19.334  0.00  0.00    +0.000 OA
BRANCH   7  10
ATOM     10  N   UNL     1       2.935   4.452  18.862  0.00  0.00    +0.000 NA
ATOM     11  C   UNL     1       2.868   4.220  20.330  0.00  0.00    +0.000 C 
ATOM     12  C   UNL     1       2.107   2.950  20.691  0.00  0.00    +0.000 C 
ATOM     13  C   UNL     1       0.749   2.909  20.011  0.00  0.00    +0.000 C 
ATOM     14  C   UNL     1       0.948   2.973  18.507  0.00  0.00    +0.000 C 
ATOM     15  C   UNL     1       1.678   4.248  18.098  0.00  0.00    +0.000 C 
ENDBRANCH   7  10
ENDBRANCH   4   7
BRANCH   1  16
ATOM     16  S   UNL     1      -0.212  10.484  19.417  0.00  0.00    +0.000 S 
BRANCH  16  17
ATOM     17  C   UNL     1      -0.990  10.555  17.769  0.00  0.00    +0.000 C 
BRANCH  17  19
ATOM     18  O   UNL     1      -3.087   9.419  17.805  0.00  0.00    +0.000 OA
ATOM     19  C   UNL     1      -2.500  10.492  17.904  0.00  0.00    +0.000 C 
ATOM     20  N   UNL     1      -3.120  11.717  18.140  0.00  0.00    +0.000 N 
ATOM     21  H   UNL     1      -2.593  12.554  17.933  0.00  0.00    +0.000 HD
BRANCH  20  22
ATOM     22  C   UNL     1      -4.489  11.898  18.480  0.00  0.00    +0.000 A 
ATOM     23  C   UNL     1      -5.517  11.587  17.581  0.00  0.00    +0.000 A 
ATOM     24  C   UNL     1      -6.862  11.712  17.939  0.00  0.00    +0.000 A 
ATOM     25  C   UNL     1      -7.205  12.120  19.224  0.00  0.00    +0.000 A 
ATOM     26  C   UNL     1      -6.202  12.446  20.133  0.00  0.00    +0.000 A 
ATOM     27  C   UNL     1      -4.852  12.354  19.757  0.00  0.00    +0.000 A 
ATOM     28 BR   UNL     1      -3.548  12.948  21.009  0.00  0.00    +0.000 Br
ENDBRANCH  20  22
ENDBRANCH  17  19
ENDBRANCH  16  17
ENDBRANCH   1  16
TORSDOF 6
ENDMDL
MODEL 4
REMARK VINA RESULT:      -7.1      2.587      8.594
REMARK  Name = 
REMARK  6 active torsions:
REMARK  status: ('A' for Active; 'I' for Inactive)
REMARK    1  A    between atoms: C_2  and  C_3
REMARK    2  A    between atoms: C_3  and  S_4
REMARK    3  A    between atoms: S_4  and  C_5
REMARK    4  A    between atoms: C_8  and  S_9
REMARK    5  A    between atoms: S_9  and  N_12
REMARK    6  A    between atoms: N_20  and  C_21
REMARK                            x       y       z     vdW  Elec       q    Type
REMARK                         _______ _______ _______ _____ _____    ______ ____
ROOT
ATOM      1  C   UNL     1       1.507   7.412  20.390  0.00  0.00    +0.000 A 
ATOM      2  C   UNL     1       1.369   6.176  21.014  0.00  0.00    +0.000 A 
ATOM      3  C   UNL     1       2.057   5.077  20.492  0.00  0.00    +0.000 A 
ATOM      4  C   UNL     1       2.871   5.262  19.381  0.00  0.00    +0.000 A 
ATOM      5  C   UNL     1       2.903   6.513  18.783  0.00  0.00    +0.000 A 
ATOM      6  N   UNL     1       2.250   7.593  19.273  0.00  0.00    +0.000 NA
ENDROOT
BRANCH   4   7
ATOM      7  S   UNL     1       3.794   3.946  18.642  0.00  0.00    +0.000 S 
ATOM      8  O   UNL     1       4.577   3.337  19.695  0.00  0.00    +0.000 OA
ATOM      9  O   UNL     1       2.864   3.168  17.853  0.00  0.00    +0.000 OA
BRANCH   7  10
ATOM     10  N   UNL     1       4.874   4.738  17.560  0.00  0.00    +0.000 NA
ATOM     11  C   UNL     1       6.237   4.992  18.101  0.00  0.00    +0.000 C 
ATOM     12  C   UNL     1       7.120   5.768  17.132  0.00  0.00    +0.000 C 
ATOM     13  C   UNL     1       7.129   5.121  15.756  0.00  0.00    +0.000 C 
ATOM     14  C   UNL     1       5.707   5.075  15.225  0.00  0.00    +0.000 C 
ATOM     15  C   UNL     1       4.794   4.279  16.150  0.00  0.00    +0.000 C 
ENDBRANCH   7  10
ENDBRANCH   4   7
BRANCH   1  16
ATOM     16  S   UNL     1       0.762   8.857  21.104  0.00  0.00    +0.000 S 
BRANCH  16  17
ATOM     17  C   UNL     1       1.570  10.141  20.092  0.00  0.00    +0.000 C 
BRANCH  17  19
ATOM     18  O   UNL     1       0.889  11.708  18.429  0.00  0.00    +0.000 OA
ATOM     19  C   UNL     1       0.562  10.771  19.149  0.00  0.00    +0.000 C 
ATOM     20  N   UNL     1      -0.710  10.202  19.185  0.00  0.00    +0.000 N 
ATOM     21  H   UNL     1      -0.945   9.636  19.987  0.00  0.00    +0.000 HD
BRANCH  20  22
ATOM     22  C   UNL     1      -1.768  10.489  18.279  0.00  0.00    +0.000 A 
ATOM     23  C   UNL     1      -1.880   9.830  17.049  0.00  0.00    +0.000 A 
ATOM     24  C   UNL     1      -2.952  10.072  16.186  0.00  0.00    +0.000 A 
ATOM     25  C   UNL     1      -3.957  10.960  16.557  0.00  0.00    +0.000 A 
ATOM     26  C   UNL     1      -3.863  11.637  17.770  0.00  0.00    +0.000 A 
ATOM     27  C   UNL     1      -2.765  11.417  18.618  0.00  0.00    +0.000 A 
ATOM     28 BR   UNL     1      -2.641  12.481  20.190  0.00  0.00    +0.000 Br
ENDBRANCH  20  22
ENDBRANCH  17  19
ENDBRANCH  16  17
ENDBRANCH   1  16
TORSDOF 6
ENDMDL
MODEL 5
REMARK VINA RESULT:      -7.1      3.307      9.481
REMARK  Name = 
REMARK  6 active torsions:
REMARK  status: ('A' for Active; 'I' for Inactive)
REMARK    1  A    between atoms: C_2  and  C_3
REMARK    2  A    between atoms: C_3  and  S_4
REMARK    3  A    between atoms: S_4  and  C_5
REMARK    4  A    between atoms: C_8  and  S_9
REMARK    5  A    between atoms: S_9  and  N_12
REMARK    6  A    between atoms: N_20  and  C_21
REMARK                            x       y       z     vdW  Elec       q    Type
REMARK                         _______ _______ _______ _____ _____    ______ ____
ROOT
ATOM      1  C   UNL     1       1.818   7.596  19.859  0.00  0.00    +0.000 A 
ATOM      2  C   UNL     1       1.762   6.466  20.669  0.00  0.00    +0.000 A 
ATOM      3  C   UNL     1       2.446   5.314  20.267  0.00  0.00    +0.000 A 
ATOM      4  C   UNL     1       3.173   5.346  19.084  0.00  0.00    +0.000 A 
ATOM      5  C   UNL     1       3.125   6.493  18.305  0.00  0.00    +0.000 A 
ATOM      6  N   UNL     1       2.474   7.621  18.676  0.00  0.00    +0.000 NA
ENDROOT
BRANCH   4   7
ATOM      7  S   UNL     1       4.083   3.952  18.482  0.00  0.00    +0.000 S 
ATOM      8  O   UNL     1       4.966   3.533  19.549  0.00  0.00    +0.000 OA
ATOM      9  O   UNL     1       3.123   3.040  17.901  0.00  0.00    +0.000 OA
BRANCH   7  10
ATOM     10  N   UNL     1       5.048   4.591  17.207  0.00  0.00    +0.000 NA
ATOM     11  C   UNL     1       6.444   4.940  17.585  0.00  0.00    +0.000 C 
ATOM     12  C   UNL     1       7.222   5.576  16.440  0.00  0.00    +0.000 C 
ATOM     13  C   UNL     1       7.132   4.734  15.177  0.00  0.00    +0.000 C 
ATOM     14  C   UNL     1       5.672   4.592  14.784  0.00  0.00    +0.000 C 
ATOM     15  C   UNL     1       4.860   3.928  15.891  0.00  0.00    +0.000 C 
ENDBRANCH   7  10
ENDBRANCH   4   7
BRANCH   1  16
ATOM     16  S   UNL     1       1.080   9.117  20.404  0.00  0.00    +0.000 S 
BRANCH  16  17
ATOM     17  C   UNL     1       0.309   8.536  21.951  0.00  0.00    +0.000 C 
BRANCH  17  19
ATOM     18  O   UNL     1       0.083   9.813  23.952  0.00  0.00    +0.000 OA
ATOM     19  C   UNL     1      -0.190   9.719  22.760  0.00  0.00    +0.000 C 
ATOM     20  N   UNL     1      -0.951  10.640  22.044  0.00  0.00    +0.000 N 
ATOM     21  H   UNL     1      -1.340  10.339  21.162  0.00  0.00    +0.000 HD
BRANCH  20  22
ATOM     22  C   UNL     1      -1.375  11.910  22.523  0.00  0.00    +0.000 A 
ATOM     23  C   UNL     1      -2.499  12.046  23.348  0.00  0.00    +0.000 A 
ATOM     24  C   UNL     1      -2.880  13.287  23.863  0.00  0.00    +0.000 A 
ATOM     25  C   UNL     1      -2.118  14.418  23.588  0.00  0.00    +0.000 A 
ATOM     26  C   UNL     1      -1.004  14.312  22.761  0.00  0.00    +0.000 A 
ATOM     27  C   UNL     1      -0.645  13.068  22.216  0.00  0.00    +0.000 A 
ATOM     28 BR   UNL     1       0.807  13.033  20.987  0.00  0.00    +0.000 Br
ENDBRANCH  20  22
ENDBRANCH  17  19
ENDBRANCH  16  17
ENDBRANCH   1  16
TORSDOF 6
ENDMDL
MODEL 6
REMARK VINA RESULT:      -7.0      2.646      9.325
REMARK  Name = 
REMARK  6 active torsions:
REMARK  status: ('A' for Active; 'I' for Inactive)
REMARK    1  A    between atoms: C_2  and  C_3
REMARK    2  A    between atoms: C_3  and  S_4
REMARK    3  A    between atoms: S_4  and  C_5
REMARK    4  A    between atoms: C_8  and  S_9
REMARK    5  A    between atoms: S_9  and  N_12
REMARK    6  A    between atoms: N_20  and  C_21
REMARK                            x       y       z     vdW  Elec       q    Type
REMARK                         _______ _______ _______ _____ _____    ______ ____
ROOT
ATOM      1  C   UNL     1       1.751   7.940  19.614  0.00  0.00    +0.000 A 
ATOM      2  C   UNL     1       2.209   7.773  18.310  0.00  0.00    +0.000 A 
ATOM      3  C   UNL     1       2.623   6.502  17.899  0.00  0.00    +0.000 A 
ATOM      4  C   UNL     1       2.542   5.448  18.800  0.00  0.00    +0.000 A 
ATOM      5  C   UNL     1       2.133   5.713  20.099  0.00  0.00    +0.000 A 
ATOM      6  N   UNL     1       1.723   6.934  20.518  0.00  0.00    +0.000 NA
ENDROOT
BRANCH   4   7
ATOM      7  S   UNL     1       3.028   3.797  18.387  0.00  0.00    +0.000 S 
ATOM      8  O   UNL     1       3.056   3.044  19.622  0.00  0.00    +0.000 OA
ATOM      9  O   UNL     1       2.206   3.381  17.272  0.00  0.00    +0.000 OA
BRANCH   7  10
ATOM     10  N   UNL     1       4.646   3.958  17.821  0.00  0.00    +0.000 NA
ATOM     11  C   UNL     1       4.789   4.087  16.345  0.00  0.00    +0.000 C 
ATOM     12  C   UNL     1       6.245   4.144  15.897  0.00  0.00    +0.000 C 
ATOM     13  C   UNL     1       7.019   5.197  16.672  0.00  0.00    +0.000 C 
ATOM     14  C   UNL     1       6.954   4.866  18.153  0.00  0.00    +0.000 C 
ATOM     15  C   UNL     1       5.514   4.832  18.652  0.00  0.00    +0.000 C 
ENDBRANCH   7  10
ENDBRANCH   4   7
BRANCH   1  16
ATOM     16  S   UNL     1       1.088   9.505  20.129  0.00  0.00    +0.000 S 
BRANCH  16  17
ATOM     17  C   UNL     1       0.623  10.182  18.500  0.00  0.00    +0.000 C 
BRANCH  17  19
ATOM     18  O   UNL     1      -0.577  12.163  19.066  0.00  0.00    +0.000 OA
ATOM     19  C   UNL     1      -0.635  11.020  18.625  0.00  0.00    +0.000 C 
ATOM     20  N   UNL     1      -1.805  10.388  18.209  0.00  0.00    +0.000 N 
ATOM     21  H   UNL     1      -1.788   9.381  18.126  0.00  0.00    +0.000 HD
BRANCH  20  22
ATOM     22  C   UNL     1      -3.073  11.014  18.056  0.00  0.00    +0.000 A 
ATOM     23  C   UNL     1      -3.712  11.649  19.129  0.00  0.00    +0.000 A 
ATOM     24  C   UNL     1      -4.930  12.312  18.963  0.00  0.00    +0.000 A 
ATOM     25  C   UNL     1      -5.519  12.383  17.704  0.00  0.00    +0.000 A 
ATOM     26  C   UNL     1      -4.910  11.750  16.624  0.00  0.00    +0.000 A 
ATOM     27  C   UNL     1      -3.703  11.053  16.803  0.00  0.00    +0.000 A 
ATOM     28 BR   UNL     1      -3.007  10.101  15.309  0.00  0.00    +0.000 Br
ENDBRANCH  20  22
ENDBRANCH  17  19
ENDBRANCH  16  17
ENDBRANCH   1  16
TORSDOF 6
ENDMDL
MODEL 7
REMARK VINA RESULT:      -7.0      3.939      8.936
REMARK  Name = 
REMARK  6 active torsions:
REMARK  status: ('A' for Active; 'I' for Inactive)
REMARK    1  A    between atoms: C_2  and  C_3
REMARK    2  A    between atoms: C_3  and  S_4
REMARK    3  A    between atoms: S_4  and  C_5
REMARK    4  A    between atoms: C_8  and  S_9
REMARK    5  A    between atoms: S_9  and  N_12
REMARK    6  A    between atoms: N_20  and  C_21
REMARK                            x       y       z     vdW  Elec       q    Type
REMARK                         _______ _______ _______ _____ _____    ______ ____
ROOT
ATOM      1  C   UNL     1       1.376   9.144  19.036  0.00  0.00    +0.000 A 
ATOM      2  C   UNL     1       2.038   8.856  17.847  0.00  0.00    +0.000 A 
ATOM      3  C   UNL     1       2.754   7.659  17.748  0.00  0.00    +0.000 A 
ATOM      4  C   UNL     1       2.762   6.791  18.833  0.00  0.00    +0.000 A 
ATOM      5  C   UNL     1       2.128   7.184  20.002  0.00  0.00    +0.000 A 
ATOM      6  N   UNL     1       1.424   8.336  20.120  0.00  0.00    +0.000 NA
ENDROOT
BRANCH   4   7
ATOM      7  S   UNL     1       3.626   5.247  18.817  0.00  0.00    +0.000 S 
ATOM      8  O   UNL     1       4.404   5.186  20.036  0.00  0.00    +0.000 OA
ATOM      9  O   UNL     1       2.656   4.224  18.494  0.00  0.00    +0.000 OA
BRANCH   7  10
ATOM     10  N   UNL     1       4.716   5.382  17.491  0.00  0.00    +0.000 NA
ATOM     11  C   UNL     1       6.089   5.831  17.846  0.00  0.00    +0.000 C 
ATOM     12  C   UNL     1       6.984   6.012  16.625  0.00  0.00    +0.000 C 
ATOM     13  C   UNL     1       6.963   4.776  15.740  0.00  0.00    +0.000 C 
ATOM     14  C   UNL     1       5.536   4.515  15.292  0.00  0.00    +0.000 C 
ATOM     15  C   UNL     1       4.611   4.295  16.484  0.00  0.00    +0.000 C 
ENDBRANCH   7  10
ENDBRANCH   4   7
BRANCH   1  16
ATOM     16  S   UNL     1       0.344  10.585  19.151  0.00  0.00    +0.000 S 
BRANCH  16  17
ATOM     17  C   UNL     1       0.949  11.259  20.734  0.00  0.00    +0.000 C 
BRANCH  17  19
ATOM     18  O   UNL     1       1.879  13.322  21.487  0.00  0.00    +0.000 OA
ATOM     19  C   UNL     1       1.494  12.660  20.528  0.00  0.00    +0.000 C 
ATOM     20  N   UNL     1       1.510  13.095  19.205  0.00  0.00    +0.000 N 
ATOM     21  H   UNL     1       0.931  12.598  18.543  0.00  0.00    +0.000 HD
BRANCH  20  22
ATOM     22  C   UNL     1       2.133  14.283  18.734  0.00  0.00    +0.000 A 
ATOM     23  C   UNL     1       3.428  14.271  18.199  0.00  0.00    +0.000 A 
ATOM     24  C   UNL     1       4.016  15.429  17.685  0.00  0.00    +0.000 A 
ATOM     25  C   UNL     1       3.300  16.623  17.665  0.00  0.00    +0.000 A 
ATOM     26  C   UNL     1       2.017  16.664  18.201  0.00  0.00    +0.000 A 
ATOM     27  C   UNL     1       1.443  15.504  18.750  0.00  0.00    +0.000 A 
ATOM     28 BR   UNL     1      -0.258  15.676  19.585  0.00  0.00    +0.000 Br
ENDBRANCH  20  22
ENDBRANCH  17  19
ENDBRANCH  16  17
ENDBRANCH   1  16
TORSDOF 6
ENDMDL
MODEL 8
REMARK VINA RESULT:      -7.0      3.958      9.390
REMARK  Name = 
REMARK  6 active torsions:
REMARK  status: ('A' for Active; 'I' for Inactive)
REMARK    1  A    between atoms: C_2  and  C_3
REMARK    2  A    between atoms: C_3  and  S_4
REMARK    3  A    between atoms: S_4  and  C_5
REMARK    4  A    between atoms: C_8  and  S_9
REMARK    5  A    between atoms: S_9  and  N_12
REMARK    6  A    between atoms: N_20  and  C_21
REMARK                            x       y       z     vdW  Elec       q    Type
REMARK                         _______ _______ _______ _____ _____    ______ ____
ROOT
ATOM      1  C   UNL     1       0.887   9.785  19.798  0.00  0.00    +0.000 A 
ATOM      2  C   UNL     1       1.023   8.845  20.816  0.00  0.00    +0.000 A 
ATOM      3  C   UNL     1       1.722   7.663  20.552  0.00  0.00    +0.000 A 
ATOM      4  C   UNL     1       2.272   7.477  19.290  0.00  0.00    +0.000 A 
ATOM      5  C   UNL     1       2.035   8.435  18.315  0.00  0.00    +0.000 A 
ATOM      6  N   UNL     1       1.367   9.589  18.548  0.00  0.00    +0.000 NA
ENDROOT
BRANCH   4   7
ATOM      7  S   UNL     1       3.182   6.025  18.847  0.00  0.00    +0.000 S 
ATOM      8  O   UNL     1       3.277   6.011  17.403  0.00  0.00    +0.000 OA
ATOM      9  O   UNL     1       4.366   5.999  19.678  0.00  0.00    +0.000 OA
BRANCH   7  10
ATOM     10  N   UNL     1       2.166   4.721  19.331  0.00  0.00    +0.000 NA
ATOM     11  C   UNL     1       1.670   3.862  18.222  0.00  0.00    +0.000 C 
ATOM     12  C   UNL     1       0.713   2.778  18.700  0.00  0.00    +0.000 C 
ATOM     13  C   UNL     1       1.306   1.988  19.855  0.00  0.00    +0.000 C 
ATOM     14  C   UNL     1       1.610   2.941  20.999  0.00  0.00    +0.000 C 
ATOM     15  C   UNL     1       2.593   4.025  20.571  0.00  0.00    +0.000 C 
ENDBRANCH   7  10
ENDBRANCH   4   7
BRANCH   1  16
ATOM     16  S   UNL     1       0.130  11.355  20.134  0.00  0.00    +0.000 S 
BRANCH  16  17
ATOM     17  C   UNL     1      -0.587  11.698  18.492  0.00  0.00    +0.000 C 
BRANCH  17  19
ATOM     18  O   UNL     1      -2.305  10.073  18.184  0.00  0.00    +0.000 OA
ATOM     19  C   UNL     1      -2.032  11.240  18.450  0.00  0.00    +0.000 C 
ATOM     20  N   UNL     1      -2.971  12.231  18.729  0.00  0.00    +0.000 N 
ATOM     21  H   UNL     1      -2.667  13.192  18.664  0.00  0.00    +0.000 HD
BRANCH  20  22
ATOM     22  C   UNL     1      -4.362  12.018  18.929  0.00  0.00    +0.000 A 
ATOM     23  C   UNL     1      -5.189  11.552  17.900  0.00  0.00    +0.000 A 
ATOM     24  C   UNL     1      -6.545  11.289  18.116  0.00  0.00    +0.000 A 
ATOM     25  C   UNL     1      -7.093  11.457  19.383  0.00  0.00    +0.000 A 
ATOM     26  C   UNL     1      -6.295  11.931  20.420  0.00  0.00    +0.000 A 
ATOM     27  C   UNL     1      -4.941  12.228  20.190  0.00  0.00    +0.000 A 
ATOM     28 BR   UNL     1      -3.955  12.999  21.623  0.00  0.00    +0.000 Br
ENDBRANCH  20  22
ENDBRANCH  17  19
ENDBRANCH  16  17
ENDBRANCH   1  16
TORSDOF 6
ENDMDL
MODEL 9
REMARK VINA RESULT:      -7.0      3.171      9.473
REMARK  Name = 
REMARK  6 active torsions:
REMARK  status: ('A' for Active; 'I' for Inactive)
REMARK    1  A    between atoms: C_2  and  C_3
REMARK    2  A    between atoms: C_3  and  S_4
REMARK    3  A    between atoms: S_4  and  C_5
REMARK    4  A    between atoms: C_8  and  S_9
REMARK    5  A    between atoms: S_9  and  N_12
REMARK    6  A    between atoms: N_20  and  C_21
REMARK                            x       y       z     vdW  Elec       q    Type
REMARK                         _______ _______ _______ _____ _____    ______ ____
ROOT
ATOM      1  C   UNL     1       1.907   7.229  20.161  0.00  0.00    +0.000 A 
ATOM      2  C   UNL     1       2.372   7.375  18.858  0.00  0.00    +0.000 A 
ATOM      3  C   UNL     1       2.792   6.238  18.161  0.00  0.00    +0.000 A 
ATOM      4  C   UNL     1       2.711   5.000  18.788  0.00  0.00    +0.000 A 
ATOM      5  C   UNL     1       2.294   4.951  20.110  0.00  0.00    +0.000 A 
ATOM      6  N   UNL     1       1.878   6.038  20.803  0.00  0.00    +0.000 NA
ENDROOT
BRANCH   4   7
ATOM      7  S   UNL     1       3.205   3.494  18.000  0.00  0.00    +0.000 S 
ATOM      8  O   UNL     1       3.283   2.484  19.033  0.00  0.00    +0.000 OA
ATOM      9  O   UNL     1       2.352   3.322  16.845  0.00  0.00    +0.000 OA
BRANCH   7  10
ATOM     10  N   UNL     1       4.801   3.811  17.438  0.00  0.00    +0.000 NA
ATOM     11  C   UNL     1       4.895   4.257  16.022  0.00  0.00    +0.000 C 
ATOM     12  C   UNL     1       6.335   4.443  15.557  0.00  0.00    +0.000 C 
ATOM     13  C   UNL     1       7.115   5.323  16.518  0.00  0.00    +0.000 C 
ATOM     14  C   UNL     1       7.103   4.680  17.895  0.00  0.00    +0.000 C 
ATOM     15  C   UNL     1       5.680   4.506  18.413  0.00  0.00    +0.000 C 
ENDBRANCH   7  10
ENDBRANCH   4   7
BRANCH   1  16
ATOM     16  S   UNL     1       1.236   8.627  21.026  0.00  0.00    +0.000 S 
BRANCH  16  17
ATOM     17  C   UNL     1       0.702   9.631  19.601  0.00  0.00    +0.000 C 
BRANCH  17  19
ATOM     18  O   UNL     1      -0.936  11.339  19.307  0.00  0.00    +0.000 OA
ATOM     19  C   UNL     1      -0.148  10.795  20.074  0.00  0.00    +0.000 C 
ATOM     20  N   UNL     1       0.050  11.164  21.403  0.00  0.00    +0.000 N 
ATOM     21  H   UNL     1       0.894  10.845  21.855  0.00  0.00    +0.000 HD
BRANCH  20  22
ATOM     22  C   UNL     1      -0.745  12.094  22.128  0.00  0.00    +0.000 A 
ATOM     23  C   UNL     1      -1.913  11.701  22.793  0.00  0.00    +0.000 A 
ATOM     24  C   UNL     1      -2.661  12.605  23.552  0.00  0.00    +0.000 A 
ATOM     25  C   UNL     1      -2.230  13.921  23.689  0.00  0.00    +0.000 A 
ATOM     26  C   UNL     1      -1.079  14.340  23.029  0.00  0.00    +0.000 A 
ATOM     27  C   UNL     1      -0.350  13.436  22.238  0.00  0.00    +0.000 A 
ATOM     28 BR   UNL     1       1.132  14.121  21.260  0.00  0.00    +0.000 Br
ENDBRANCH  20  22
ENDBRANCH  17  19
ENDBRANCH  16  17
ENDBRANCH   1  16
TORSDOF 6
ENDMDL
