MODEL 1
REMARK VINA RESULT:      -7.0      0.000      0.000
REMARK  Name = 
REMARK  4 active torsions:
REMARK  status: ('A' for Active; 'I' for Inactive)
REMARK    1  A    between atoms: C_2  and  C_3
REMARK    2  A    between atoms: C_3  and  S_4
REMARK    3  A    between atoms: S_4  and  C_5
REMARK    4  A    between atoms: N_14  and  C_15
REMARK                            x       y       z     vdW  Elec       q    Type
REMARK                         _______ _______ _______ _____ _____    ______ ____
ROOT
ATOM      1  O   UNL     1       1.828   9.397  17.531  0.00  0.00    +0.000 OA
ATOM      2  C   UNL     1       1.536   9.027  18.671  0.00  0.00    +0.000 C 
ATOM      3  N   UNL     1       0.470   9.611  19.347  0.00  0.00    +0.000 N 
ATOM      4  C   UNL     1      -0.011   9.270  20.693  0.00  0.00    +0.000 C 
ATOM      5  C   UNL     1       0.216  10.448  21.656  0.00  0.00    +0.000 C 
ATOM      6  N   UNL     1      -0.396  11.679  21.123  0.00  0.00    +0.000 N 
ATOM      7  C   UNL     1       0.005  12.032  19.741  0.00  0.00    +0.000 C 
ATOM      8  C   UNL     1      -0.165  10.820  18.794  0.00  0.00    +0.000 C 
ENDROOT
BRANCH   6   9
ATOM      9  C   UNL     1      -1.491  12.274  21.719  0.00  0.00    +0.000 A 
ATOM     10  C   UNL     1      -1.993  11.797  22.943  0.00  0.00    +0.000 A 
ATOM     11  C   UNL     1      -3.137  12.344  23.535  0.00  0.00    +0.000 A 
ATOM     12  C   UNL     1      -3.793  13.392  22.910  0.00  0.00    +0.000 A 
ATOM     13  F   UNL     1      -4.894  13.913  23.466  0.00  0.00    +0.000 F 
ATOM     14  C   UNL     1      -3.322  13.903  21.712  0.00  0.00    +0.000 A 
ATOM     15  C   UNL     1      -2.182  13.344  21.124  0.00  0.00    +0.000 A 
ENDBRANCH   6   9
BRANCH   2  16
ATOM     16  C   UNL     1       2.292   7.890  19.368  0.00  0.00    +0.000 C 
BRANCH  16  17
ATOM     17  S   UNL     1       2.857   6.635  18.161  0.00  0.00    +0.000 S 
BRANCH  17  18
ATOM     18  C   UNL     1       2.166   5.143  18.852  0.00  0.00    +0.000 A 
ATOM     19  C   UNL     1       1.869   5.024  20.214  0.00  0.00    +0.000 A 
ATOM     20  C   UNL     1       1.249   3.872  20.707  0.00  0.00    +0.000 A 
ATOM     21  C   UNL     1       0.915   2.831  19.841  0.00  0.00    +0.000 A 
ATOM     22  C   UNL     1       1.205   2.941  18.482  0.00  0.00    +0.000 A 
ATOM     23  C   UNL     1       1.824   4.092  17.990  0.00  0.00    +0.000 A 
ENDBRANCH  17  18
ENDBRANCH  16  17
ENDBRANCH   2  16
TORSDOF 4
ENDMDL
MODEL 2
REMARK VINA RESULT:      -7.0      0.890      1.170
REMARK  Name = 
REMARK  4 active torsions:
REMARK  status: ('A' for Active; 'I' for Inactive)
REMARK    1  A    between atoms: C_2  and  C_3
REMARK    2  A    between atoms: C_3  and  S_4
REMARK    3  A    between atoms: S_4  and  C_5
REMARK    4  A    between atoms: N_14  and  C_15
REMARK                            x       y       z     vdW  Elec       q    Type
REMARK                         _______ _______ _______ _____ _____    ______ ____
ROOT
ATOM      1  O   UNL     1       1.873   9.434  17.952  0.00  0.00    +0.000 OA
ATOM      2  C   UNL     1       1.517   8.995  19.048  0.00  0.00    +0.000 C 
ATOM      3  N   UNL     1       0.553   9.665  19.794  0.00  0.00    +0.000 N 
ATOM      4  C   UNL     1       0.013   9.262  21.099  0.00  0.00    +0.000 C 
ATOM      5  C   UNL     1       0.418  10.277  22.181  0.00  0.00    +0.000 C 
ATOM      6  N   UNL     1       0.016  11.640  21.790  0.00  0.00    +0.000 N 
ATOM      7  C   UNL     1       0.479  12.072  20.451  0.00  0.00    +0.000 C 
ATOM      8  C   UNL     1       0.124  11.012  19.380  0.00  0.00    +0.000 C 
ENDROOT
BRANCH   6   9
ATOM      9  C   UNL     1      -0.975  12.336  22.457  0.00  0.00    +0.000 A 
ATOM     10  C   UNL     1      -0.802  13.691  22.793  0.00  0.00    +0.000 A 
ATOM     11  C   UNL     1      -1.764  14.399  23.522  0.00  0.00    +0.000 A 
ATOM     12  C   UNL     1      -2.927  13.758  23.919  0.00  0.00    +0.000 A 
ATOM     13  F   UNL     1      -3.846  14.426  24.626  0.00  0.00    +0.000 F 
ATOM     14  C   UNL     1      -3.144  12.429  23.594  0.00  0.00    +0.000 A 
ATOM     15  C   UNL     1      -2.172  11.728  22.872  0.00  0.00    +0.000 A 
ENDBRANCH   6   9
BRANCH   2  16
ATOM     16  C   UNL     1       2.075   7.682  19.611  0.00  0.00    +0.000 C 
BRANCH  16  17
ATOM     17  S   UNL     1       2.609   6.561  18.266  0.00  0.00    +0.000 S 
BRANCH  17  18
ATOM     18  C   UNL     1       2.057   4.981  18.883  0.00  0.00    +0.000 A 
ATOM     19  C   UNL     1       1.709   4.788  20.225  0.00  0.00    +0.000 A 
ATOM     20  C   UNL     1       1.200   3.559  20.655  0.00  0.00    +0.000 A 
ATOM     21  C   UNL     1       1.027   2.515  19.747  0.00  0.00    +0.000 A 
ATOM     22  C   UNL     1       1.368   2.699  18.408  0.00  0.00    +0.000 A 
ATOM     23  C   UNL     1       1.877   3.926  17.979  0.00  0.00    +0.000 A 
ENDBRANCH  17  18
ENDBRANCH  16  17
ENDBRANCH   2  16
TORSDOF 4
ENDMDL
MODEL 3
REMARK VINA RESULT:      -6.9      3.338      4.883
REMARK  Name = 
REMARK  4 active torsions:
REMARK  status: ('A' for Active; 'I' for Inactive)
REMARK    1  A    between atoms: C_2  and  C_3
REMARK    2  A    between atoms: C_3  and  S_4
REMARK    3  A    between atoms: S_4  and  C_5
REMARK    4  A    between atoms: N_14  and  C_15
REMARK                            x       y       z     vdW  Elec       q    Type
REMARK                         _______ _______ _______ _____ _____    ______ ____
ROOT
ATOM      1  O   UNL     1       1.921   5.657  20.665  0.00  0.00    +0.000 OA
ATOM      2  C   UNL     1       2.211   6.203  19.597  0.00  0.00    +0.000 C 
ATOM      3  N   UNL     1       2.225   7.590  19.499  0.00  0.00    +0.000 N 
ATOM      4  C   UNL     1       2.566   8.385  18.311  0.00  0.00    +0.000 C 
ATOM      5  C   UNL     1       1.330   9.153  17.810  0.00  0.00    +0.000 C 
ATOM      6  N   UNL     1       0.749   9.964  18.896  0.00  0.00    +0.000 N 
ATOM      7  C   UNL     1       0.449   9.222  20.142  0.00  0.00    +0.000 C 
ATOM      8  C   UNL     1       1.678   8.401  20.601  0.00  0.00    +0.000 C 
ENDROOT
BRANCH   6   9
ATOM      9  C   UNL     1       0.782  11.346  18.881  0.00  0.00    +0.000 A 
ATOM     10  C   UNL     1      -0.364  12.096  19.199  0.00  0.00    +0.000 A 
ATOM     11  C   UNL     1      -0.371  13.494  19.132  0.00  0.00    +0.000 A 
ATOM     12  C   UNL     1       0.781  14.165  18.754  0.00  0.00    +0.000 A 
ATOM     13  F   UNL     1       0.777  15.502  18.677  0.00  0.00    +0.000 F 
ATOM     14  C   UNL     1       1.935  13.464  18.449  0.00  0.00    +0.000 A 
ATOM     15  C   UNL     1       1.931  12.066  18.511  0.00  0.00    +0.000 A 
ENDBRANCH   6   9
BRANCH   2  16
ATOM     16  C   UNL     1       2.610   5.392  18.359  0.00  0.00    +0.000 C 
BRANCH  16  17
ATOM     17  S   UNL     1       4.010   4.271  18.727  0.00  0.00    +0.000 S 
BRANCH  17  18
ATOM     18  C   UNL     1       5.406   5.352  18.470  0.00  0.00    +0.000 A 
ATOM     19  C   UNL     1       6.570   5.256  19.241  0.00  0.00    +0.000 A 
ATOM     20  C   UNL     1       7.677   6.061  18.956  0.00  0.00    +0.000 A 
ATOM     21  C   UNL     1       7.632   6.965  17.895  0.00  0.00    +0.000 A 
ATOM     22  C   UNL     1       6.478   7.066  17.120  0.00  0.00    +0.000 A 
ATOM     23  C   UNL     1       5.372   6.261  17.405  0.00  0.00    +0.000 A 
ENDBRANCH  17  18
ENDBRANCH  16  17
ENDBRANCH   2  16
TORSDOF 4
ENDMDL
MODEL 4
REMARK VINA RESULT:      -6.9      1.029      1.455
REMARK  Name = 
REMARK  4 active torsions:
REMARK  status: ('A' for Active; 'I' for Inactive)
REMARK    1  A    between atoms: C_2  and  C_3
REMARK    2  A    between atoms: C_3  and  S_4
REMARK    3  A    between atoms: S_4  and  C_5
REMARK    4  A    between atoms: N_14  and  C_15
REMARK                            x       y       z     vdW  Elec       q    Type
REMARK                         _______ _______ _______ _____ _____    ______ ____
ROOT
ATOM      1  O   UNL     1       2.320   8.931  17.451  0.00  0.00    +0.000 OA
ATOM      2  C   UNL     1       2.000   8.527  18.571  0.00  0.00    +0.000 C 
ATOM      3  N   UNL     1       1.055   9.215  19.324  0.00  0.00    +0.000 N 
ATOM      4  C   UNL     1       0.557   8.852  20.657  0.00  0.00    +0.000 C 
ATOM      5  C   UNL     1       0.988   9.905  21.693  0.00  0.00    +0.000 C 
ATOM      6  N   UNL     1       0.564  11.253  21.269  0.00  0.00    +0.000 N 
ATOM      7  C   UNL     1       0.983  11.642  19.903  0.00  0.00    +0.000 C 
ATOM      8  C   UNL     1       0.604  10.546  18.879  0.00  0.00    +0.000 C 
ENDROOT
BRANCH   6   9
ATOM      9  C   UNL     1      -0.411  11.964  21.943  0.00  0.00    +0.000 A 
ATOM     10  C   UNL     1      -1.311  11.312  22.806  0.00  0.00    +0.000 A 
ATOM     11  C   UNL     1      -2.343  12.002  23.451  0.00  0.00    +0.000 A 
ATOM     12  C   UNL     1      -2.484  13.365  23.249  0.00  0.00    +0.000 A 
ATOM     13  F   UNL     1      -3.477  14.028  23.855  0.00  0.00    +0.000 F 
ATOM     14  C   UNL     1      -1.608  14.047  22.421  0.00  0.00    +0.000 A 
ATOM     15  C   UNL     1      -0.584  13.348  21.774  0.00  0.00    +0.000 A 
ENDBRANCH   6   9
BRANCH   2  16
ATOM     16  C   UNL     1       2.585   7.237  19.160  0.00  0.00    +0.000 C 
BRANCH  16  17
ATOM     17  S   UNL     1       3.283   6.169  17.848  0.00  0.00    +0.000 S 
BRANCH  17  18
ATOM     18  C   UNL     1       2.504   4.606  18.211  0.00  0.00    +0.000 A 
ATOM     19  C   UNL     1       2.770   3.453  17.464  0.00  0.00    +0.000 A 
ATOM     20  C   UNL     1       2.209   2.226  17.829  0.00  0.00    +0.000 A 
ATOM     21  C   UNL     1       1.382   2.139  18.948  0.00  0.00    +0.000 A 
ATOM     22  C   UNL     1       1.114   3.281  19.702  0.00  0.00    +0.000 A 
ATOM     23  C   UNL     1       1.675   4.507  19.336  0.00  0.00    +0.000 A 
ENDBRANCH  17  18
ENDBRANCH  16  17
ENDBRANCH   2  16
TORSDOF 4
ENDMDL
MODEL 5
REMARK VINA RESULT:      -6.8      0.428      1.093
REMARK  Name = 
REMARK  4 active torsions:
REMARK  status: ('A' for Active; 'I' for Inactive)
REMARK    1  A    between atoms: C_2  and  C_3
REMARK    2  A    between atoms: C_3  and  S_4
REMARK    3  A    between atoms: S_4  and  C_5
REMARK    4  A    between atoms: N_14  and  C_15
REMARK                            x       y       z     vdW  Elec       q    Type
REMARK                         _______ _______ _______ _____ _____    ______ ____
ROOT
ATOM      1  O   UNL     1       2.043   9.419  17.572  0.00  0.00    +0.000 OA
ATOM      2  C   UNL     1       1.640   9.048  18.678  0.00  0.00    +0.000 C 
ATOM      3  N   UNL     1       0.577   9.699  19.294  0.00  0.00    +0.000 N 
ATOM      4  C   UNL     1      -0.026   9.367  20.591  0.00  0.00    +0.000 C 
ATOM      5  C   UNL     1       0.222  10.502  21.601  0.00  0.00    +0.000 C 
ATOM      6  N   UNL     1      -0.253  11.789  21.060  0.00  0.00    +0.000 N 
ATOM      7  C   UNL     1       0.274  12.140  19.721  0.00  0.00    +0.000 C 
ATOM      8  C   UNL     1       0.080  10.967  18.731  0.00  0.00    +0.000 C 
ENDROOT
BRANCH   6   9
ATOM      9  C   UNL     1      -1.339  12.457  21.594  0.00  0.00    +0.000 A 
ATOM     10  C   UNL     1      -1.409  12.731  22.972  0.00  0.00    +0.000 A 
ATOM     11  C   UNL     1      -2.526  13.350  23.544  0.00  0.00    +0.000 A 
ATOM     12  C   UNL     1      -3.591  13.717  22.737  0.00  0.00    +0.000 A 
ATOM     13  F   UNL     1      -4.667  14.300  23.280  0.00  0.00    +0.000 F 
ATOM     14  C   UNL     1      -3.554  13.480  21.373  0.00  0.00    +0.000 A 
ATOM     15  C   UNL     1      -2.436  12.853  20.811  0.00  0.00    +0.000 A 
ENDBRANCH   6   9
BRANCH   2  16
ATOM     16  C   UNL     1       2.253   7.839  19.395  0.00  0.00    +0.000 C 
BRANCH  16  17
ATOM     17  S   UNL     1       2.860   6.597  18.195  0.00  0.00    +0.000 S 
BRANCH  17  18
ATOM     18  C   UNL     1       2.065   5.114  18.786  0.00  0.00    +0.000 A 
ATOM     19  C   UNL     1       1.815   4.022  17.949  0.00  0.00    +0.000 A 
ATOM     20  C   UNL     1       1.268   2.843  18.465  0.00  0.00    +0.000 A 
ATOM     21  C   UNL     1       0.972   2.744  19.824  0.00  0.00    +0.000 A 
ATOM     22  C   UNL     1       1.220   3.826  20.667  0.00  0.00    +0.000 A 
ATOM     23  C   UNL     1       1.766   5.004  20.151  0.00  0.00    +0.000 A 
ENDBRANCH  17  18
ENDBRANCH  16  17
ENDBRANCH   2  16
TORSDOF 4
ENDMDL
MODEL 6
REMARK VINA RESULT:      -6.8      3.420      5.086
REMARK  Name = 
REMARK  4 active torsions:
REMARK  status: ('A' for Active; 'I' for Inactive)
REMARK    1  A    between atoms: C_2  and  C_3
REMARK    2  A    between atoms: C_3  and  S_4
REMARK    3  A    between atoms: S_4  and  C_5
REMARK    4  A    between atoms: N_14  and  C_15
REMARK                            x       y       z     vdW  Elec       q    Type
REMARK                         _______ _______ _______ _____ _____    ______ ____
ROOT
ATOM      1  O   UNL     1       1.740   5.513  20.813  0.00  0.00    +0.000 OA
ATOM      2  C   UNL     1       2.122   5.980  19.737  0.00  0.00    +0.000 C 
ATOM      3  N   UNL     1       2.241   7.355  19.571  0.00  0.00    +0.000 N 
ATOM      4  C   UNL     1       2.697   8.060  18.365  0.00  0.00    +0.000 C 
ATOM      5  C   UNL     1       1.546   8.884  17.761  0.00  0.00    +0.000 C 
ATOM      6  N   UNL     1       0.972   9.790  18.773  0.00  0.00    +0.000 N 
ATOM      7  C   UNL     1       0.558   9.139  20.036  0.00  0.00    +0.000 C 
ATOM      8  C   UNL     1       1.700   8.259  20.600  0.00  0.00    +0.000 C 
ENDROOT
BRANCH   6   9
ATOM      9  C   UNL     1       1.105  11.164  18.691  0.00  0.00    +0.000 A 
ATOM     10  C   UNL     1       2.299  11.744  18.225  0.00  0.00    +0.000 A 
ATOM     11  C   UNL     1       2.479  13.132  18.192  0.00  0.00    +0.000 A 
ATOM     12  C   UNL     1       1.456  13.963  18.618  0.00  0.00    +0.000 A 
ATOM     13  F   UNL     1       1.627  15.291  18.599  0.00  0.00    +0.000 F 
ATOM     14  C   UNL     1       0.259  13.432  19.068  0.00  0.00    +0.000 A 
ATOM     15  C   UNL     1       0.091  12.043  19.105  0.00  0.00    +0.000 A 
ENDBRANCH   6   9
BRANCH   2  16
ATOM     16  C   UNL     1       2.523   5.078  18.563  0.00  0.00    +0.000 C 
BRANCH  16  17
ATOM     17  S   UNL     1       3.864   3.928  19.042  0.00  0.00    +0.000 S 
BRANCH  17  18
ATOM     18  C   UNL     1       5.045   4.195  17.733  0.00  0.00    +0.000 A 
ATOM     19  C   UNL     1       4.682   4.137  16.383  0.00  0.00    +0.000 A 
ATOM     20  C   UNL     1       5.613   4.436  15.384  0.00  0.00    +0.000 A 
ATOM     21  C   UNL     1       6.915   4.802  15.727  0.00  0.00    +0.000 A 
ATOM     22  C   UNL     1       7.285   4.866  17.070  0.00  0.00    +0.000 A 
ATOM     23  C   UNL     1       6.354   4.567  18.067  0.00  0.00    +0.000 A 
ENDBRANCH  17  18
ENDBRANCH  16  17
ENDBRANCH   2  16
TORSDOF 4
ENDMDL
MODEL 7
REMARK VINA RESULT:      -6.7      3.435      5.152
REMARK  Name = 
REMARK  4 active torsions:
REMARK  status: ('A' for Active; 'I' for Inactive)
REMARK    1  A    between atoms: C_2  and  C_3
REMARK    2  A    between atoms: C_3  and  S_4
REMARK    3  A    between atoms: S_4  and  C_5
REMARK    4  A    between atoms: N_14  and  C_15
REMARK                            x       y       z     vdW  Elec       q    Type
REMARK                         _______ _______ _______ _____ _____    ______ ____
ROOT
ATOM      1  O   UNL     1       1.883   5.328  20.383  0.00  0.00    +0.000 OA
ATOM      2  C   UNL     1       2.237   5.910  19.354  0.00  0.00    +0.000 C 
ATOM      3  N   UNL     1       2.371   7.294  19.340  0.00  0.00    +0.000 N 
ATOM      4  C   UNL     1       2.798   8.125  18.207  0.00  0.00    +0.000 C 
ATOM      5  C   UNL     1       1.642   9.025  17.739  0.00  0.00    +0.000 C 
ATOM      6  N   UNL     1       1.114   9.818  18.865  0.00  0.00    +0.000 N 
ATOM      7  C   UNL     1       0.731   9.032  20.061  0.00  0.00    +0.000 C 
ATOM      8  C   UNL     1       1.877   8.082  20.483  0.00  0.00    +0.000 C 
ENDROOT
BRANCH   6   9
ATOM      9  C   UNL     1       1.265  11.190  18.935  0.00  0.00    +0.000 A 
ATOM     10  C   UNL     1       2.203  11.853  18.122  0.00  0.00    +0.000 A 
ATOM     11  C   UNL     1       2.417  13.233  18.219  0.00  0.00    +0.000 A 
ATOM     12  C   UNL     1       1.682  13.974  19.130  0.00  0.00    +0.000 A 
ATOM     13  F   UNL     1       1.891  15.293  19.235  0.00  0.00    +0.000 F 
ATOM     14  C   UNL     1       0.737  13.363  19.936  0.00  0.00    +0.000 A 
ATOM     15  C   UNL     1       0.536  11.982  19.838  0.00  0.00    +0.000 A 
ENDBRANCH   6   9
BRANCH   2  16
ATOM     16  C   UNL     1       2.586   5.142  18.073  0.00  0.00    +0.000 C 
BRANCH  16  17
ATOM     17  S   UNL     1       3.976   3.986  18.355  0.00  0.00    +0.000 S 
BRANCH  17  18
ATOM     18  C   UNL     1       5.382   5.060  18.130  0.00  0.00    +0.000 A 
ATOM     19  C   UNL     1       5.441   5.998  17.094  0.00  0.00    +0.000 A 
ATOM     20  C   UNL     1       6.519   6.883  16.998  0.00  0.00    +0.000 A 
ATOM     21  C   UNL     1       7.546   6.840  17.941  0.00  0.00    +0.000 A 
ATOM     22  C   UNL     1       7.495   5.911  18.979  0.00  0.00    +0.000 A 
ATOM     23  C   UNL     1       6.417   5.028  19.074  0.00  0.00    +0.000 A 
ENDBRANCH  17  18
ENDBRANCH  16  17
ENDBRANCH   2  16
TORSDOF 4
ENDMDL
MODEL 8
REMARK VINA RESULT:      -6.7      4.426      9.084
REMARK  Name = 
REMARK  4 active torsions:
REMARK  status: ('A' for Active; 'I' for Inactive)
REMARK    1  A    between atoms: C_2  and  C_3
REMARK    2  A    between atoms: C_3  and  S_4
REMARK    3  A    between atoms: S_4  and  C_5
REMARK    4  A    between atoms: N_14  and  C_15
REMARK                            x       y       z     vdW  Elec       q    Type
REMARK                         _______ _______ _______ _____ _____    ______ ____
ROOT
ATOM      1  O   UNL     1       0.731  11.460  21.601  0.00  0.00    +0.000 OA
ATOM      2  C   UNL     1       0.958  11.118  20.438  0.00  0.00    +0.000 C 
ATOM      3  N   UNL     1       0.829   9.787  20.058  0.00  0.00    +0.000 N 
ATOM      4  C   UNL     1       1.044   9.229  18.716  0.00  0.00    +0.000 C 
ATOM      5  C   UNL     1       2.260   8.287  18.718  0.00  0.00    +0.000 C 
ATOM      6  N   UNL     1       2.109   7.248  19.754  0.00  0.00    +0.000 N 
ATOM      7  C   UNL     1       1.823   7.756  21.115  0.00  0.00    +0.000 C 
ATOM      8  C   UNL     1       0.641   8.754  21.091  0.00  0.00    +0.000 C 
ENDROOT
BRANCH   6   9
ATOM      9  C   UNL     1       1.921   5.916  19.438  0.00  0.00    +0.000 A 
ATOM     10  C   UNL     1       2.139   5.448  18.130  0.00  0.00    +0.000 A 
ATOM     11  C   UNL     1       1.897   4.117  17.773  0.00  0.00    +0.000 A 
ATOM     12  C   UNL     1       1.441   3.226  18.730  0.00  0.00    +0.000 A 
ATOM     13  F   UNL     1       1.196   1.954  18.392  0.00  0.00    +0.000 F 
ATOM     14  C   UNL     1       1.230   3.642  20.034  0.00  0.00    +0.000 A 
ATOM     15  C   UNL     1       1.467   4.977  20.380  0.00  0.00    +0.000 A 
ENDBRANCH   6   9
BRANCH   2  16
ATOM     16  C   UNL     1       1.343  12.138  19.358  0.00  0.00    +0.000 C 
BRANCH  16  17
ATOM     17  S   UNL     1       0.388  13.689  19.545  0.00  0.00    +0.000 S 
BRANCH  17  18
ATOM     18  C   UNL     1       1.450  14.860  18.719  0.00  0.00    +0.000 A 
ATOM     19  C   UNL     1       1.143  16.224  18.656  0.00  0.00    +0.000 A 
ATOM     20  C   UNL     1       2.039  17.127  18.076  0.00  0.00    +0.000 A 
ATOM     21  C   UNL     1       3.253  16.675  17.559  0.00  0.00    +0.000 A 
ATOM     22  C   UNL     1       3.569  15.318  17.620  0.00  0.00    +0.000 A 
ATOM     23  C   UNL     1       2.673  14.417  18.200  0.00  0.00    +0.000 A 
ENDBRANCH  17  18
ENDBRANCH  16  17
ENDBRANCH   2  16
TORSDOF 4
ENDMDL
MODEL 9
REMARK VINA RESULT:      -6.7      4.598      6.539
REMARK  Name = 
REMARK  4 active torsions:
REMARK  status: ('A' for Active; 'I' for Inactive)
REMARK    1  A    between atoms: C_2  and  C_3
REMARK    2  A    between atoms: C_3  and  S_4
REMARK    3  A    between atoms: S_4  and  C_5
REMARK    4  A    between atoms: N_14  and  C_15
REMARK                            x       y       z     vdW  Elec       q    Type
REMARK                         _______ _______ _______ _____ _____    ______ ____
ROOT
ATOM      1  O   UNL     1       4.485   2.965  18.831  0.00  0.00    +0.000 OA
ATOM      2  C   UNL     1       4.442   3.982  18.136  0.00  0.00    +0.000 C 
ATOM      3  N   UNL     1       4.059   5.198  18.691  0.00  0.00    +0.000 N 
ATOM      4  C   UNL     1       3.977   6.494  18.004  0.00  0.00    +0.000 C 
ATOM      5  C   UNL     1       2.515   6.968  17.932  0.00  0.00    +0.000 C 
ATOM      6  N   UNL     1       1.913   6.994  19.278  0.00  0.00    +0.000 N 
ATOM      7  C   UNL     1       2.028   5.730  20.041  0.00  0.00    +0.000 C 
ATOM      8  C   UNL     1       3.491   5.227  20.050  0.00  0.00    +0.000 C 
ENDROOT
BRANCH   6   9
ATOM      9  C   UNL     1       1.563   8.174  19.906  0.00  0.00    +0.000 A 
ATOM     10  C   UNL     1       1.468   8.243  21.307  0.00  0.00    +0.000 A 
ATOM     11  C   UNL     1       1.056   9.410  21.962  0.00  0.00    +0.000 A 
ATOM     12  C   UNL     1       0.742  10.535  21.217  0.00  0.00    +0.000 A 
ATOM     13  F   UNL     1       0.337  11.651  21.837  0.00  0.00    +0.000 F 
ATOM     14  C   UNL     1       0.839  10.514  19.836  0.00  0.00    +0.000 A 
ATOM     15  C   UNL     1       1.243   9.340  19.190  0.00  0.00    +0.000 A 
ENDBRANCH   6   9
BRANCH   2  16
ATOM     16  C   UNL     1       4.849   3.966  16.657  0.00  0.00    +0.000 C 
BRANCH  16  17
ATOM     17  S   UNL     1       6.540   4.627  16.430  0.00  0.00    +0.000 S 
BRANCH  17  18
ATOM     18  C   UNL     1       6.708   4.570  14.654  0.00  0.00    +0.000 A 
ATOM     19  C   UNL     1       7.691   5.300  13.978  0.00  0.00    +0.000 A 
ATOM     20  C   UNL     1       7.850   5.165  12.596  0.00  0.00    +0.000 A 
ATOM     21  C   UNL     1       7.030   4.295  11.878  0.00  0.00    +0.000 A 
ATOM     22  C   UNL     1       6.049   3.561  12.544  0.00  0.00    +0.000 A 
ATOM     23  C   UNL     1       5.891   3.696  13.925  0.00  0.00    +0.000 A 
ENDBRANCH  17  18
ENDBRANCH  16  17
ENDBRANCH   2  16
TORSDOF 4
ENDMDL
