MODEL 1
REMARK VINA RESULT:      -7.7      0.000      0.000
REMARK  Name = 
REMARK  8 active torsions:
REMARK  status: ('A' for Active; 'I' for Inactive)
REMARK    1  A    between atoms: C_1  and  C_2
REMARK    2  A    between atoms: C_2  and  C_4
REMARK    3  A    between atoms: C_5  and  C_6
REMARK    4  A    between atoms: C_7  and  C_8
REMARK    5  A    between atoms: C_12  and  C_13
REMARK    6  A    between atoms: C_12  and  C_14
REMARK    7  A    between atoms: C_18  and  C_19
REMARK    8  A    between atoms: C_18  and  O_20
REMARK                            x       y       z     vdW  Elec       q    Type
REMARK                         _______ _______ _______ _____ _____    ______ ____
ROOT
ATOM      1  C   UNL     1       4.707   4.317  17.327  0.00  0.00    +0.000 C 
ATOM      2  C   UNL     1       3.295   3.809  17.880  0.00  0.00    +0.000 C 
ATOM      3  C   UNL     1       2.148   4.644  17.263  0.00  0.00    +0.000 C 
ATOM      4  C   UNL     1       3.023   2.321  17.500  0.00  0.00    +0.000 C 
ATOM      5  C   UNL     1       1.782   1.729  18.199  0.00  0.00    +0.000 C 
ATOM      6  C   UNL     1       1.838   1.855  19.721  0.00  0.00    +0.000 C 
ATOM      7  C   UNL     1       2.101   3.293  20.227  0.00  0.00    +0.000 C 
ATOM      8  C   UNL     1       0.839   4.167  20.082  0.00  0.00    +0.000 C 
ATOM      9  C   UNL     1       2.367   3.199  21.756  0.00  0.00    +0.000 C 
ATOM     10  C   UNL     1       3.362   3.858  19.473  0.00  0.00    +0.000 C 
ATOM     11  C   UNL     1       3.837   5.214  20.036  0.00  0.00    +0.000 C 
ATOM     12  C   UNL     1       5.141   5.688  19.414  0.00  0.00    +0.000 C 
ATOM     13  C   UNL     1       5.080   5.752  17.890  0.00  0.00    +0.000 C 
ATOM     14  C   UNL     1       4.176   6.916  17.442  0.00  0.00    +0.000 C 
ENDROOT
BRANCH   1  16
ATOM     15  C   UNL     1       6.023   3.728  15.207  0.00  0.00    +0.000 C 
ATOM     16  C   UNL     1       4.987   4.330  15.822  0.00  0.00    +0.000 C 
BRANCH  15  18
ATOM     17  C   UNL     1       5.964   3.454  12.656  0.00  0.00    +0.000 C 
ATOM     18  C   UNL     1       6.448   4.224  13.858  0.00  0.00    +0.000 C 
ATOM     19  O   UNL     1       7.219   5.181  13.736  0.00  0.00    +0.000 OA
ENDBRANCH  15  18
ENDBRANCH   1  16
BRANCH  13  20
ATOM     20  O   UNL     1       6.401   6.127  17.455  0.00  0.00    +0.000 OA
ATOM     21  H   UNL     1       7.045   5.549  17.895  0.00  0.00    +0.000 HD
ENDBRANCH  13  20
TORSDOF 3
ENDMDL
MODEL 2
REMARK VINA RESULT:      -7.4      1.273      1.566
REMARK  Name = 
REMARK  8 active torsions:
REMARK  status: ('A' for Active; 'I' for Inactive)
REMARK    1  A    between atoms: C_1  and  C_2
REMARK    2  A    between atoms: C_2  and  C_4
REMARK    3  A    between atoms: C_5  and  C_6
REMARK    4  A    between atoms: C_7  and  C_8
REMARK    5  A    between atoms: C_12  and  C_13
REMARK    6  A    between atoms: C_12  and  C_14
REMARK    7  A    between atoms: C_18  and  C_19
REMARK    8  A    between atoms: C_18  and  O_20
REMARK                            x       y       z     vdW  Elec       q    Type
REMARK                         _______ _______ _______ _____ _____    ______ ____
ROOT
ATOM      1  C   UNL     1       5.289   4.492  16.887  0.00  0.00    +0.000 C 
ATOM      2  C   UNL     1       3.866   4.853  17.524  0.00  0.00    +0.000 C 
ATOM      3  C   UNL     1       3.510   6.329  17.228  0.00  0.00    +0.000 C 
ATOM      4  C   UNL     1       2.722   3.983  16.919  0.00  0.00    +0.000 C 
ATOM      5  C   UNL     1       1.378   4.143  17.659  0.00  0.00    +0.000 C 
ATOM      6  C   UNL     1       1.484   3.860  19.156  0.00  0.00    +0.000 C 
ATOM      7  C   UNL     1       2.589   4.669  19.876  0.00  0.00    +0.000 C 
ATOM      8  C   UNL     1       2.162   6.138  20.063  0.00  0.00    +0.000 C 
ATOM      9  C   UNL     1       2.720   4.089  21.312  0.00  0.00    +0.000 C 
ATOM     10  C   UNL     1       3.932   4.489  19.075  0.00  0.00    +0.000 C 
ATOM     11  C   UNL     1       5.150   5.093  19.807  0.00  0.00    +0.000 C 
ATOM     12  C   UNL     1       6.467   4.788  19.112  0.00  0.00    +0.000 C 
ATOM     13  C   UNL     1       6.477   5.218  17.648  0.00  0.00    +0.000 C 
ATOM     14  C   UNL     1       6.514   6.754  17.544  0.00  0.00    +0.000 C 
ENDROOT
BRANCH   1  16
ATOM     15  C   UNL     1       5.844   3.689  14.517  0.00  0.00    +0.000 C 
ATOM     16  C   UNL     1       5.531   4.668  15.386  0.00  0.00    +0.000 C 
BRANCH  15  18
ATOM     17  C   UNL     1       6.195   3.232  12.016  0.00  0.00    +0.000 C 
ATOM     18  C   UNL     1       6.528   4.054  13.234  0.00  0.00    +0.000 C 
ATOM     19  O   UNL     1       7.380   4.947  13.190  0.00  0.00    +0.000 OA
ENDBRANCH  15  18
ENDBRANCH   1  16
BRANCH  13  20
ATOM     20  O   UNL     1       7.744   4.785  17.116  0.00  0.00    +0.000 OA
ATOM     21  H   UNL     1       7.698   4.820  16.146  0.00  0.00    +0.000 HD
ENDBRANCH  13  20
TORSDOF 3
ENDMDL
MODEL 3
REMARK VINA RESULT:      -7.3      2.316      4.576
REMARK  Name = 
REMARK  8 active torsions:
REMARK  status: ('A' for Active; 'I' for Inactive)
REMARK    1  A    between atoms: C_1  and  C_2
REMARK    2  A    between atoms: C_2  and  C_4
REMARK    3  A    between atoms: C_5  and  C_6
REMARK    4  A    between atoms: C_7  and  C_8
REMARK    5  A    between atoms: C_12  and  C_13
REMARK    6  A    between atoms: C_12  and  C_14
REMARK    7  A    between atoms: C_18  and  C_19
REMARK    8  A    between atoms: C_18  and  O_20
REMARK                            x       y       z     vdW  Elec       q    Type
REMARK                         _______ _______ _______ _____ _____    ______ ____
ROOT
ATOM      1  C   UNL     1       3.496   6.228  17.317  0.00  0.00    +0.000 C 
ATOM      2  C   UNL     1       3.336   5.164  18.501  0.00  0.00    +0.000 C 
ATOM      3  C   UNL     1       4.231   5.559  19.698  0.00  0.00    +0.000 C 
ATOM      4  C   UNL     1       1.872   5.104  19.034  0.00  0.00    +0.000 C 
ATOM      5  C   UNL     1       1.627   3.941  20.017  0.00  0.00    +0.000 C 
ATOM      6  C   UNL     1       2.003   2.579  19.436  0.00  0.00    +0.000 C 
ATOM      7  C   UNL     1       3.443   2.509  18.872  0.00  0.00    +0.000 C 
ATOM      8  C   UNL     1       4.477   2.440  20.013  0.00  0.00    +0.000 C 
ATOM      9  C   UNL     1       3.572   1.158  18.114  0.00  0.00    +0.000 C 
ATOM     10  C   UNL     1       3.649   3.723  17.893  0.00  0.00    +0.000 C 
ATOM     11  C   UNL     1       4.983   3.648  17.120  0.00  0.00    +0.000 C 
ATOM     12  C   UNL     1       5.116   4.734  16.064  0.00  0.00    +0.000 C 
ATOM     13  C   UNL     1       4.924   6.137  16.632  0.00  0.00    +0.000 C 
ATOM     14  C   UNL     1       6.128   6.525  17.513  0.00  0.00    +0.000 C 
ENDROOT
BRANCH   1  16
ATOM     15  C   UNL     1       2.172   8.199  18.282  0.00  0.00    +0.000 C 
ATOM     16  C   UNL     1       3.200   7.709  17.565  0.00  0.00    +0.000 C 
BRANCH  15  18
ATOM     17  C   UNL     1       0.268   9.920  18.265  0.00  0.00    +0.000 C 
ATOM     18  C   UNL     1       1.723   9.607  18.030  0.00  0.00    +0.000 C 
ATOM     19  O   UNL     1       2.496  10.460  17.583  0.00  0.00    +0.000 OA
ENDBRANCH  15  18
ENDBRANCH   1  16
BRANCH  13  20
ATOM     20  O   UNL     1       4.991   7.034  15.507  0.00  0.00    +0.000 OA
ATOM     21  H   UNL     1       5.803   7.562  15.582  0.00  0.00    +0.000 HD
ENDBRANCH  13  20
TORSDOF 3
ENDMDL
MODEL 4
REMARK VINA RESULT:      -6.8      2.376      4.470
REMARK  Name = 
REMARK  8 active torsions:
REMARK  status: ('A' for Active; 'I' for Inactive)
REMARK    1  A    between atoms: C_1  and  C_2
REMARK    2  A    between atoms: C_2  and  C_4
REMARK    3  A    between atoms: C_5  and  C_6
REMARK    4  A    between atoms: C_7  and  C_8
REMARK    5  A    between atoms: C_12  and  C_13
REMARK    6  A    between atoms: C_12  and  C_14
REMARK    7  A    between atoms: C_18  and  C_19
REMARK    8  A    between atoms: C_18  and  O_20
REMARK                            x       y       z     vdW  Elec       q    Type
REMARK                         _______ _______ _______ _____ _____    ______ ____
ROOT
ATOM      1  C   UNL     1       5.889   6.271  16.617  0.00  0.00    +0.000 C 
ATOM      2  C   UNL     1       4.840   5.933  17.777  0.00  0.00    +0.000 C 
ATOM      3  C   UNL     1       5.580   5.721  19.119  0.00  0.00    +0.000 C 
ATOM      4  C   UNL     1       3.826   7.096  18.000  0.00  0.00    +0.000 C 
ATOM      5  C   UNL     1       2.668   6.723  18.950  0.00  0.00    +0.000 C 
ATOM      6  C   UNL     1       1.909   5.475  18.502  0.00  0.00    +0.000 C 
ATOM      7  C   UNL     1       2.810   4.243  18.248  0.00  0.00    +0.000 C 
ATOM      8  C   UNL     1       3.282   3.623  19.579  0.00  0.00    +0.000 C 
ATOM      9  C   UNL     1       1.923   3.158  17.576  0.00  0.00    +0.000 C 
ATOM     10  C   UNL     1       3.982   4.678  17.292  0.00  0.00    +0.000 C 
ATOM     11  C   UNL     1       4.836   3.486  16.812  0.00  0.00    +0.000 C 
ATOM     12  C   UNL     1       5.872   3.882  15.772  0.00  0.00    +0.000 C 
ATOM     13  C   UNL     1       6.780   5.014  16.242  0.00  0.00    +0.000 C 
ATOM     14  C   UNL     1       7.738   4.508  17.337  0.00  0.00    +0.000 C 
ENDROOT
BRANCH   1  16
ATOM     15  C   UNL     1       7.671   7.706  17.773  0.00  0.00    +0.000 C 
ATOM     16  C   UNL     1       6.826   7.474  16.750  0.00  0.00    +0.000 C 
BRANCH  15  18
ATOM     17  C   UNL     1       9.095   9.328  19.161  0.00  0.00    +0.000 C 
ATOM     18  C   UNL     1       8.135   9.110  18.021  0.00  0.00    +0.000 C 
ATOM     19  O   UNL     1       7.697  10.059  17.363  0.00  0.00    +0.000 OA
ENDBRANCH  15  18
ENDBRANCH   1  16
BRANCH  13  20
ATOM     20  O   UNL     1       7.635   5.328  15.126  0.00  0.00    +0.000 OA
ATOM     21  H   UNL     1       7.092   5.726  14.426  0.00  0.00    +0.000 HD
ENDBRANCH  13  20
TORSDOF 3
ENDMDL
MODEL 5
REMARK VINA RESULT:      -6.3      3.160      6.428
REMARK  Name = 
REMARK  8 active torsions:
REMARK  status: ('A' for Active; 'I' for Inactive)
REMARK    1  A    between atoms: C_1  and  C_2
REMARK    2  A    between atoms: C_2  and  C_4
REMARK    3  A    between atoms: C_5  and  C_6
REMARK    4  A    between atoms: C_7  and  C_8
REMARK    5  A    between atoms: C_12  and  C_13
REMARK    6  A    between atoms: C_12  and  C_14
REMARK    7  A    between atoms: C_18  and  C_19
REMARK    8  A    between atoms: C_18  and  O_20
REMARK                            x       y       z     vdW  Elec       q    Type
REMARK                         _______ _______ _______ _____ _____    ______ ____
ROOT
ATOM      1  C   UNL     1       2.766   5.523  20.089  0.00  0.00    +0.000 C 
ATOM      2  C   UNL     1       3.262   5.660  18.574  0.00  0.00    +0.000 C 
ATOM      3  C   UNL     1       2.120   5.284  17.602  0.00  0.00    +0.000 C 
ATOM      4  C   UNL     1       3.683   7.122  18.231  0.00  0.00    +0.000 C 
ATOM      5  C   UNL     1       4.373   7.252  16.858  0.00  0.00    +0.000 C 
ATOM      6  C   UNL     1       5.586   6.335  16.710  0.00  0.00    +0.000 C 
ATOM      7  C   UNL     1       5.295   4.848  17.024  0.00  0.00    +0.000 C 
ATOM      8  C   UNL     1       4.507   4.188  15.874  0.00  0.00    +0.000 C 
ATOM      9  C   UNL     1       6.664   4.112  17.064  0.00  0.00    +0.000 C 
ATOM     10  C   UNL     1       4.577   4.769  18.421  0.00  0.00    +0.000 C 
ATOM     11  C   UNL     1       4.412   3.321  18.928  0.00  0.00    +0.000 C 
ATOM     12  C   UNL     1       3.858   3.250  20.342  0.00  0.00    +0.000 C 
ATOM     13  C   UNL     1       2.543   4.007  20.501  0.00  0.00    +0.000 C 
ATOM     14  C   UNL     1       1.408   3.263  19.773  0.00  0.00    +0.000 C 
ENDROOT
BRANCH   1  16
ATOM     15  C   UNL     1       1.456   7.655  20.645  0.00  0.00    +0.000 C 
ATOM     16  C   UNL     1       1.549   6.314  20.578  0.00  0.00    +0.000 C 
BRANCH  15  18
ATOM     17  C   UNL     1       0.957   9.287  22.562  0.00  0.00    +0.000 C 
ATOM     18  C   UNL     1       0.453   8.262  21.580  0.00  0.00    +0.000 C 
ATOM     19  O   UNL     1      -0.724   7.889  21.593  0.00  0.00    +0.000 OA
ENDBRANCH  15  18
ENDBRANCH   1  16
BRANCH  13  20
ATOM     20  O   UNL     1       2.200   3.919  21.898  0.00  0.00    +0.000 OA
ATOM     21  H   UNL     1       2.940   4.273  22.419  0.00  0.00    +0.000 HD
ENDBRANCH  13  20
TORSDOF 3
ENDMDL
MODEL 6
REMARK VINA RESULT:      -6.0      2.120      2.934
REMARK  Name = 
REMARK  8 active torsions:
REMARK  status: ('A' for Active; 'I' for Inactive)
REMARK    1  A    between atoms: C_1  and  C_2
REMARK    2  A    between atoms: C_2  and  C_4
REMARK    3  A    between atoms: C_5  and  C_6
REMARK    4  A    between atoms: C_7  and  C_8
REMARK    5  A    between atoms: C_12  and  C_13
REMARK    6  A    between atoms: C_12  and  C_14
REMARK    7  A    between atoms: C_18  and  C_19
REMARK    8  A    between atoms: C_18  and  O_20
REMARK                            x       y       z     vdW  Elec       q    Type
REMARK                         _______ _______ _______ _____ _____    ______ ____
ROOT
ATOM      1  C   UNL     1       3.979   5.891  18.941  0.00  0.00    +0.000 C 
ATOM      2  C   UNL     1       3.580   4.351  19.105  0.00  0.00    +0.000 C 
ATOM      3  C   UNL     1       2.994   3.808  17.781  0.00  0.00    +0.000 C 
ATOM      4  C   UNL     1       4.816   3.464  19.448  0.00  0.00    +0.000 C 
ATOM      5  C   UNL     1       4.441   2.017  19.831  0.00  0.00    +0.000 C 
ATOM      6  C   UNL     1       3.439   1.945  20.982  0.00  0.00    +0.000 C 
ATOM      7  C   UNL     1       2.159   2.788  20.760  0.00  0.00    +0.000 C 
ATOM      8  C   UNL     1       1.222   2.106  19.743  0.00  0.00    +0.000 C 
ATOM      9  C   UNL     1       1.378   2.797  22.103  0.00  0.00    +0.000 C 
ATOM     10  C   UNL     1       2.593   4.245  20.354  0.00  0.00    +0.000 C 
ATOM     11  C   UNL     1       1.405   5.228  20.296  0.00  0.00    +0.000 C 
ATOM     12  C   UNL     1       1.838   6.665  20.055  0.00  0.00    +0.000 C 
ATOM     13  C   UNL     1       2.701   6.821  18.806  0.00  0.00    +0.000 C 
ATOM     14  C   UNL     1       1.846   6.624  17.540  0.00  0.00    +0.000 C 
ENDROOT
BRANCH   1  16
ATOM     15  C   UNL     1       6.165   5.745  17.610  0.00  0.00    +0.000 C 
ATOM     16  C   UNL     1       4.974   6.320  17.860  0.00  0.00    +0.000 C 
BRANCH  15  18
ATOM     17  C   UNL     1       7.629   7.851  17.524  0.00  0.00    +0.000 C 
ATOM     18  C   UNL     1       7.217   6.543  16.901  0.00  0.00    +0.000 C 
ATOM     19  O   UNL     1       7.679   6.179  15.814  0.00  0.00    +0.000 OA
ENDBRANCH  15  18
ENDBRANCH   1  16
BRANCH  13  20
ATOM     20  O   UNL     1       3.097   8.206  18.768  0.00  0.00    +0.000 OA
ATOM     21  H   UNL     1       3.221   8.465  17.840  0.00  0.00    +0.000 HD
ENDBRANCH  13  20
TORSDOF 3
ENDMDL
MODEL 7
REMARK VINA RESULT:      -5.9      1.572      1.931
REMARK  Name = 
REMARK  8 active torsions:
REMARK  status: ('A' for Active; 'I' for Inactive)
REMARK    1  A    between atoms: C_1  and  C_2
REMARK    2  A    between atoms: C_2  and  C_4
REMARK    3  A    between atoms: C_5  and  C_6
REMARK    4  A    between atoms: C_7  and  C_8
REMARK    5  A    between atoms: C_12  and  C_13
REMARK    6  A    between atoms: C_12  and  C_14
REMARK    7  A    between atoms: C_18  and  C_19
REMARK    8  A    between atoms: C_18  and  O_20
REMARK                            x       y       z     vdW  Elec       q    Type
REMARK                         _______ _______ _______ _____ _____    ______ ____
ROOT
ATOM      1  C   UNL     1       4.134   5.704  18.269  0.00  0.00    +0.000 C 
ATOM      2  C   UNL     1       3.501   4.271  18.594  0.00  0.00    +0.000 C 
ATOM      3  C   UNL     1       2.555   3.835  17.451  0.00  0.00    +0.000 C 
ATOM      4  C   UNL     1       4.596   3.168  18.718  0.00  0.00    +0.000 C 
ATOM      5  C   UNL     1       4.052   1.824  19.246  0.00  0.00    +0.000 C 
ATOM      6  C   UNL     1       3.324   1.960  20.583  0.00  0.00    +0.000 C 
ATOM      7  C   UNL     1       2.205   3.029  20.588  0.00  0.00    +0.000 C 
ATOM      8  C   UNL     1       0.962   2.527  19.827  0.00  0.00    +0.000 C 
ATOM      9  C   UNL     1       1.746   3.204  22.062  0.00  0.00    +0.000 C 
ATOM     10  C   UNL     1       2.803   4.371  20.025  0.00  0.00    +0.000 C 
ATOM     11  C   UNL     1       1.833   5.563  20.164  0.00  0.00    +0.000 C 
ATOM     12  C   UNL     1       2.462   6.888  19.762  0.00  0.00    +0.000 C 
ATOM     13  C   UNL     1       3.051   6.860  18.355  0.00  0.00    +0.000 C 
ATOM     14  C   UNL     1       1.923   6.815  17.306  0.00  0.00    +0.000 C 
ENDROOT
BRANCH   1  16
ATOM     15  C   UNL     1       5.266   4.970  16.089  0.00  0.00    +0.000 C 
ATOM     16  C   UNL     1       4.934   5.922  16.983  0.00  0.00    +0.000 C 
BRANCH  15  18
ATOM     17  C   UNL     1       6.454   4.464  13.872  0.00  0.00    +0.000 C 
ATOM     18  C   UNL     1       6.434   5.209  15.181  0.00  0.00    +0.000 C 
ATOM     19  O   UNL     1       7.376   5.933  15.519  0.00  0.00    +0.000 OA
ENDBRANCH  15  18
ENDBRANCH   1  16
BRANCH  13  20
ATOM     20  O   UNL     1       3.678   8.142  18.162  0.00  0.00    +0.000 OA
ATOM     21  H   UNL     1       3.261   8.782  18.761  0.00  0.00    +0.000 HD
ENDBRANCH  13  20
TORSDOF 3
ENDMDL
MODEL 8
REMARK VINA RESULT:      -5.9      1.895      3.869
REMARK  Name = 
REMARK  8 active torsions:
REMARK  status: ('A' for Active; 'I' for Inactive)
REMARK    1  A    between atoms: C_1  and  C_2
REMARK    2  A    between atoms: C_2  and  C_4
REMARK    3  A    between atoms: C_5  and  C_6
REMARK    4  A    between atoms: C_7  and  C_8
REMARK    5  A    between atoms: C_12  and  C_13
REMARK    6  A    between atoms: C_12  and  C_14
REMARK    7  A    between atoms: C_18  and  C_19
REMARK    8  A    between atoms: C_18  and  O_20
REMARK                            x       y       z     vdW  Elec       q    Type
REMARK                         _______ _______ _______ _____ _____    ______ ____
ROOT
ATOM      1  C   UNL     1       4.596   5.953  17.326  0.00  0.00    +0.000 C 
ATOM      2  C   UNL     1       3.937   5.262  18.610  0.00  0.00    +0.000 C 
ATOM      3  C   UNL     1       5.037   4.657  19.514  0.00  0.00    +0.000 C 
ATOM      4  C   UNL     1       3.151   6.288  19.483  0.00  0.00    +0.000 C 
ATOM      5  C   UNL     1       2.321   5.627  20.603  0.00  0.00    +0.000 C 
ATOM      6  C   UNL     1       1.351   4.568  20.080  0.00  0.00    +0.000 C 
ATOM      7  C   UNL     1       2.015   3.485  19.196  0.00  0.00    +0.000 C 
ATOM      8  C   UNL     1       2.822   2.492  20.057  0.00  0.00    +0.000 C 
ATOM      9  C   UNL     1       0.869   2.647  18.562  0.00  0.00    +0.000 C 
ATOM     10  C   UNL     1       2.862   4.207  18.085  0.00  0.00    +0.000 C 
ATOM     11  C   UNL     1       3.414   3.230  17.025  0.00  0.00    +0.000 C 
ATOM     12  C   UNL     1       4.103   3.939  15.869  0.00  0.00    +0.000 C 
ATOM     13  C   UNL     1       5.210   4.882  16.330  0.00  0.00    +0.000 C 
ATOM     14  C   UNL     1       6.413   4.076  16.854  0.00  0.00    +0.000 C 
ENDROOT
BRANCH   1  16
ATOM     15  C   UNL     1       6.964   6.935  17.356  0.00  0.00    +0.000 C 
ATOM     16  C   UNL     1       5.631   7.068  17.495  0.00  0.00    +0.000 C 
BRANCH  15  18
ATOM     17  C   UNL     1       7.821   9.349  17.506  0.00  0.00    +0.000 C 
ATOM     18  C   UNL     1       7.862   7.934  18.021  0.00  0.00    +0.000 C 
ATOM     19  O   UNL     1       8.653   7.598  18.908  0.00  0.00    +0.000 OA
ENDBRANCH  15  18
ENDBRANCH   1  16
BRANCH  13  20
ATOM     20  O   UNL     1       5.696   5.534  15.141  0.00  0.00    +0.000 OA
ATOM     21  H   UNL     1       6.264   4.911  14.659  0.00  0.00    +0.000 HD
ENDBRANCH  13  20
TORSDOF 3
ENDMDL
MODEL 9
REMARK VINA RESULT:      -5.7     10.446     12.518
REMARK  Name = 
REMARK  8 active torsions:
REMARK  status: ('A' for Active; 'I' for Inactive)
REMARK    1  A    between atoms: C_1  and  C_2
REMARK    2  A    between atoms: C_2  and  C_4
REMARK    3  A    between atoms: C_5  and  C_6
REMARK    4  A    between atoms: C_7  and  C_8
REMARK    5  A    between atoms: C_12  and  C_13
REMARK    6  A    between atoms: C_12  and  C_14
REMARK    7  A    between atoms: C_18  and  C_19
REMARK    8  A    between atoms: C_18  and  O_20
REMARK                            x       y       z     vdW  Elec       q    Type
REMARK                         _______ _______ _______ _____ _____    ______ ____
ROOT
ATOM      1  C   UNL     1       8.390  13.438  20.794  0.00  0.00    +0.000 C 
ATOM      2  C   UNL     1       9.925  13.405  20.342  0.00  0.00    +0.000 C 
ATOM      3  C   UNL     1      10.733  14.468  21.123  0.00  0.00    +0.000 C 
ATOM      4  C   UNL     1      10.588  12.026  20.640  0.00  0.00    +0.000 C 
ATOM      5  C   UNL     1      11.994  11.879  20.022  0.00  0.00    +0.000 C 
ATOM      6  C   UNL     1      12.012  12.127  18.515  0.00  0.00    +0.000 C 
ATOM      7  C   UNL     1      11.379  13.474  18.089  0.00  0.00    +0.000 C 
ATOM      8  C   UNL     1      12.320  14.651  18.414  0.00  0.00    +0.000 C 
ATOM      9  C   UNL     1      11.260  13.454  16.539  0.00  0.00    +0.000 C 
ATOM     10  C   UNL     1       9.959  13.585  18.758  0.00  0.00    +0.000 C 
ATOM     11  C   UNL     1       9.152  14.798  18.250  0.00  0.00    +0.000 C 
ATOM     12  C   UNL     1       7.726  14.822  18.777  0.00  0.00    +0.000 C 
ATOM     13  C   UNL     1       7.658  14.756  20.300  0.00  0.00    +0.000 C 
ATOM     14  C   UNL     1       8.152  16.080  20.914  0.00  0.00    +0.000 C 
ENDROOT
BRANCH   1  16
ATOM     15  C   UNL     1       7.567  12.079  22.806  0.00  0.00    +0.000 C 
ATOM     16  C   UNL     1       8.013  13.228  22.263  0.00  0.00    +0.000 C 
BRANCH  15  18
ATOM     17  C   UNL     1       5.946  13.372  24.317  0.00  0.00    +0.000 C 
ATOM     18  C   UNL     1       6.782  12.141  24.081  0.00  0.00    +0.000 C 
ATOM     19  O   UNL     1       6.869  11.254  24.935  0.00  0.00    +0.000 OA
ENDBRANCH  15  18
ENDBRANCH   1  16
BRANCH  13  20
ATOM     20  O   UNL     1       6.258  14.699  20.633  0.00  0.00    +0.000 OA
ATOM     21  H   UNL     1       6.158  14.902  21.578  0.00  0.00    +0.000 HD
ENDBRANCH  13  20
TORSDOF 3
ENDMDL
