MODEL 1
REMARK VINA RESULT:     -10.7      0.000      0.000
REMARK  Name = 
REMARK  5 active torsions:
REMARK  status: ('A' for Active; 'I' for Inactive)
REMARK    1  A    between atoms: C_1  and  C_19
REMARK    2  A    between atoms: N_2  and  N_3
REMARK    3  A    between atoms: N_3  and  C_4
REMARK    4  A    between atoms: C_7  and  C_8
REMARK    5  A    between atoms: C_20  and  C_21
REMARK                            x       y       z     vdW  Elec       q    Type
REMARK                         _______ _______ _______ _____ _____    ______ ____
ROOT
ATOM      1  C   UNL     1       4.337   3.649  16.742  0.00  0.00    +0.000 C 
ATOM      2  N   UNL     1       5.474   3.740  16.117  0.00  0.00    +0.000 NA
ENDROOT
BRANCH   1   3
ATOM      3  C   UNL     1       3.677   3.626  18.044  0.00  0.00    +0.000 A 
ATOM      4  C   UNL     1       4.066   4.746  18.837  0.00  0.00    +0.000 A 
ATOM      5  N   UNL     1       4.318   4.025  20.004  0.00  0.00    +0.000 N 
ATOM      6  C   UNL     1       3.158   3.300  20.207  0.00  0.00    +0.000 A 
ATOM      7  C   UNL     1       2.568   2.910  21.408  0.00  0.00    +0.000 A 
ATOM      8  C   UNL     1       1.182   2.830  21.364  0.00  0.00    +0.000 A 
ATOM      9  C   UNL     1       0.498   3.000  20.154  0.00  0.00    +0.000 A 
ATOM     10  C   UNL     1       1.173   3.114  18.908  0.00  0.00    +0.000 A 
ATOM     11  C   UNL     1       2.576   3.261  18.917  0.00  0.00    +0.000 A 
ATOM     12  H   UNL     1       5.223   3.716  20.329  0.00  0.00    +0.000 HD
BRANCH   4  13
ATOM     13  C   UNL     1       3.192   5.995  18.790  0.00  0.00    +0.000 A 
ATOM     14  C   UNL     1       3.207   6.910  17.733  0.00  0.00    +0.000 A 
ATOM     15  C   UNL     1       2.552   8.146  17.862  0.00  0.00    +0.000 A 
ATOM     16  C   UNL     1       1.892   8.493  19.043  0.00  0.00    +0.000 A 
ATOM     17  C   UNL     1       1.881   7.606  20.108  0.00  0.00    +0.000 A 
ATOM     18  C   UNL     1       2.510   6.370  19.972  0.00  0.00    +0.000 A 
ENDBRANCH   4  13
ENDBRANCH   1   3
BRANCH   2  19
ATOM     19  N   UNL     1       6.737   3.827  16.574  0.00  0.00    +0.000 N 
ATOM     20  H   UNL     1       7.035   3.116  17.242  0.00  0.00    +0.000 HD
BRANCH  19  21
ATOM     21  C   UNL     1       7.102   5.150  17.032  0.00  0.00    +0.000 A 
ATOM     22  C   UNL     1       6.917   6.320  16.271  0.00  0.00    +0.000 A 
ATOM     23  C   UNL     1       7.332   7.596  16.735  0.00  0.00    +0.000 A 
ATOM     24  C   UNL     1       7.968   7.761  17.978  0.00  0.00    +0.000 A 
ATOM     25  C   UNL     1       8.132   6.601  18.755  0.00  0.00    +0.000 A 
ATOM     26  C   UNL     1       7.701   5.327  18.288  0.00  0.00    +0.000 A 
BRANCH  24  27
ATOM     27  C   UNL     1       8.447   9.108  18.407  0.00  0.00    +0.000 A 
ATOM     28  N   UNL     1       8.373  10.217  17.689  0.00  0.00    +0.000 NA
ATOM     29  C   UNL     1       9.011  11.206  18.410  0.00  0.00    +0.000 A 
ATOM     30  C   UNL     1       9.231  12.564  18.111  0.00  0.00    +0.000 A 
ATOM     31  C   UNL     1       9.942  13.368  19.016  0.00  0.00    +0.000 A 
ATOM     32  C   UNL     1      10.415  12.825  20.213  0.00  0.00    +0.000 A 
ATOM     33  C   UNL     1      10.188  11.480  20.550  0.00  0.00    +0.000 A 
ATOM     34  C   UNL     1       9.479  10.702  19.614  0.00  0.00    +0.000 A 
ATOM     35  N   UNL     1       9.080   9.383  19.601  0.00  0.00    +0.000 N 
ATOM     36  H   UNL     1       9.271   8.724  20.328  0.00  0.00    +0.000 HD
ENDBRANCH  24  27
ENDBRANCH  19  21
ENDBRANCH   2  19
TORSDOF 5
ENDMDL
MODEL 2
REMARK VINA RESULT:     -10.2      0.228      1.199
REMARK  Name = 
REMARK  5 active torsions:
REMARK  status: ('A' for Active; 'I' for Inactive)
REMARK    1  A    between atoms: C_1  and  C_19
REMARK    2  A    between atoms: N_2  and  N_3
REMARK    3  A    between atoms: N_3  and  C_4
REMARK    4  A    between atoms: C_7  and  C_8
REMARK    5  A    between atoms: C_20  and  C_21
REMARK                            x       y       z     vdW  Elec       q    Type
REMARK                         _______ _______ _______ _____ _____    ______ ____
ROOT
ATOM      1  C   UNL     1       4.300   3.702  16.767  0.00  0.00    +0.000 C 
ATOM      2  N   UNL     1       5.432   3.766  16.129  0.00  0.00    +0.000 NA
ENDROOT
BRANCH   1   3
ATOM      3  C   UNL     1       3.659   3.639  18.076  0.00  0.00    +0.000 A 
ATOM      4  C   UNL     1       4.216   4.601  18.969  0.00  0.00    +0.000 A 
ATOM      5  N   UNL     1       4.372   3.733  20.050  0.00  0.00    +0.000 N 
ATOM      6  C   UNL     1       3.120   3.167  20.208  0.00  0.00    +0.000 A 
ATOM      7  C   UNL     1       2.492   2.743  21.378  0.00  0.00    +0.000 A 
ATOM      8  C   UNL     1       1.108   2.871  21.362  0.00  0.00    +0.000 A 
ATOM      9  C   UNL     1       0.444   3.265  20.194  0.00  0.00    +0.000 A 
ATOM     10  C   UNL     1       1.115   3.410  18.949  0.00  0.00    +0.000 A 
ATOM     11  C   UNL     1       2.525   3.349  18.936  0.00  0.00    +0.000 A 
ATOM     12  H   UNL     1       5.225   3.263  20.317  0.00  0.00    +0.000 HD
BRANCH   4  13
ATOM     13  C   UNL     1       3.536   5.962  19.073  0.00  0.00    +0.000 A 
ATOM     14  C   UNL     1       2.680   6.321  20.118  0.00  0.00    +0.000 A 
ATOM     15  C   UNL     1       1.914   7.496  20.030  0.00  0.00    +0.000 A 
ATOM     16  C   UNL     1       1.976   8.313  18.899  0.00  0.00    +0.000 A 
ATOM     17  C   UNL     1       2.806   7.965  17.846  0.00  0.00    +0.000 A 
ATOM     18  C   UNL     1       3.583   6.813  17.942  0.00  0.00    +0.000 A 
ENDBRANCH   4  13
ENDBRANCH   1   3
BRANCH   2  19
ATOM     19  N   UNL     1       6.704   3.754  16.569  0.00  0.00    +0.000 N 
ATOM     20  H   UNL     1       6.953   3.026  17.238  0.00  0.00    +0.000 HD
BRANCH  19  21
ATOM     21  C   UNL     1       7.180   5.047  17.012  0.00  0.00    +0.000 A 
ATOM     22  C   UNL     1       7.723   5.284  18.289  0.00  0.00    +0.000 A 
ATOM     23  C   UNL     1       8.136   6.577  18.705  0.00  0.00    +0.000 A 
ATOM     24  C   UNL     1       8.010   7.700  17.867  0.00  0.00    +0.000 A 
ATOM     25  C   UNL     1       7.494   7.466  16.581  0.00  0.00    +0.000 A 
ATOM     26  C   UNL     1       7.095   6.163  16.167  0.00  0.00    +0.000 A 
BRANCH  24  27
ATOM     27  C   UNL     1       8.397   9.055  18.360  0.00  0.00    +0.000 A 
ATOM     28  N   UNL     1       8.235  10.190  17.700  0.00  0.00    +0.000 NA
ATOM     29  C   UNL     1       8.809  11.185  18.466  0.00  0.00    +0.000 A 
ATOM     30  C   UNL     1       8.928  12.569  18.234  0.00  0.00    +0.000 A 
ATOM     31  C   UNL     1       9.591  13.375  19.173  0.00  0.00    +0.000 A 
ATOM     32  C   UNL     1      10.115  12.809  20.337  0.00  0.00    +0.000 A 
ATOM     33  C   UNL     1       9.989  11.436  20.607  0.00  0.00    +0.000 A 
ATOM     34  C   UNL     1       9.326  10.657  19.639  0.00  0.00    +0.000 A 
ATOM     35  N   UNL     1       9.022   9.314  19.562  0.00  0.00    +0.000 N 
ATOM     36  H   UNL     1       9.269   8.635  20.253  0.00  0.00    +0.000 HD
ENDBRANCH  24  27
ENDBRANCH  19  21
ENDBRANCH   2  19
TORSDOF 5
ENDMDL
MODEL 3
REMARK VINA RESULT:      -9.6      5.290      8.621
REMARK  Name = 
REMARK  5 active torsions:
REMARK  status: ('A' for Active; 'I' for Inactive)
REMARK    1  A    between atoms: C_1  and  C_19
REMARK    2  A    between atoms: N_2  and  N_3
REMARK    3  A    between atoms: N_3  and  C_4
REMARK    4  A    between atoms: C_7  and  C_8
REMARK    5  A    between atoms: C_20  and  C_21
REMARK                            x       y       z     vdW  Elec       q    Type
REMARK                         _______ _______ _______ _____ _____    ______ ____
ROOT
ATOM      1  C   UNL     1       3.051   7.709  17.705  0.00  0.00    +0.000 C 
ATOM      2  N   UNL     1       2.148   8.184  18.513  0.00  0.00    +0.000 NA
ENDROOT
BRANCH   1   3
ATOM      3  C   UNL     1       4.126   6.736  17.541  0.00  0.00    +0.000 A 
ATOM      4  C   UNL     1       4.123   5.783  18.602  0.00  0.00    +0.000 A 
ATOM      5  N   UNL     1       5.492   5.843  18.862  0.00  0.00    +0.000 N 
ATOM      6  C   UNL     1       6.078   5.624  17.630  0.00  0.00    +0.000 A 
ATOM      7  C   UNL     1       7.284   4.990  17.333  0.00  0.00    +0.000 A 
ATOM      8  C   UNL     1       7.296   4.326  16.112  0.00  0.00    +0.000 A 
ATOM      9  C   UNL     1       6.210   4.436  15.233  0.00  0.00    +0.000 A 
ATOM     10  C   UNL     1       5.128   5.328  15.468  0.00  0.00    +0.000 A 
ATOM     11  C   UNL     1       5.050   5.971  16.721  0.00  0.00    +0.000 A 
ATOM     12  H   UNL     1       5.936   6.380  19.594  0.00  0.00    +0.000 HD
BRANCH   4  13
ATOM     13  C   UNL     1       3.362   4.478  18.391  0.00  0.00    +0.000 A 
ATOM     14  C   UNL     1       2.003   4.419  18.071  0.00  0.00    +0.000 A 
ATOM     15  C   UNL     1       1.320   3.192  18.119  0.00  0.00    +0.000 A 
ATOM     16  C   UNL     1       1.973   2.018  18.502  0.00  0.00    +0.000 A 
ATOM     17  C   UNL     1       3.316   2.060  18.840  0.00  0.00    +0.000 A 
ATOM     18  C   UNL     1       4.000   3.272  18.769  0.00  0.00    +0.000 A 
ENDBRANCH   4  13
ENDBRANCH   1   3
BRANCH   2  19
ATOM     19  N   UNL     1       1.856   7.891  19.793  0.00  0.00    +0.000 N 
ATOM     20  H   UNL     1       1.464   6.967  19.976  0.00  0.00    +0.000 HD
BRANCH  19  21
ATOM     21  C   UNL     1       1.092   8.918  20.467  0.00  0.00    +0.000 A 
ATOM     22  C   UNL     1       0.426   9.963  19.799  0.00  0.00    +0.000 A 
ATOM     23  C   UNL     1      -0.274  10.982  20.498  0.00  0.00    +0.000 A 
ATOM     24  C   UNL     1      -0.329  11.011  21.903  0.00  0.00    +0.000 A 
ATOM     25  C   UNL     1       0.310   9.956  22.577  0.00  0.00    +0.000 A 
ATOM     26  C   UNL     1       1.000   8.932  21.867  0.00  0.00    +0.000 A 
BRANCH  24  27
ATOM     27  C   UNL     1      -1.022  12.131  22.607  0.00  0.00    +0.000 A 
ATOM     28  N   UNL     1      -0.430  13.179  23.156  0.00  0.00    +0.000 NA
ATOM     29  C   UNL     1      -1.418  13.916  23.779  0.00  0.00    +0.000 A 
ATOM     30  C   UNL     1      -1.343  15.112  24.518  0.00  0.00    +0.000 A 
ATOM     31  C   UNL     1      -2.509  15.656  25.079  0.00  0.00    +0.000 A 
ATOM     32  C   UNL     1      -3.739  15.020  24.892  0.00  0.00    +0.000 A 
ATOM     33  C   UNL     1      -3.847  13.840  24.138  0.00  0.00    +0.000 A 
ATOM     34  C   UNL     1      -2.656  13.319  23.597  0.00  0.00    +0.000 A 
ATOM     35  N   UNL     1      -2.381  12.211  22.825  0.00  0.00    +0.000 N 
ATOM     36  H   UNL     1      -3.064  11.547  22.520  0.00  0.00    +0.000 HD
ENDBRANCH  24  27
ENDBRANCH  19  21
ENDBRANCH   2  19
TORSDOF 5
ENDMDL
MODEL 4
REMARK VINA RESULT:      -9.5      5.301      8.709
REMARK  Name = 
REMARK  5 active torsions:
REMARK  status: ('A' for Active; 'I' for Inactive)
REMARK    1  A    between atoms: C_1  and  C_19
REMARK    2  A    between atoms: N_2  and  N_3
REMARK    3  A    between atoms: N_3  and  C_4
REMARK    4  A    between atoms: C_7  and  C_8
REMARK    5  A    between atoms: C_20  and  C_21
REMARK                            x       y       z     vdW  Elec       q    Type
REMARK                         _______ _______ _______ _____ _____    ______ ____
ROOT
ATOM      1  C   UNL     1       3.074   7.726  17.820  0.00  0.00    +0.000 C 
ATOM      2  N   UNL     1       2.183   8.205  18.639  0.00  0.00    +0.000 NA
ENDROOT
BRANCH   1   3
ATOM      3  C   UNL     1       4.123   6.729  17.632  0.00  0.00    +0.000 A 
ATOM      4  C   UNL     1       4.081   5.738  18.657  0.00  0.00    +0.000 A 
ATOM      5  N   UNL     1       5.448   5.749  18.935  0.00  0.00    +0.000 N 
ATOM      6  C   UNL     1       6.042   5.559  17.701  0.00  0.00    +0.000 A 
ATOM      7  C   UNL     1       7.232   4.901  17.394  0.00  0.00    +0.000 A 
ATOM      8  C   UNL     1       7.239   4.282  16.150  0.00  0.00    +0.000 A 
ATOM      9  C   UNL     1       6.168   4.455  15.265  0.00  0.00    +0.000 A 
ATOM     10  C   UNL     1       5.109   5.369  15.520  0.00  0.00    +0.000 A 
ATOM     11  C   UNL     1       5.034   5.968  16.795  0.00  0.00    +0.000 A 
ATOM     12  H   UNL     1       5.898   6.247  19.690  0.00  0.00    +0.000 HD
BRANCH   4  13
ATOM     13  C   UNL     1       3.285   4.465  18.392  0.00  0.00    +0.000 A 
ATOM     14  C   UNL     1       1.895   4.438  18.244  0.00  0.00    +0.000 A 
ATOM     15  C   UNL     1       1.211   3.211  18.232  0.00  0.00    +0.000 A 
ATOM     16  C   UNL     1       1.896   2.003  18.383  0.00  0.00    +0.000 A 
ATOM     17  C   UNL     1       3.272   2.010  18.547  0.00  0.00    +0.000 A 
ATOM     18  C   UNL     1       3.954   3.225  18.536  0.00  0.00    +0.000 A 
ENDBRANCH   4  13
ENDBRANCH   1   3
BRANCH   2  19
ATOM     19  N   UNL     1       1.881   7.886  19.911  0.00  0.00    +0.000 N 
ATOM     20  H   UNL     1       1.526   6.945  20.079  0.00  0.00    +0.000 HD
BRANCH  19  21
ATOM     21  C   UNL     1       1.061   8.874  20.581  0.00  0.00    +0.000 A 
ATOM     22  C   UNL     1       0.412   9.931  19.916  0.00  0.00    +0.000 A 
ATOM     23  C   UNL     1      -0.345  10.909  20.614  0.00  0.00    +0.000 A 
ATOM     24  C   UNL     1      -0.476  10.885  22.014  0.00  0.00    +0.000 A 
ATOM     25  C   UNL     1       0.148   9.816  22.681  0.00  0.00    +0.000 A 
ATOM     26  C   UNL     1       0.895   8.832  21.973  0.00  0.00    +0.000 A 
BRANCH  24  27
ATOM     27  C   UNL     1      -1.227  11.964  22.720  0.00  0.00    +0.000 A 
ATOM     28  N   UNL     1      -2.483  11.887  23.131  0.00  0.00    +0.000 NA
ATOM     29  C   UNL     1      -2.814  13.125  23.643  0.00  0.00    +0.000 A 
ATOM     30  C   UNL     1      -4.018  13.595  24.201  0.00  0.00    +0.000 A 
ATOM     31  C   UNL     1      -4.109  14.928  24.633  0.00  0.00    +0.000 A 
ATOM     32  C   UNL     1      -3.005  15.777  24.524  0.00  0.00    +0.000 A 
ATOM     33  C   UNL     1      -1.783  15.328  23.995  0.00  0.00    +0.000 A 
ATOM     34  C   UNL     1      -1.732  13.988  23.563  0.00  0.00    +0.000 A 
ATOM     35  N   UNL     1      -0.733  13.219  23.007  0.00  0.00    +0.000 N 
ATOM     36  H   UNL     1       0.189  13.547  22.800  0.00  0.00    +0.000 HD
ENDBRANCH  24  27
ENDBRANCH  19  21
ENDBRANCH   2  19
TORSDOF 5
ENDMDL
MODEL 5
REMARK VINA RESULT:      -9.4      0.305      1.580
REMARK  Name = 
REMARK  5 active torsions:
REMARK  status: ('A' for Active; 'I' for Inactive)
REMARK    1  A    between atoms: C_1  and  C_19
REMARK    2  A    between atoms: N_2  and  N_3
REMARK    3  A    between atoms: N_3  and  C_4
REMARK    4  A    between atoms: C_7  and  C_8
REMARK    5  A    between atoms: C_20  and  C_21
REMARK                            x       y       z     vdW  Elec       q    Type
REMARK                         _______ _______ _______ _____ _____    ______ ____
ROOT
ATOM      1  C   UNL     1       4.198   3.794  16.729  0.00  0.00    +0.000 C 
ATOM      2  N   UNL     1       5.312   3.850  16.059  0.00  0.00    +0.000 NA
ENDROOT
BRANCH   1   3
ATOM      3  C   UNL     1       3.594   3.708  18.055  0.00  0.00    +0.000 A 
ATOM      4  C   UNL     1       4.164   4.668  18.943  0.00  0.00    +0.000 A 
ATOM      5  N   UNL     1       4.361   3.789  20.009  0.00  0.00    +0.000 N 
ATOM      6  C   UNL     1       3.122   3.206  20.195  0.00  0.00    +0.000 A 
ATOM      7  C   UNL     1       2.532   2.760  21.377  0.00  0.00    +0.000 A 
ATOM      8  C   UNL     1       1.147   2.870  21.402  0.00  0.00    +0.000 A 
ATOM      9  C   UNL     1       0.446   3.269  20.257  0.00  0.00    +0.000 A 
ATOM     10  C   UNL     1       1.080   3.436  18.995  0.00  0.00    +0.000 A 
ATOM     11  C   UNL     1       2.489   3.394  18.943  0.00  0.00    +0.000 A 
ATOM     12  H   UNL     1       5.228   3.327  20.247  0.00  0.00    +0.000 HD
BRANCH   4  13
ATOM     13  C   UNL     1       3.470   6.018  19.081  0.00  0.00    +0.000 A 
ATOM     14  C   UNL     1       2.671   6.368  20.173  0.00  0.00    +0.000 A 
ATOM     15  C   UNL     1       1.882   7.530  20.126  0.00  0.00    +0.000 A 
ATOM     16  C   UNL     1       1.866   8.344  18.990  0.00  0.00    +0.000 A 
ATOM     17  C   UNL     1       2.638   8.004  17.892  0.00  0.00    +0.000 A 
ATOM     18  C   UNL     1       3.438   6.865  17.947  0.00  0.00    +0.000 A 
ENDBRANCH   4  13
ENDBRANCH   1   3
BRANCH   2  19
ATOM     19  N   UNL     1       6.596   3.795  16.459  0.00  0.00    +0.000 N 
ATOM     20  H   UNL     1       6.846   3.043  17.101  0.00  0.00    +0.000 HD
BRANCH  19  21
ATOM     21  C   UNL     1       7.117   5.063  16.922  0.00  0.00    +0.000 A 
ATOM     22  C   UNL     1       7.745   5.242  18.170  0.00  0.00    +0.000 A 
ATOM     23  C   UNL     1       8.201   6.513  18.609  0.00  0.00    +0.000 A 
ATOM     24  C   UNL     1       8.037   7.670  17.827  0.00  0.00    +0.000 A 
ATOM     25  C   UNL     1       7.436   7.494  16.569  0.00  0.00    +0.000 A 
ATOM     26  C   UNL     1       6.993   6.214  16.130  0.00  0.00    +0.000 A 
BRANCH  24  27
ATOM     27  C   UNL     1       8.473   8.999  18.347  0.00  0.00    +0.000 A 
ATOM     28  N   UNL     1       8.943   9.235  19.562  0.00  0.00    +0.000 NA
ATOM     29  C   UNL     1       9.133  10.599  19.660  0.00  0.00    +0.000 A 
ATOM     30  C   UNL     1       9.602  11.386  20.729  0.00  0.00    +0.000 A 
ATOM     31  C   UNL     1       9.681  12.780  20.583  0.00  0.00    +0.000 A 
ATOM     32  C   UNL     1       9.311  13.380  19.377  0.00  0.00    +0.000 A 
ATOM     33  C   UNL     1       8.864  12.618  18.285  0.00  0.00    +0.000 A 
ATOM     34  C   UNL     1       8.790  11.224  18.471  0.00  0.00    +0.000 A 
ATOM     35  N   UNL     1       8.408  10.186  17.648  0.00  0.00    +0.000 N 
ATOM     36  H   UNL     1       8.085  10.295  16.707  0.00  0.00    +0.000 HD
ENDBRANCH  24  27
ENDBRANCH  19  21
ENDBRANCH   2  19
TORSDOF 5
ENDMDL
MODEL 6
REMARK VINA RESULT:      -9.2      5.462      9.002
REMARK  Name = 
REMARK  5 active torsions:
REMARK  status: ('A' for Active; 'I' for Inactive)
REMARK    1  A    between atoms: C_1  and  C_19
REMARK    2  A    between atoms: N_2  and  N_3
REMARK    3  A    between atoms: N_3  and  C_4
REMARK    4  A    between atoms: C_7  and  C_8
REMARK    5  A    between atoms: C_20  and  C_21
REMARK                            x       y       z     vdW  Elec       q    Type
REMARK                         _______ _______ _______ _____ _____    ______ ____
ROOT
ATOM      1  C   UNL     1       2.693   7.373  18.381  0.00  0.00    +0.000 C 
ATOM      2  N   UNL     1       1.909   7.937  19.253  0.00  0.00    +0.000 NA
ENDROOT
BRANCH   1   3
ATOM      3  C   UNL     1       3.851   6.506  18.187  0.00  0.00    +0.000 A 
ATOM      4  C   UNL     1       3.976   5.569  19.254  0.00  0.00    +0.000 A 
ATOM      5  N   UNL     1       5.340   5.763  19.468  0.00  0.00    +0.000 N 
ATOM      6  C   UNL     1       5.903   5.588  18.217  0.00  0.00    +0.000 A 
ATOM      7  C   UNL     1       7.154   5.070  17.884  0.00  0.00    +0.000 A 
ATOM      8  C   UNL     1       7.189   4.397  16.669  0.00  0.00    +0.000 A 
ATOM      9  C   UNL     1       6.069   4.392  15.827  0.00  0.00    +0.000 A 
ATOM     10  C   UNL     1       4.914   5.179  16.092  0.00  0.00    +0.000 A 
ATOM     11  C   UNL     1       4.816   5.825  17.342  0.00  0.00    +0.000 A 
ATOM     12  H   UNL     1       5.754   6.349  20.180  0.00  0.00    +0.000 HD
BRANCH   4  13
ATOM     13  C   UNL     1       3.338   4.195  19.081  0.00  0.00    +0.000 A 
ATOM     14  C   UNL     1       4.068   3.005  19.019  0.00  0.00    +0.000 A 
ATOM     15  C   UNL     1       3.439   1.810  18.629  0.00  0.00    +0.000 A 
ATOM     16  C   UNL     1       2.086   1.789  18.281  0.00  0.00    +0.000 A 
ATOM     17  C   UNL     1       1.350   2.962  18.319  0.00  0.00    +0.000 A 
ATOM     18  C   UNL     1       1.967   4.142  18.728  0.00  0.00    +0.000 A 
ENDBRANCH   4  13
ENDBRANCH   1   3
BRANCH   2  19
ATOM     19  N   UNL     1       1.931   7.942  20.598  0.00  0.00    +0.000 N 
ATOM     20  H   UNL     1       1.789   7.046  21.064  0.00  0.00    +0.000 HD
BRANCH  19  21
ATOM     21  C   UNL     1       1.102   8.969  21.192  0.00  0.00    +0.000 A 
ATOM     22  C   UNL     1       0.541   8.873  22.480  0.00  0.00    +0.000 A 
ATOM     23  C   UNL     1      -0.307   9.881  23.010  0.00  0.00    +0.000 A 
ATOM     24  C   UNL     1      -0.648  11.027  22.270  0.00  0.00    +0.000 A 
ATOM     25  C   UNL     1      -0.069  11.142  20.994  0.00  0.00    +0.000 A 
ATOM     26  C   UNL     1       0.791  10.133  20.475  0.00  0.00    +0.000 A 
BRANCH  24  27
ATOM     27  C   UNL     1      -1.591  12.036  22.835  0.00  0.00    +0.000 A 
ATOM     28  N   UNL     1      -2.907  11.910  22.899  0.00  0.00    +0.000 NA
ATOM     29  C   UNL     1      -3.400  13.099  23.398  0.00  0.00    +0.000 A 
ATOM     30  C   UNL     1      -4.722  13.507  23.659  0.00  0.00    +0.000 A 
ATOM     31  C   UNL     1      -4.966  14.799  24.150  0.00  0.00    +0.000 A 
ATOM     32  C   UNL     1      -3.900  15.669  24.394  0.00  0.00    +0.000 A 
ATOM     33  C   UNL     1      -2.569  15.279  24.168  0.00  0.00    +0.000 A 
ATOM     34  C   UNL     1      -2.364  13.979  23.667  0.00  0.00    +0.000 A 
ATOM     35  N   UNL     1      -1.230  13.270  23.333  0.00  0.00    +0.000 N 
ATOM     36  H   UNL     1      -0.297  13.626  23.397  0.00  0.00    +0.000 HD
ENDBRANCH  24  27
ENDBRANCH  19  21
ENDBRANCH   2  19
TORSDOF 5
ENDMDL
MODEL 7
REMARK VINA RESULT:      -9.2      5.359      8.870
REMARK  Name = 
REMARK  5 active torsions:
REMARK  status: ('A' for Active; 'I' for Inactive)
REMARK    1  A    between atoms: C_1  and  C_19
REMARK    2  A    between atoms: N_2  and  N_3
REMARK    3  A    between atoms: N_3  and  C_4
REMARK    4  A    between atoms: C_7  and  C_8
REMARK    5  A    between atoms: C_20  and  C_21
REMARK                            x       y       z     vdW  Elec       q    Type
REMARK                         _______ _______ _______ _____ _____    ______ ____
ROOT
ATOM      1  C   UNL     1       2.908   7.490  18.025  0.00  0.00    +0.000 C 
ATOM      2  N   UNL     1       2.022   8.003  18.827  0.00  0.00    +0.000 NA
ENDROOT
BRANCH   1   3
ATOM      3  C   UNL     1       4.048   6.585  17.910  0.00  0.00    +0.000 A 
ATOM      4  C   UNL     1       4.117   5.702  19.028  0.00  0.00    +0.000 A 
ATOM      5  N   UNL     1       5.480   5.873  19.271  0.00  0.00    +0.000 N 
ATOM      6  C   UNL     1       6.074   5.620  18.049  0.00  0.00    +0.000 A 
ATOM      7  C   UNL     1       7.319   5.054  17.780  0.00  0.00    +0.000 A 
ATOM      8  C   UNL     1       7.371   4.318  16.603  0.00  0.00    +0.000 A 
ATOM      9  C   UNL     1       6.276   4.297  15.729  0.00  0.00    +0.000 A 
ATOM     10  C   UNL     1       5.136   5.125  15.918  0.00  0.00    +0.000 A 
ATOM     11  C   UNL     1       5.019   5.838  17.130  0.00  0.00    +0.000 A 
ATOM     12  H   UNL     1       5.889   6.485  19.964  0.00  0.00    +0.000 HD
BRANCH   4  13
ATOM     13  C   UNL     1       3.449   4.337  18.906  0.00  0.00    +0.000 A 
ATOM     14  C   UNL     1       4.144   3.126  18.970  0.00  0.00    +0.000 A 
ATOM     15  C   UNL     1       3.503   1.925  18.622  0.00  0.00    +0.000 A 
ATOM     16  C   UNL     1       2.175   1.916  18.190  0.00  0.00    +0.000 A 
ATOM     17  C   UNL     1       1.474   3.109  18.103  0.00  0.00    +0.000 A 
ATOM     18  C   UNL     1       2.101   4.297  18.471  0.00  0.00    +0.000 A 
ENDBRANCH   4  13
ENDBRANCH   1   3
BRANCH   2  19
ATOM     19  N   UNL     1       1.838   7.868  20.154  0.00  0.00    +0.000 N 
ATOM     20  H   UNL     1       1.490   6.966  20.481  0.00  0.00    +0.000 HD
BRANCH  19  21
ATOM     21  C   UNL     1       1.095   8.955  20.754  0.00  0.00    +0.000 A 
ATOM     22  C   UNL     1       0.767   9.017  22.121  0.00  0.00    +0.000 A 
ATOM     23  C   UNL     1      -0.005  10.077  22.665  0.00  0.00    +0.000 A 
ATOM     24  C   UNL     1      -0.500  11.121  21.862  0.00  0.00    +0.000 A 
ATOM     25  C   UNL     1      -0.153  11.080  20.501  0.00  0.00    +0.000 A 
ATOM     26  C   UNL     1       0.633  10.019  19.966  0.00  0.00    +0.000 A 
BRANCH  24  27
ATOM     27  C   UNL     1      -1.360  12.186  22.456  0.00  0.00    +0.000 A 
ATOM     28  N   UNL     1      -0.968  13.089  23.341  0.00  0.00    +0.000 NA
ATOM     29  C   UNL     1      -2.088  13.815  23.695  0.00  0.00    +0.000 A 
ATOM     30  C   UNL     1      -2.241  14.882  24.600  0.00  0.00    +0.000 A 
ATOM     31  C   UNL     1      -3.512  15.442  24.805  0.00  0.00    +0.000 A 
ATOM     32  C   UNL     1      -4.615  14.953  24.101  0.00  0.00    +0.000 A 
ATOM     33  C   UNL     1      -4.487  13.906  23.172  0.00  0.00    +0.000 A 
ATOM     34  C   UNL     1      -3.199  13.363  23.000  0.00  0.00    +0.000 A 
ATOM     35  N   UNL     1      -2.704  12.356  22.200  0.00  0.00    +0.000 N 
ATOM     36  H   UNL     1      -3.256  11.806  21.572  0.00  0.00    +0.000 HD
ENDBRANCH  24  27
ENDBRANCH  19  21
ENDBRANCH   2  19
TORSDOF 5
ENDMDL
MODEL 8
REMARK VINA RESULT:      -9.2      5.276      8.986
REMARK  Name = 
REMARK  5 active torsions:
REMARK  status: ('A' for Active; 'I' for Inactive)
REMARK    1  A    between atoms: C_1  and  C_19
REMARK    2  A    between atoms: N_2  and  N_3
REMARK    3  A    between atoms: N_3  and  C_4
REMARK    4  A    between atoms: C_7  and  C_8
REMARK    5  A    between atoms: C_20  and  C_21
REMARK                            x       y       z     vdW  Elec       q    Type
REMARK                         _______ _______ _______ _____ _____    ______ ____
ROOT
ATOM      1  C   UNL     1       3.094   7.670  17.733  0.00  0.00    +0.000 C 
ATOM      2  N   UNL     1       2.214   8.188  18.539  0.00  0.00    +0.000 NA
ENDROOT
BRANCH   1   3
ATOM      3  C   UNL     1       4.162   6.685  17.590  0.00  0.00    +0.000 A 
ATOM      4  C   UNL     1       4.125   5.729  18.648  0.00  0.00    +0.000 A 
ATOM      5  N   UNL     1       5.489   5.773  18.939  0.00  0.00    +0.000 N 
ATOM      6  C   UNL     1       6.099   5.551  17.719  0.00  0.00    +0.000 A 
ATOM      7  C   UNL     1       7.304   4.904  17.446  0.00  0.00    +0.000 A 
ATOM      8  C   UNL     1       7.334   4.243  16.225  0.00  0.00    +0.000 A 
ATOM      9  C   UNL     1       6.270   4.367  15.323  0.00  0.00    +0.000 A 
ATOM     10  C   UNL     1       5.193   5.271  15.536  0.00  0.00    +0.000 A 
ATOM     11  C   UNL     1       5.094   5.912  16.788  0.00  0.00    +0.000 A 
ATOM     12  H   UNL     1       5.922   6.304  19.681  0.00  0.00    +0.000 HD
BRANCH   4  13
ATOM     13  C   UNL     1       3.354   4.434  18.418  0.00  0.00    +0.000 A 
ATOM     14  C   UNL     1       1.989   4.389  18.119  0.00  0.00    +0.000 A 
ATOM     15  C   UNL     1       1.301   3.165  18.148  0.00  0.00    +0.000 A 
ATOM     16  C   UNL     1       1.955   1.978  18.489  0.00  0.00    +0.000 A 
ATOM     17  C   UNL     1       3.304   2.005  18.805  0.00  0.00    +0.000 A 
ATOM     18  C   UNL     1       3.992   3.215  18.754  0.00  0.00    +0.000 A 
ENDBRANCH   4  13
ENDBRANCH   1   3
BRANCH   2  19
ATOM     19  N   UNL     1       1.953   7.959  19.840  0.00  0.00    +0.000 N 
ATOM     20  H   UNL     1       1.646   7.019  20.090  0.00  0.00    +0.000 HD
BRANCH  19  21
ATOM     21  C   UNL     1       1.103   8.959  20.449  0.00  0.00    +0.000 A 
ATOM     22  C   UNL     1       0.650   8.894  21.781  0.00  0.00    +0.000 A 
ATOM     23  C   UNL     1      -0.223   9.870  22.329  0.00  0.00    +0.000 A 
ATOM     24  C   UNL     1      -0.699  10.951  21.565  0.00  0.00    +0.000 A 
ATOM     25  C   UNL     1      -0.231  11.037  20.243  0.00  0.00    +0.000 A 
ATOM     26  C   UNL     1       0.656  10.060  19.705  0.00  0.00    +0.000 A 
BRANCH  24  27
ATOM     27  C   UNL     1      -1.665  11.923  22.156  0.00  0.00    +0.000 A 
ATOM     28  N   UNL     1      -2.389  11.726  23.247  0.00  0.00    +0.000 NA
ATOM     29  C   UNL     1      -3.212  12.825  23.386  0.00  0.00    +0.000 A 
ATOM     30  C   UNL     1      -4.183  13.127  24.360  0.00  0.00    +0.000 A 
ATOM     31  C   UNL     1      -4.916  14.319  24.263  0.00  0.00    +0.000 A 
ATOM     32  C   UNL     1      -4.673  15.208  23.213  0.00  0.00    +0.000 A 
ATOM     33  C   UNL     1      -3.693  14.945  22.242  0.00  0.00    +0.000 A 
ATOM     34  C   UNL     1      -2.983  13.735  22.367  0.00  0.00    +0.000 A 
ATOM     35  N   UNL     1      -1.977  13.156  21.623  0.00  0.00    +0.000 N 
ATOM     36  H   UNL     1      -1.580  13.555  20.796  0.00  0.00    +0.000 HD
ENDBRANCH  24  27
ENDBRANCH  19  21
ENDBRANCH   2  19
TORSDOF 5
ENDMDL
MODEL 9
REMARK VINA RESULT:      -9.0      5.904      9.334
REMARK  Name = 
REMARK  5 active torsions:
REMARK  status: ('A' for Active; 'I' for Inactive)
REMARK    1  A    between atoms: C_1  and  C_19
REMARK    2  A    between atoms: N_2  and  N_3
REMARK    3  A    between atoms: N_3  and  C_4
REMARK    4  A    between atoms: C_7  and  C_8
REMARK    5  A    between atoms: C_20  and  C_21
REMARK                            x       y       z     vdW  Elec       q    Type
REMARK                         _______ _______ _______ _____ _____    ______ ____
ROOT
ATOM      1  C   UNL     1       2.092   7.439  19.366  0.00  0.00    +0.000 C 
ATOM      2  N   UNL     1       1.960   8.448  20.177  0.00  0.00    +0.000 NA
ENDROOT
BRANCH   1   3
ATOM      3  C   UNL     1       2.038   5.986  19.234  0.00  0.00    +0.000 A 
ATOM      4  C   UNL     1       2.690   5.554  18.042  0.00  0.00    +0.000 A 
ATOM      5  N   UNL     1       1.681   4.687  17.623  0.00  0.00    +0.000 N 
ATOM      6  C   UNL     1       1.460   3.875  18.720  0.00  0.00    +0.000 A 
ATOM      7  C   UNL     1       1.076   2.535  18.756  0.00  0.00    +0.000 A 
ATOM      8  C   UNL     1       1.574   1.826  19.842  0.00  0.00    +0.000 A 
ATOM      9  C   UNL     1       2.281   2.484  20.857  0.00  0.00    +0.000 A 
ATOM     10  C   UNL     1       2.396   3.901  20.908  0.00  0.00    +0.000 A 
ATOM     11  C   UNL     1       1.958   4.650  19.796  0.00  0.00    +0.000 A 
ATOM     12  H   UNL     1       0.966   4.891  16.938  0.00  0.00    +0.000 HD
BRANCH   4  13
ATOM     13  C   UNL     1       4.159   5.156  18.132  0.00  0.00    +0.000 A 
ATOM     14  C   UNL     1       5.013   5.578  19.156  0.00  0.00    +0.000 A 
ATOM     15  C   UNL     1       6.397   5.364  19.052  0.00  0.00    +0.000 A 
ATOM     16  C   UNL     1       6.949   4.747  17.926  0.00  0.00    +0.000 A 
ATOM     17  C   UNL     1       6.120   4.337  16.894  0.00  0.00    +0.000 A 
ATOM     18  C   UNL     1       4.745   4.528  17.007  0.00  0.00    +0.000 A 
ENDBRANCH   4  13
ENDBRANCH   1   3
BRANCH   2  19
ATOM     19  N   UNL     1       1.704   8.502  21.497  0.00  0.00    +0.000 N 
ATOM     20  H   UNL     1       1.514   7.616  21.966  0.00  0.00    +0.000 HD
BRANCH  19  21
ATOM     21  C   UNL     1       0.721   9.500  21.861  0.00  0.00    +0.000 A 
ATOM     22  C   UNL     1      -0.090   9.417  23.009  0.00  0.00    +0.000 A 
ATOM     23  C   UNL     1      -1.077  10.392  23.307  0.00  0.00    +0.000 A 
ATOM     24  C   UNL     1      -1.312  11.491  22.461  0.00  0.00    +0.000 A 
ATOM     25  C   UNL     1      -0.488  11.595  21.328  0.00  0.00    +0.000 A 
ATOM     26  C   UNL     1       0.509  10.619  21.042  0.00  0.00    +0.000 A 
BRANCH  24  27
ATOM     27  C   UNL     1      -2.400  12.464  22.774  0.00  0.00    +0.000 A 
ATOM     28  N   UNL     1      -3.574  12.162  23.305  0.00  0.00    +0.000 NA
ATOM     29  C   UNL     1      -4.311  13.329  23.337  0.00  0.00    +0.000 A 
ATOM     30  C   UNL     1      -5.621  13.575  23.790  0.00  0.00    +0.000 A 
ATOM     31  C   UNL     1      -6.160  14.867  23.689  0.00  0.00    +0.000 A 
ATOM     32  C   UNL     1      -5.394  15.906  23.156  0.00  0.00    +0.000 A 
ATOM     33  C   UNL     1      -4.074  15.696  22.720  0.00  0.00    +0.000 A 
ATOM     34  C   UNL     1      -3.571  14.385  22.829  0.00  0.00    +0.000 A 
ATOM     35  N   UNL     1      -2.356  13.817  22.511  0.00  0.00    +0.000 N 
ATOM     36  H   UNL     1      -1.586  14.310  22.105  0.00  0.00    +0.000 HD
ENDBRANCH  24  27
ENDBRANCH  19  21
ENDBRANCH   2  19
TORSDOF 5
ENDMDL
