MODEL 1
REMARK VINA RESULT:      -6.7      0.000      0.000
REMARK  Name = 
REMARK  7 active torsions:
REMARK  status: ('A' for Active; 'I' for Inactive)
REMARK    1  A    between atoms: C_1  and  C_2
REMARK    2  A    between atoms: C_5  and  S_6
REMARK    3  A    between atoms: S_6  and  N_9
REMARK    4  A    between atoms: C_10  and  C_11
REMARK    5  A    between atoms: C_20  and  C_21
REMARK    6  A    between atoms: C_21  and  O_23
REMARK    7  A    between atoms: C_24  and  C_25
REMARK                            x       y       z     vdW  Elec       q    Type
REMARK                         _______ _______ _______ _____ _____    ______ ____
ROOT
ATOM      1  N   UNL     1      -0.951  13.518  20.809  0.00  0.00    +0.000 NA
ATOM      2  C   UNL     1      -1.704  12.446  21.561  0.00  0.00    +0.000 C 
ATOM      3  C   UNL     1      -0.568  11.766  22.371  0.00  0.00    +0.000 C 
ATOM      4  C   UNL     1      -0.047  10.745  21.469  0.00  0.00    +0.000 C 
ATOM      5  C   UNL     1       0.329  11.205  20.257  0.00  0.00    +0.000 C 
ATOM      6  C   UNL     1       0.217  12.767  19.913  0.00  0.00    +0.000 C 
ENDROOT
BRANCH   2   7
ATOM      7  C   UNL     1      -2.964  12.565  22.396  0.00  0.00    +0.000 A 
ATOM      8  C   UNL     1      -3.059  12.514  23.789  0.00  0.00    +0.000 A 
ATOM      9  C   UNL     1      -4.316  12.570  24.412  0.00  0.00    +0.000 A 
ATOM     10  C   UNL     1      -5.488  12.734  23.674  0.00  0.00    +0.000 A 
ATOM     11  C   UNL     1      -5.390  12.930  22.315  0.00  0.00    +0.000 A 
ATOM     12  F   UNL     1      -6.478  13.137  21.569  0.00  0.00    +0.000 F 
ATOM     13  C   UNL     1      -4.152  12.901  21.702  0.00  0.00    +0.000 A 
ENDBRANCH   2   7
BRANCH   6  14
ATOM     14  C   UNL     1       1.577  13.480  19.782  0.00  0.00    +0.000 A 
ATOM     15  C   UNL     1       2.532  13.544  20.816  0.00  0.00    +0.000 A 
ATOM     16  C   UNL     1       3.740  14.271  20.662  0.00  0.00    +0.000 A 
ATOM     17  C   UNL     1       4.004  14.966  19.497  0.00  0.00    +0.000 A 
ATOM     18  C   UNL     1       3.104  14.875  18.448  0.00  0.00    +0.000 A 
ATOM     19 CL   UNL     1       3.403  15.761  16.999  0.00  0.00    +0.000 Cl
ATOM     20  C   UNL     1       1.936  14.103  18.567  0.00  0.00    +0.000 A 
ENDBRANCH   6  14
BRANCH   1  21
ATOM     21  S   UNL     1      -0.779  15.045  21.655  0.00  0.00    +0.000 S 
ATOM     22  O   UNL     1       0.365  14.921  22.536  0.00  0.00    +0.000 OA
ATOM     23  O   UNL     1      -2.026  15.476  22.222  0.00  0.00    +0.000 OA
BRANCH  21  28
ATOM     24  C   UNL     1       1.180  18.534  17.095  0.00  0.00    +0.000 C 
ATOM     25  C   UNL     1       0.613  17.799  18.275  0.00  0.00    +0.000 A 
ATOM     26  C   UNL     1      -0.583  17.077  18.159  0.00  0.00    +0.000 A 
ATOM     27  C   UNL     1      -1.081  16.344  19.239  0.00  0.00    +0.000 A 
ATOM     28  C   UNL     1      -0.333  16.263  20.416  0.00  0.00    +0.000 A 
ATOM     29  C   UNL     1       0.806  17.059  20.583  0.00  0.00    +0.000 A 
ATOM     30  C   UNL     1       1.280  17.821  19.508  0.00  0.00    +0.000 A 
ENDBRANCH  21  28
ENDBRANCH   1  21
BRANCH   5  31
ATOM     31  C   UNL     1       0.628  10.043  19.359  0.00  0.00    +0.000 C 
ATOM     32  O   UNL     1       1.025   8.967  19.783  0.00  0.00    +0.000 OA
BRANCH  31  33
ATOM     33  O   UNL     1       0.450  10.237  18.054  0.00  0.00    +0.000 OA
ATOM     34  H   UNL     1       0.159  11.115  17.770  0.00  0.00    +0.000 HD
ENDBRANCH  31  33
ENDBRANCH   5  31
TORSDOF 6
ENDMDL
MODEL 2
REMARK VINA RESULT:      -6.5      0.910      1.313
REMARK  Name = 
REMARK  7 active torsions:
REMARK  status: ('A' for Active; 'I' for Inactive)
REMARK    1  A    between atoms: C_1  and  C_2
REMARK    2  A    between atoms: C_5  and  S_6
REMARK    3  A    between atoms: S_6  and  N_9
REMARK    4  A    between atoms: C_10  and  C_11
REMARK    5  A    between atoms: C_20  and  C_21
REMARK    6  A    between atoms: C_21  and  O_23
REMARK    7  A    between atoms: C_24  and  C_25
REMARK                            x       y       z     vdW  Elec       q    Type
REMARK                         _______ _______ _______ _____ _____    ______ ____
ROOT
ATOM      1  N   UNL     1      -1.232  13.620  20.407  0.00  0.00    +0.000 NA
ATOM      2  C   UNL     1      -2.080  12.562  21.074  0.00  0.00    +0.000 C 
ATOM      3  C   UNL     1      -1.028  11.799  21.921  0.00  0.00    +0.000 C 
ATOM      4  C   UNL     1      -0.504  10.784  21.013  0.00  0.00    +0.000 C 
ATOM      5  C   UNL     1      -0.035  11.266  19.842  0.00  0.00    +0.000 C 
ATOM      6  C   UNL     1      -0.051  12.843  19.552  0.00  0.00    +0.000 C 
ENDROOT
BRANCH   2   7
ATOM      7  C   UNL     1      -3.380  12.715  21.839  0.00  0.00    +0.000 A 
ATOM      8  C   UNL     1      -4.640  13.003  21.310  0.00  0.00    +0.000 A 
ATOM      9  C   UNL     1      -5.738  13.184  22.165  0.00  0.00    +0.000 A 
ATOM     10  C   UNL     1      -5.621  13.025  23.546  0.00  0.00    +0.000 A 
ATOM     11  C   UNL     1      -4.417  12.600  24.061  0.00  0.00    +0.000 A 
ATOM     12  F   UNL     1      -4.265  12.389  25.370  0.00  0.00    +0.000 F 
ATOM     13  C   UNL     1      -3.341  12.396  23.219  0.00  0.00    +0.000 A 
ENDBRANCH   2   7
BRANCH   6  14
ATOM     14  C   UNL     1       1.346  13.491  19.526  0.00  0.00    +0.000 A 
ATOM     15  C   UNL     1       2.235  13.484  20.620  0.00  0.00    +0.000 A 
ATOM     16  C   UNL     1       3.483  14.155  20.562  0.00  0.00    +0.000 A 
ATOM     17  C   UNL     1       3.855  14.861  19.434  0.00  0.00    +0.000 A 
ATOM     18  C   UNL     1       3.022  14.838  18.327  0.00  0.00    +0.000 A 
ATOM     19 CL   UNL     1       3.457  15.741  16.924  0.00  0.00    +0.000 Cl
ATOM     20  C   UNL     1       1.813  14.123  18.353  0.00  0.00    +0.000 A 
ENDBRANCH   6  14
BRANCH   1  21
ATOM     21  S   UNL     1      -1.038  15.107  21.318  0.00  0.00    +0.000 S 
ATOM     22  O   UNL     1       0.041  14.892  22.263  0.00  0.00    +0.000 OA
ATOM     23  O   UNL     1      -2.294  15.584  21.823  0.00  0.00    +0.000 OA
BRANCH  21  28
ATOM     24  C   UNL     1       1.333  18.631  16.987  0.00  0.00    +0.000 C 
ATOM     25  C   UNL     1       0.677  17.891  18.116  0.00  0.00    +0.000 A 
ATOM     26  C   UNL     1      -0.581  17.297  17.944  0.00  0.00    +0.000 A 
ATOM     27  C   UNL     1      -1.168  16.558  18.975  0.00  0.00    +0.000 A 
ATOM     28  C   UNL     1      -0.453  16.340  20.155  0.00  0.00    +0.000 A 
ATOM     29  C   UNL     1       0.754  17.011  20.382  0.00  0.00    +0.000 A 
ATOM     30  C   UNL     1       1.319  17.781  19.357  0.00  0.00    +0.000 A 
ENDBRANCH  21  28
ENDBRANCH   1  21
BRANCH   5  31
ATOM     31  C   UNL     1       0.260  10.123  18.920  0.00  0.00    +0.000 C 
ATOM     32  O   UNL     1      -0.479   9.813  17.997  0.00  0.00    +0.000 OA
BRANCH  31  33
ATOM     33  O   UNL     1       1.376   9.438  19.158  0.00  0.00    +0.000 OA
ATOM     34  H   UNL     1       2.053   9.435  18.466  0.00  0.00    +0.000 HD
ENDBRANCH  31  33
ENDBRANCH   5  31
TORSDOF 6
ENDMDL
MODEL 3
REMARK VINA RESULT:      -6.4      1.923      3.213
REMARK  Name = 
REMARK  7 active torsions:
REMARK  status: ('A' for Active; 'I' for Inactive)
REMARK    1  A    between atoms: C_1  and  C_2
REMARK    2  A    between atoms: C_5  and  S_6
REMARK    3  A    between atoms: S_6  and  N_9
REMARK    4  A    between atoms: C_10  and  C_11
REMARK    5  A    between atoms: C_20  and  C_21
REMARK    6  A    between atoms: C_21  and  O_23
REMARK    7  A    between atoms: C_24  and  C_25
REMARK                            x       y       z     vdW  Elec       q    Type
REMARK                         _______ _______ _______ _____ _____    ______ ____
ROOT
ATOM      1  N   UNL     1      -1.302  13.676  20.690  0.00  0.00    +0.000 NA
ATOM      2  C   UNL     1      -2.152  12.564  21.260  0.00  0.00    +0.000 C 
ATOM      3  C   UNL     1      -1.094  11.701  21.998  0.00  0.00    +0.000 C 
ATOM      4  C   UNL     1      -0.606  10.782  20.976  0.00  0.00    +0.000 C 
ATOM      5  C   UNL     1      -0.154  11.379  19.853  0.00  0.00    +0.000 C 
ATOM      6  C   UNL     1      -0.152  12.978  19.731  0.00  0.00    +0.000 C 
ENDROOT
BRANCH   2   7
ATOM      7  C   UNL     1      -3.432  12.653  22.067  0.00  0.00    +0.000 A 
ATOM      8  C   UNL     1      -4.732  12.783  21.573  0.00  0.00    +0.000 A 
ATOM      9  C   UNL     1      -5.812  12.924  22.458  0.00  0.00    +0.000 A 
ATOM     10  C   UNL     1      -5.631  12.879  23.841  0.00  0.00    +0.000 A 
ATOM     11  C   UNL     1      -4.375  12.605  24.333  0.00  0.00    +0.000 A 
ATOM     12  F   UNL     1      -4.158  12.507  25.646  0.00  0.00    +0.000 F 
ATOM     13  C   UNL     1      -3.315  12.441  23.463  0.00  0.00    +0.000 A 
ENDBRANCH   2   7
BRANCH   6  14
ATOM     14  C   UNL     1       1.255  13.606  19.742  0.00  0.00    +0.000 A 
ATOM     15  C   UNL     1       2.173  13.456  20.801  0.00  0.00    +0.000 A 
ATOM     16  C   UNL     1       3.431  14.112  20.787  0.00  0.00    +0.000 A 
ATOM     17  C   UNL     1       3.783  14.944  19.742  0.00  0.00    +0.000 A 
ATOM     18  C   UNL     1       2.919  15.065  18.665  0.00  0.00    +0.000 A 
ATOM     19 CL   UNL     1       3.330  16.125  17.368  0.00  0.00    +0.000 Cl
ATOM     20  C   UNL     1       1.700  14.368  18.640  0.00  0.00    +0.000 A 
ENDBRANCH   6  14
BRANCH   1  21
ATOM     21  S   UNL     1      -1.064  15.054  21.750  0.00  0.00    +0.000 S 
ATOM     22  O   UNL     1      -0.244  16.010  21.032  0.00  0.00    +0.000 OA
ATOM     23  O   UNL     1      -0.639  14.646  23.059  0.00  0.00    +0.000 OA
BRANCH  21  28
ATOM     24  C   UNL     1      -6.812  16.848  22.489  0.00  0.00    +0.000 C 
ATOM     25  C   UNL     1      -5.351  16.560  22.302  0.00  0.00    +0.000 A 
ATOM     26  C   UNL     1      -4.513  16.371  23.410  0.00  0.00    +0.000 A 
ATOM     27  C   UNL     1      -3.165  16.045  23.239  0.00  0.00    +0.000 A 
ATOM     28  C   UNL     1      -2.673  15.820  21.951  0.00  0.00    +0.000 A 
ATOM     29  C   UNL     1      -3.467  16.105  20.833  0.00  0.00    +0.000 A 
ATOM     30  C   UNL     1      -4.807  16.469  21.013  0.00  0.00    +0.000 A 
ENDBRANCH  21  28
ENDBRANCH   1  21
BRANCH   5  31
ATOM     31  C   UNL     1       0.103  10.336  18.808  0.00  0.00    +0.000 C 
ATOM     32  O   UNL     1       0.950   9.464  18.941  0.00  0.00    +0.000 OA
BRANCH  31  33
ATOM     33  O   UNL     1      -0.636  10.405  17.703  0.00  0.00    +0.000 OA
ATOM     34  H   UNL     1      -0.705  11.266  17.265  0.00  0.00    +0.000 HD
ENDBRANCH  31  33
ENDBRANCH   5  31
TORSDOF 6
ENDMDL
MODEL 4
REMARK VINA RESULT:      -6.3      0.960      1.270
REMARK  Name = 
REMARK  7 active torsions:
REMARK  status: ('A' for Active; 'I' for Inactive)
REMARK    1  A    between atoms: C_1  and  C_2
REMARK    2  A    between atoms: C_5  and  S_6
REMARK    3  A    between atoms: S_6  and  N_9
REMARK    4  A    between atoms: C_10  and  C_11
REMARK    5  A    between atoms: C_20  and  C_21
REMARK    6  A    between atoms: C_21  and  O_23
REMARK    7  A    between atoms: C_24  and  C_25
REMARK                            x       y       z     vdW  Elec       q    Type
REMARK                         _______ _______ _______ _____ _____    ______ ____
ROOT
ATOM      1  N   UNL     1      -1.201  13.585  20.855  0.00  0.00    +0.000 NA
ATOM      2  C   UNL     1      -1.908  12.496  21.626  0.00  0.00    +0.000 C 
ATOM      3  C   UNL     1      -0.732  11.829  22.387  0.00  0.00    +0.000 C 
ATOM      4  C   UNL     1      -0.229  10.823  21.458  0.00  0.00    +0.000 C 
ATOM      5  C   UNL     1       0.094  11.298  20.236  0.00  0.00    +0.000 C 
ATOM      6  C   UNL     1      -0.056  12.860  19.910  0.00  0.00    +0.000 C 
ENDROOT
BRANCH   2   7
ATOM      7  C   UNL     1      -3.137  12.588  22.510  0.00  0.00    +0.000 A 
ATOM      8  C   UNL     1      -3.178  12.532  23.904  0.00  0.00    +0.000 A 
ATOM      9  C   UNL     1      -4.411  12.562  24.575  0.00  0.00    +0.000 A 
ATOM     10  C   UNL     1      -5.614  12.706  23.883  0.00  0.00    +0.000 A 
ATOM     11  C   UNL     1      -5.571  12.907  22.522  0.00  0.00    +0.000 A 
ATOM     12  F   UNL     1      -6.690  13.095  21.819  0.00  0.00    +0.000 F 
ATOM     13  C   UNL     1      -4.357  12.904  21.862  0.00  0.00    +0.000 A 
ENDBRANCH   2   7
BRANCH   6  14
ATOM     14  C   UNL     1       1.286  13.596  19.734  0.00  0.00    +0.000 A 
ATOM     15  C   UNL     1       1.678  14.238  18.542  0.00  0.00    +0.000 A 
ATOM     16  C   UNL     1       2.954  14.843  18.414  0.00  0.00    +0.000 A 
ATOM     17  C   UNL     1       3.867  14.796  19.451  0.00  0.00    +0.000 A 
ATOM     18  C   UNL     1       3.485  14.217  20.650  0.00  0.00    +0.000 A 
ATOM     19 CL   UNL     1       4.622  14.122  21.942  0.00  0.00    +0.000 Cl
ATOM     20  C   UNL     1       2.199  13.672  20.808  0.00  0.00    +0.000 A 
ENDBRANCH   6  14
BRANCH   1  21
ATOM     21  S   UNL     1      -1.021  15.109  21.707  0.00  0.00    +0.000 S 
ATOM     22  O   UNL     1       0.082  14.954  22.634  0.00  0.00    +0.000 OA
ATOM     23  O   UNL     1      -2.277  15.576  22.222  0.00  0.00    +0.000 OA
BRANCH  21  28
ATOM     24  C   UNL     1       1.225  18.534  17.232  0.00  0.00    +0.000 C 
ATOM     25  C   UNL     1       0.589  17.817  18.387  0.00  0.00    +0.000 A 
ATOM     26  C   UNL     1      -0.618  17.124  18.219  0.00  0.00    +0.000 A 
ATOM     27  C   UNL     1      -1.182  16.406  19.277  0.00  0.00    +0.000 A 
ATOM     28  C   UNL     1      -0.490  16.311  20.487  0.00  0.00    +0.000 A 
ATOM     29  C   UNL     1       0.659  17.080  20.704  0.00  0.00    +0.000 A 
ATOM     30  C   UNL     1       1.199  17.827  19.649  0.00  0.00    +0.000 A 
ENDBRANCH  21  28
ENDBRANCH   1  21
BRANCH   5  31
ATOM     31  C   UNL     1       0.376  10.148  19.318  0.00  0.00    +0.000 C 
ATOM     32  O   UNL     1       0.793   9.070  19.720  0.00  0.00    +0.000 OA
BRANCH  31  33
ATOM     33  O   UNL     1       0.161  10.353  18.021  0.00  0.00    +0.000 OA
ATOM     34  H   UNL     1      -0.258  11.188  17.766  0.00  0.00    +0.000 HD
ENDBRANCH  31  33
ENDBRANCH   5  31
TORSDOF 6
ENDMDL
MODEL 5
REMARK VINA RESULT:      -6.3      1.813      3.166
REMARK  Name = 
REMARK  7 active torsions:
REMARK  status: ('A' for Active; 'I' for Inactive)
REMARK    1  A    between atoms: C_1  and  C_2
REMARK    2  A    between atoms: C_5  and  S_6
REMARK    3  A    between atoms: S_6  and  N_9
REMARK    4  A    between atoms: C_10  and  C_11
REMARK    5  A    between atoms: C_20  and  C_21
REMARK    6  A    between atoms: C_21  and  O_23
REMARK    7  A    between atoms: C_24  and  C_25
REMARK                            x       y       z     vdW  Elec       q    Type
REMARK                         _______ _______ _______ _____ _____    ______ ____
ROOT
ATOM      1  N   UNL     1      -1.317  13.768  21.021  0.00  0.00    +0.000 NA
ATOM      2  C   UNL     1      -2.127  12.614  21.563  0.00  0.00    +0.000 C 
ATOM      3  C   UNL     1      -1.018  11.665  22.088  0.00  0.00    +0.000 C 
ATOM      4  C   UNL     1      -0.664  10.852  20.930  0.00  0.00    +0.000 C 
ATOM      5  C   UNL     1      -0.322  11.558  19.831  0.00  0.00    +0.000 C 
ATOM      6  C   UNL     1      -0.294  13.161  19.875  0.00  0.00    +0.000 C 
ENDROOT
BRANCH   2   7
ATOM      7  C   UNL     1      -3.312  12.634  22.510  0.00  0.00    +0.000 A 
ATOM      8  C   UNL     1      -3.289  12.427  23.891  0.00  0.00    +0.000 A 
ATOM      9  C   UNL     1      -4.488  12.407  24.621  0.00  0.00    +0.000 A 
ATOM     10  C   UNL     1      -5.718  12.649  24.007  0.00  0.00    +0.000 A 
ATOM     11  C   UNL     1      -5.734  12.996  22.676  0.00  0.00    +0.000 A 
ATOM     12  F   UNL     1      -6.879  13.280  22.053  0.00  0.00    +0.000 F 
ATOM     13  C   UNL     1      -4.552  13.041  21.961  0.00  0.00    +0.000 A 
ENDBRANCH   2   7
BRANCH   6  14
ATOM     14  C   UNL     1       1.121  13.766  19.797  0.00  0.00    +0.000 A 
ATOM     15  C   UNL     1       2.149  13.480  20.717  0.00  0.00    +0.000 A 
ATOM     16  C   UNL     1       3.413  14.118  20.635  0.00  0.00    +0.000 A 
ATOM     17  C   UNL     1       3.665  15.065  19.661  0.00  0.00    +0.000 A 
ATOM     18  C   UNL     1       2.689  15.324  18.714  0.00  0.00    +0.000 A 
ATOM     19 CL   UNL     1       2.976  16.526  17.511  0.00  0.00    +0.000 Cl
ATOM     20  C   UNL     1       1.456  14.650  18.748  0.00  0.00    +0.000 A 
ENDBRANCH   6  14
BRANCH   1  21
ATOM     21  S   UNL     1      -0.934  15.025  22.184  0.00  0.00    +0.000 S 
ATOM     22  O   UNL     1      -0.141  16.022  21.492  0.00  0.00    +0.000 OA
ATOM     23  O   UNL     1      -0.414  14.474  23.404  0.00  0.00    +0.000 OA
BRANCH  21  28
ATOM     24  C   UNL     1      -6.528  16.918  23.574  0.00  0.00    +0.000 C 
ATOM     25  C   UNL     1      -5.098  16.603  23.244  0.00  0.00    +0.000 A 
ATOM     26  C   UNL     1      -4.197  16.234  24.253  0.00  0.00    +0.000 A 
ATOM     27  C   UNL     1      -2.881  15.883  23.941  0.00  0.00    +0.000 A 
ATOM     28  C   UNL     1      -2.488  15.817  22.603  0.00  0.00    +0.000 A 
ATOM     29  C   UNL     1      -3.340  16.281  21.594  0.00  0.00    +0.000 A 
ATOM     30  C   UNL     1      -4.647  16.668  21.918  0.00  0.00    +0.000 A 
ENDBRANCH  21  28
ENDBRANCH   1  21
BRANCH   5  31
ATOM     31  C   UNL     1      -0.203  10.627  18.663  0.00  0.00    +0.000 C 
ATOM     32  O   UNL     1       0.603   9.709  18.630  0.00  0.00    +0.000 OA
BRANCH  31  33
ATOM     33  O   UNL     1      -1.021  10.852  17.637  0.00  0.00    +0.000 OA
ATOM     34  H   UNL     1      -1.081  10.166  16.956  0.00  0.00    +0.000 HD
ENDBRANCH  31  33
ENDBRANCH   5  31
TORSDOF 6
ENDMDL
MODEL 6
REMARK VINA RESULT:      -6.3      1.318      1.843
REMARK  Name = 
REMARK  7 active torsions:
REMARK  status: ('A' for Active; 'I' for Inactive)
REMARK    1  A    between atoms: C_1  and  C_2
REMARK    2  A    between atoms: C_5  and  S_6
REMARK    3  A    between atoms: S_6  and  N_9
REMARK    4  A    between atoms: C_10  and  C_11
REMARK    5  A    between atoms: C_20  and  C_21
REMARK    6  A    between atoms: C_21  and  O_23
REMARK    7  A    between atoms: C_24  and  C_25
REMARK                            x       y       z     vdW  Elec       q    Type
REMARK                         _______ _______ _______ _____ _____    ______ ____
ROOT
ATOM      1  N   UNL     1      -1.128  13.596  20.671  0.00  0.00    +0.000 NA
ATOM      2  C   UNL     1      -1.898  12.542  21.432  0.00  0.00    +0.000 C 
ATOM      3  C   UNL     1      -0.797  11.940  22.345  0.00  0.00    +0.000 C 
ATOM      4  C   UNL     1      -0.193  10.890  21.533  0.00  0.00    +0.000 C 
ATOM      5  C   UNL     1       0.246  11.297  20.323  0.00  0.00    +0.000 C 
ATOM      6  C   UNL     1       0.113  12.835  19.890  0.00  0.00    +0.000 C 
ENDROOT
BRANCH   2   7
ATOM      7  C   UNL     1      -3.211  12.666  22.182  0.00  0.00    +0.000 A 
ATOM      8  C   UNL     1      -4.482  12.838  21.631  0.00  0.00    +0.000 A 
ATOM      9  C   UNL     1      -5.596  13.008  22.468  0.00  0.00    +0.000 A 
ATOM     10  C   UNL     1      -5.479  12.952  23.857  0.00  0.00    +0.000 A 
ATOM     11  C   UNL     1      -4.255  12.639  24.403  0.00  0.00    +0.000 A 
ATOM     12  F   UNL     1      -4.099  12.528  25.724  0.00  0.00    +0.000 F 
ATOM     13  C   UNL     1      -3.162  12.446  23.580  0.00  0.00    +0.000 A 
ENDBRANCH   2   7
BRANCH   6  14
ATOM     14  C   UNL     1       1.458  13.581  19.804  0.00  0.00    +0.000 A 
ATOM     15  C   UNL     1       1.950  14.178  18.626  0.00  0.00    +0.000 A 
ATOM     16  C   UNL     1       3.227  14.795  18.587  0.00  0.00    +0.000 A 
ATOM     17  C   UNL     1       4.042  14.804  19.703  0.00  0.00    +0.000 A 
ATOM     18  C   UNL     1       3.558  14.271  20.887  0.00  0.00    +0.000 A 
ATOM     19 CL   UNL     1       4.575  14.246  22.280  0.00  0.00    +0.000 Cl
ATOM     20  C   UNL     1       2.269  13.716  20.951  0.00  0.00    +0.000 A 
ENDBRANCH   6  14
BRANCH   1  21
ATOM     21  S   UNL     1      -1.051  15.170  21.443  0.00  0.00    +0.000 S 
ATOM     22  O   UNL     1      -0.012  15.102  22.452  0.00  0.00    +0.000 OA
ATOM     23  O   UNL     1      -2.353  15.625  21.842  0.00  0.00    +0.000 OA
BRANCH  21  28
ATOM     24  C   UNL     1       1.378  18.395  16.916  0.00  0.00    +0.000 C 
ATOM     25  C   UNL     1       0.695  17.730  18.075  0.00  0.00    +0.000 A 
ATOM     26  C   UNL     1      -0.508  17.034  17.891  0.00  0.00    +0.000 A 
ATOM     27  C   UNL     1      -1.115  16.364  18.956  0.00  0.00    +0.000 A 
ATOM     28  C   UNL     1      -0.469  16.317  20.194  0.00  0.00    +0.000 A 
ATOM     29  C   UNL     1       0.676  17.090  20.421  0.00  0.00    +0.000 A 
ATOM     30  C   UNL     1       1.258  17.791  19.357  0.00  0.00    +0.000 A 
ENDBRANCH  21  28
ENDBRANCH   1  21
BRANCH   5  31
ATOM     31  C   UNL     1       0.631  10.100  19.509  0.00  0.00    +0.000 C 
ATOM     32  O   UNL     1       0.697  10.126  18.288  0.00  0.00    +0.000 OA
BRANCH  31  33
ATOM     33  O   UNL     1       0.895   8.982  20.181  0.00  0.00    +0.000 OA
ATOM     34  H   UNL     1       0.987   9.050  21.142  0.00  0.00    +0.000 HD
ENDBRANCH  31  33
ENDBRANCH   5  31
TORSDOF 6
ENDMDL
MODEL 7
REMARK VINA RESULT:      -6.3      3.487      6.653
REMARK  Name = 
REMARK  7 active torsions:
REMARK  status: ('A' for Active; 'I' for Inactive)
REMARK    1  A    between atoms: C_1  and  C_2
REMARK    2  A    between atoms: C_5  and  S_6
REMARK    3  A    between atoms: S_6  and  N_9
REMARK    4  A    between atoms: C_10  and  C_11
REMARK    5  A    between atoms: C_20  and  C_21
REMARK    6  A    between atoms: C_21  and  O_23
REMARK    7  A    between atoms: C_24  and  C_25
REMARK                            x       y       z     vdW  Elec       q    Type
REMARK                         _______ _______ _______ _____ _____    ______ ____
ROOT
ATOM      1  N   UNL     1       0.589  13.835  21.287  0.00  0.00    +0.000 NA
ATOM      2  C   UNL     1       1.804  13.347  20.532  0.00  0.00    +0.000 C 
ATOM      3  C   UNL     1       1.163  12.438  19.450  0.00  0.00    +0.000 C 
ATOM      4  C   UNL     1       1.059  11.133  20.094  0.00  0.00    +0.000 C 
ATOM      5  C   UNL     1       0.406  11.141  21.276  0.00  0.00    +0.000 C 
ATOM      6  C   UNL     1      -0.211  12.504  21.851  0.00  0.00    +0.000 C 
ENDROOT
BRANCH   2   7
ATOM      7  C   UNL     1       2.958  14.143  19.953  0.00  0.00    +0.000 A 
ATOM      8  C   UNL     1       4.134  14.517  20.605  0.00  0.00    +0.000 A 
ATOM      9  C   UNL     1       5.080  15.319  19.947  0.00  0.00    +0.000 A 
ATOM     10  C   UNL     1       4.905  15.712  18.620  0.00  0.00    +0.000 A 
ATOM     11  C   UNL     1       3.820  15.228  17.927  0.00  0.00    +0.000 A 
ATOM     12  F   UNL     1       3.631  15.537  16.642  0.00  0.00    +0.000 F 
ATOM     13  C   UNL     1       2.900  14.417  18.564  0.00  0.00    +0.000 A 
ENDBRANCH   2   7
BRANCH   6  14
ATOM     14  C   UNL     1      -1.751  12.548  21.845  0.00  0.00    +0.000 A 
ATOM     15  C   UNL     1      -2.528  12.643  20.673  0.00  0.00    +0.000 A 
ATOM     16  C   UNL     1      -3.941  12.747  20.731  0.00  0.00    +0.000 A 
ATOM     17  C   UNL     1      -4.599  12.788  21.945  0.00  0.00    +0.000 A 
ATOM     18  C   UNL     1      -3.861  12.643  23.109  0.00  0.00    +0.000 A 
ATOM     19 CL   UNL     1      -4.663  12.723  24.633  0.00  0.00    +0.000 Cl
ATOM     20  C   UNL     1      -2.467  12.474  23.059  0.00  0.00    +0.000 A 
ENDBRANCH   6  14
BRANCH   1  21
ATOM     21  S   UNL     1      -0.153  15.291  20.649  0.00  0.00    +0.000 S 
ATOM     22  O   UNL     1      -0.929  14.903  19.488  0.00  0.00    +0.000 OA
ATOM     23  O   UNL     1       0.806  16.349  20.498  0.00  0.00    +0.000 OA
BRANCH  21  28
ATOM     24  C   UNL     1      -4.341  16.326  24.914  0.00  0.00    +0.000 C 
ATOM     25  C   UNL     1      -3.277  16.228  23.859  0.00  0.00    +0.000 A 
ATOM     26  C   UNL     1      -1.942  15.985  24.213  0.00  0.00    +0.000 A 
ATOM     27  C   UNL     1      -0.960  15.834  23.231  0.00  0.00    +0.000 A 
ATOM     28  C   UNL     1      -1.330  15.842  21.884  0.00  0.00    +0.000 A 
ATOM     29  C   UNL     1      -2.636  16.186  21.514  0.00  0.00    +0.000 A 
ATOM     30  C   UNL     1      -3.608  16.373  22.505  0.00  0.00    +0.000 A 
ENDBRANCH  21  28
ENDBRANCH   1  21
BRANCH   5  31
ATOM     31  C   UNL     1       0.562   9.804  21.934  0.00  0.00    +0.000 C 
ATOM     32  O   UNL     1       0.673   8.765  21.300  0.00  0.00    +0.000 OA
BRANCH  31  33
ATOM     33  O   UNL     1       0.566   9.792  23.266  0.00  0.00    +0.000 OA
ATOM     34  H   UNL     1      -0.126  10.295  23.718  0.00  0.00    +0.000 HD
ENDBRANCH  31  33
ENDBRANCH   5  31
TORSDOF 6
ENDMDL
MODEL 8
REMARK VINA RESULT:      -6.2      3.359      6.980
REMARK  Name = 
REMARK  7 active torsions:
REMARK  status: ('A' for Active; 'I' for Inactive)
REMARK    1  A    between atoms: C_1  and  C_2
REMARK    2  A    between atoms: C_5  and  S_6
REMARK    3  A    between atoms: S_6  and  N_9
REMARK    4  A    between atoms: C_10  and  C_11
REMARK    5  A    between atoms: C_20  and  C_21
REMARK    6  A    between atoms: C_21  and  O_23
REMARK    7  A    between atoms: C_24  and  C_25
REMARK                            x       y       z     vdW  Elec       q    Type
REMARK                         _______ _______ _______ _____ _____    ______ ____
ROOT
ATOM      1  N   UNL     1      -1.786  13.734  20.623  0.00  0.00    +0.000 NA
ATOM      2  C   UNL     1      -0.738  13.442  19.575  0.00  0.00    +0.000 C 
ATOM      3  C   UNL     1       0.447  14.321  20.055  0.00  0.00    +0.000 C 
ATOM      4  C   UNL     1       0.207  15.618  19.432  0.00  0.00    +0.000 C 
ATOM      5  C   UNL     1      -1.013  16.142  19.677  0.00  0.00    +0.000 C 
ATOM      6  C   UNL     1      -2.054  15.364  20.616  0.00  0.00    +0.000 C 
ENDROOT
BRANCH   2   7
ATOM      7  C   UNL     1      -0.242  12.105  19.059  0.00  0.00    +0.000 A 
ATOM      8  C   UNL     1       1.008  11.525  19.288  0.00  0.00    +0.000 A 
ATOM      9  C   UNL     1       1.342  10.306  18.678  0.00  0.00    +0.000 A 
ATOM     10  C   UNL     1       0.427   9.615  17.883  0.00  0.00    +0.000 A 
ATOM     11  C   UNL     1      -0.854  10.107  17.772  0.00  0.00    +0.000 A 
ATOM     12  F   UNL     1      -1.779   9.460  17.061  0.00  0.00    +0.000 F 
ATOM     13  C   UNL     1      -1.192  11.294  18.392  0.00  0.00    +0.000 A 
ENDBRANCH   2   7
BRANCH   6  14
ATOM     14  C   UNL     1      -2.306  16.046  21.974  0.00  0.00    +0.000 A 
ATOM     15  C   UNL     1      -1.300  16.672  22.736  0.00  0.00    +0.000 A 
ATOM     16  C   UNL     1      -1.577  17.226  24.012  0.00  0.00    +0.000 A 
ATOM     17  C   UNL     1      -2.843  17.144  24.560  0.00  0.00    +0.000 A 
ATOM     18  C   UNL     1      -3.860  16.580  23.807  0.00  0.00    +0.000 A 
ATOM     19 CL   UNL     1      -5.438  16.441  24.488  0.00  0.00    +0.000 Cl
ATOM     20  C   UNL     1      -3.610  16.086  22.515  0.00  0.00    +0.000 A 
ENDBRANCH   6  14
BRANCH   1  21
ATOM     21  S   UNL     1      -1.731  12.703  22.043  0.00  0.00    +0.000 S 
ATOM     22  O   UNL     1      -0.961  13.405  23.051  0.00  0.00    +0.000 OA
ATOM     23  O   UNL     1      -1.342  11.363  21.707  0.00  0.00    +0.000 OA
BRANCH  21  28
ATOM     24  C   UNL     1      -7.386  13.238  24.171  0.00  0.00    +0.000 C 
ATOM     25  C   UNL     1      -6.012  12.947  23.642  0.00  0.00    +0.000 A 
ATOM     26  C   UNL     1      -5.766  12.934  22.262  0.00  0.00    +0.000 A 
ATOM     27  C   UNL     1      -4.476  12.722  21.769  0.00  0.00    +0.000 A 
ATOM     28  C   UNL     1      -3.410  12.609  22.664  0.00  0.00    +0.000 A 
ATOM     29  C   UNL     1      -3.652  12.515  24.040  0.00  0.00    +0.000 A 
ATOM     30  C   UNL     1      -4.954  12.691  24.525  0.00  0.00    +0.000 A 
ENDBRANCH  21  28
ENDBRANCH   1  21
BRANCH   5  31
ATOM     31  C   UNL     1      -1.216  17.347  18.810  0.00  0.00    +0.000 C 
ATOM     32  O   UNL     1      -2.034  18.217  19.071  0.00  0.00    +0.000 OA
BRANCH  31  33
ATOM     33  O   UNL     1      -0.461  17.428  17.717  0.00  0.00    +0.000 OA
ATOM     34  H   UNL     1       0.489  17.567  17.840  0.00  0.00    +0.000 HD
ENDBRANCH  31  33
ENDBRANCH   5  31
TORSDOF 6
ENDMDL
MODEL 9
REMARK VINA RESULT:      -6.1      3.631      6.774
REMARK  Name = 
REMARK  7 active torsions:
REMARK  status: ('A' for Active; 'I' for Inactive)
REMARK    1  A    between atoms: C_1  and  C_2
REMARK    2  A    between atoms: C_5  and  S_6
REMARK    3  A    between atoms: S_6  and  N_9
REMARK    4  A    between atoms: C_10  and  C_11
REMARK    5  A    between atoms: C_20  and  C_21
REMARK    6  A    between atoms: C_21  and  O_23
REMARK    7  A    between atoms: C_24  and  C_25
REMARK                            x       y       z     vdW  Elec       q    Type
REMARK                         _______ _______ _______ _____ _____    ______ ____
ROOT
ATOM      1  N   UNL     1       0.803  13.716  21.033  0.00  0.00    +0.000 NA
ATOM      2  C   UNL     1       1.951  13.233  20.178  0.00  0.00    +0.000 C 
ATOM      3  C   UNL     1       1.216  12.377  19.113  0.00  0.00    +0.000 C 
ATOM      4  C   UNL     1       1.128  11.052  19.716  0.00  0.00    +0.000 C 
ATOM      5  C   UNL     1       0.560  11.028  20.941  0.00  0.00    +0.000 C 
ATOM      6  C   UNL     1       0.015  12.382  21.606  0.00  0.00    +0.000 C 
ENDROOT
BRANCH   2   7
ATOM      7  C   UNL     1       3.078  14.027  19.547  0.00  0.00    +0.000 A 
ATOM      8  C   UNL     1       3.192  14.410  18.209  0.00  0.00    +0.000 A 
ATOM      9  C   UNL     1       4.339  15.086  17.764  0.00  0.00    +0.000 A 
ATOM     10  C   UNL     1       5.360  15.444  18.645  0.00  0.00    +0.000 A 
ATOM     11  C   UNL     1       5.189  15.199  19.988  0.00  0.00    +0.000 A 
ATOM     12  F   UNL     1       6.116  15.562  20.877  0.00  0.00    +0.000 F 
ATOM     13  C   UNL     1       4.050  14.556  20.432  0.00  0.00    +0.000 A 
ENDBRANCH   2   7
BRANCH   6  14
ATOM     14  C   UNL     1      -1.520  12.456  21.710  0.00  0.00    +0.000 A 
ATOM     15  C   UNL     1      -2.376  12.599  20.599  0.00  0.00    +0.000 A 
ATOM     16  C   UNL     1      -3.779  12.729  20.759  0.00  0.00    +0.000 A 
ATOM     17  C   UNL     1      -4.349  12.747  22.018  0.00  0.00    +0.000 A 
ATOM     18  C   UNL     1      -3.534  12.555  23.121  0.00  0.00    +0.000 A 
ATOM     19 CL   UNL     1      -4.225  12.606  24.701  0.00  0.00    +0.000 Cl
ATOM     20  C   UNL     1      -2.151  12.360  22.969  0.00  0.00    +0.000 A 
ENDBRANCH   6  14
BRANCH   1  21
ATOM     21  S   UNL     1       0.050  15.209  20.500  0.00  0.00    +0.000 S 
ATOM     22  O   UNL     1      -0.812  14.879  19.382  0.00  0.00    +0.000 OA
ATOM     23  O   UNL     1       1.018  16.254  20.322  0.00  0.00    +0.000 OA
BRANCH  21  28
ATOM     24  C   UNL     1      -3.822  16.161  25.073  0.00  0.00    +0.000 C 
ATOM     25  C   UNL     1      -2.832  16.083  23.947  0.00  0.00    +0.000 A 
ATOM     26  C   UNL     1      -1.483  15.796  24.200  0.00  0.00    +0.000 A 
ATOM     27  C   UNL     1      -0.572  15.664  23.150  0.00  0.00    +0.000 A 
ATOM     28  C   UNL     1      -1.030  15.734  21.832  0.00  0.00    +0.000 A 
ATOM     29  C   UNL     1      -2.348  16.123  21.564  0.00  0.00    +0.000 A 
ATOM     30  C   UNL     1      -3.248  16.290  22.624  0.00  0.00    +0.000 A 
ENDBRANCH  21  28
ENDBRANCH   1  21
BRANCH   5  31
ATOM     31  C   UNL     1       0.733   9.666  21.540  0.00  0.00    +0.000 C 
ATOM     32  O   UNL     1       0.307   8.652  21.006  0.00  0.00    +0.000 OA
BRANCH  31  33
ATOM     33  O   UNL     1       1.373   9.604  22.705  0.00  0.00    +0.000 OA
ATOM     34  H   UNL     1       1.927   8.827  22.869  0.00  0.00    +0.000 HD
ENDBRANCH  31  33
ENDBRANCH   5  31
TORSDOF 6
ENDMDL
