MODEL 1
REMARK VINA RESULT:      -8.7      0.000      0.000
REMARK  Name = 
REMARK  3 active torsions:
REMARK  status: ('A' for Active; 'I' for Inactive)
REMARK    1  A    between atoms: C_8  and  C_9
REMARK    2  A    between atoms: C_14  and  O_15
REMARK    3  A    between atoms: C_22  and  O_23
REMARK                            x       y       z     vdW  Elec       q    Type
REMARK                         _______ _______ _______ _____ _____    ______ ____
ROOT
ATOM      1  O   UNL     1       4.645   3.020  18.350  0.00  0.00    +0.000 OA
ATOM      2  C   UNL     1       4.029   3.966  18.827  0.00  0.00    +0.000 C 
ATOM      3  N   UNL     1       3.361   3.839  20.014  0.00  0.00    +0.000 N 
ATOM      4  C   UNL     1       2.618   4.907  20.413  0.00  0.00    +0.000 C 
ATOM      5  O   UNL     1       1.934   4.878  21.430  0.00  0.00    +0.000 OA
ATOM      6  C   UNL     1       2.881   5.875  19.402  0.00  0.00    +0.000 A 
ATOM      7  C   UNL     1       3.779   5.335  18.422  0.00  0.00    +0.000 A 
ATOM      8  C   UNL     1       4.275   6.044  17.299  0.00  0.00    +0.000 A 
ATOM      9  C   UNL     1       3.814   7.373  17.173  0.00  0.00    +0.000 A 
ATOM     10  C   UNL     1       2.896   7.878  18.091  0.00  0.00    +0.000 A 
ATOM     11  N   UNL     1       2.246   9.086  18.163  0.00  0.00    +0.000 N 
ATOM     12  C   UNL     1       1.421   9.138  19.274  0.00  0.00    +0.000 A 
ATOM     13  C   UNL     1       0.595  10.184  19.710  0.00  0.00    +0.000 A 
ATOM     14  C   UNL     1      -0.143   9.992  20.880  0.00  0.00    +0.000 A 
ATOM     15  C   UNL     1      -0.055   8.792  21.570  0.00  0.00    +0.000 A 
ATOM     16  C   UNL     1       0.761   7.748  21.129  0.00  0.00    +0.000 A 
ATOM     17  C   UNL     1       1.524   7.912  19.957  0.00  0.00    +0.000 A 
ATOM     18  C   UNL     1       2.434   7.195  19.175  0.00  0.00    +0.000 A 
ATOM     19  H   UNL     1       3.362   2.976  20.526  0.00  0.00    +0.000 HD
ATOM     20  H   UNL     1       2.342   9.833  17.489  0.00  0.00    +0.000 HD
ENDROOT
BRANCH   8  21
ATOM     21  C   UNL     1       5.193   5.444  16.295  0.00  0.00    +0.000 A 
ATOM     22  C   UNL     1       4.714   4.650  15.235  0.00  0.00    +0.000 A 
ATOM     23  C   UNL     1       5.555   4.160  14.229  0.00  0.00    +0.000 A 
ATOM     24  C   UNL     1       6.924   4.372  14.297  0.00  0.00    +0.000 A 
ATOM     25  C   UNL     1       7.454   5.065  15.378  0.00  0.00    +0.000 A 
ATOM     26  C   UNL     1       6.599   5.598  16.354  0.00  0.00    +0.000 A 
BRANCH  26  27
ATOM     27  O   UNL     1       7.177   6.294  17.388  0.00  0.00    +0.000 OA
ATOM     28  H   UNL     1       6.520   6.898  17.767  0.00  0.00    +0.000 HD
ENDBRANCH  26  27
ENDBRANCH   8  21
BRANCH  15  29
ATOM     29  O   UNL     1      -0.771   8.588  22.716  0.00  0.00    +0.000 OA
ATOM     30  H   UNL     1      -0.474   7.761  23.127  0.00  0.00    +0.000 HD
ENDBRANCH  15  29
TORSDOF 3
ENDMDL
MODEL 2
REMARK VINA RESULT:      -7.5      2.888      4.297
REMARK  Name = 
REMARK  3 active torsions:
REMARK  status: ('A' for Active; 'I' for Inactive)
REMARK    1  A    between atoms: C_8  and  C_9
REMARK    2  A    between atoms: C_14  and  O_15
REMARK    3  A    between atoms: C_22  and  O_23
REMARK                            x       y       z     vdW  Elec       q    Type
REMARK                         _______ _______ _______ _____ _____    ______ ____
ROOT
ATOM      1  O   UNL     1       4.082   6.074  16.908  0.00  0.00    +0.000 OA
ATOM      2  C   UNL     1       3.389   6.867  17.534  0.00  0.00    +0.000 C 
ATOM      3  N   UNL     1       3.271   8.168  17.126  0.00  0.00    +0.000 N 
ATOM      4  C   UNL     1       2.567   9.002  17.940  0.00  0.00    +0.000 C 
ATOM      5  O   UNL     1       2.451  10.198  17.698  0.00  0.00    +0.000 OA
ATOM      6  C   UNL     1       2.112   8.132  18.971  0.00  0.00    +0.000 A 
ATOM      7  C   UNL     1       2.575   6.795  18.731  0.00  0.00    +0.000 A 
ATOM      8  C   UNL     1       2.275   5.674  19.546  0.00  0.00    +0.000 A 
ATOM      9  C   UNL     1       1.464   5.946  20.671  0.00  0.00    +0.000 A 
ATOM     10  C   UNL     1       1.064   7.254  20.937  0.00  0.00    +0.000 A 
ATOM     11  N   UNL     1       0.348   7.797  21.975  0.00  0.00    +0.000 N 
ATOM     12  C   UNL     1       0.188   9.162  21.805  0.00  0.00    +0.000 A 
ATOM     13  C   UNL     1      -0.480  10.080  22.628  0.00  0.00    +0.000 A 
ATOM     14  C   UNL     1      -0.507  11.418  22.229  0.00  0.00    +0.000 A 
ATOM     15  C   UNL     1       0.120  11.808  21.054  0.00  0.00    +0.000 A 
ATOM     16  C   UNL     1       0.791  10.894  20.241  0.00  0.00    +0.000 A 
ATOM     17  C   UNL     1       0.831   9.535  20.610  0.00  0.00    +0.000 A 
ATOM     18  C   UNL     1       1.347   8.323  20.142  0.00  0.00    +0.000 A 
ATOM     19  H   UNL     1       3.742   8.505  16.306  0.00  0.00    +0.000 HD
ATOM     20  H   UNL     1      -0.003   7.276  22.767  0.00  0.00    +0.000 HD
ENDROOT
BRANCH   8  21
ATOM     21  C   UNL     1       2.787   4.305  19.273  0.00  0.00    +0.000 A 
ATOM     22  C   UNL     1       3.904   3.784  19.954  0.00  0.00    +0.000 A 
ATOM     23  C   UNL     1       4.337   2.464  19.778  0.00  0.00    +0.000 A 
ATOM     24  C   UNL     1       3.722   1.645  18.844  0.00  0.00    +0.000 A 
ATOM     25  C   UNL     1       2.680   2.149  18.076  0.00  0.00    +0.000 A 
ATOM     26  C   UNL     1       2.217   3.455  18.296  0.00  0.00    +0.000 A 
BRANCH  26  27
ATOM     27  O   UNL     1       1.168   3.891  17.524  0.00  0.00    +0.000 OA
ATOM     28  H   UNL     1       1.508   4.168  16.658  0.00  0.00    +0.000 HD
ENDBRANCH  26  27
ENDBRANCH   8  21
BRANCH  15  29
ATOM     29  O   UNL     1       0.102  13.113  20.650  0.00  0.00    +0.000 OA
ATOM     30  H   UNL     1      -0.517  13.202  19.908  0.00  0.00    +0.000 HD
ENDBRANCH  15  29
TORSDOF 3
ENDMDL
MODEL 3
REMARK VINA RESULT:      -7.5      2.038      6.971
REMARK  Name = 
REMARK  3 active torsions:
REMARK  status: ('A' for Active; 'I' for Inactive)
REMARK    1  A    between atoms: C_8  and  C_9
REMARK    2  A    between atoms: C_14  and  O_15
REMARK    3  A    between atoms: C_22  and  O_23
REMARK                            x       y       z     vdW  Elec       q    Type
REMARK                         _______ _______ _______ _____ _____    ______ ____
ROOT
ATOM      1  O   UNL     1      -0.086   9.549  21.519  0.00  0.00    +0.000 OA
ATOM      2  C   UNL     1       0.599   8.705  20.955  0.00  0.00    +0.000 C 
ATOM      3  N   UNL     1       0.793   7.472  21.517  0.00  0.00    +0.000 N 
ATOM      4  C   UNL     1       1.652   6.636  20.873  0.00  0.00    +0.000 C 
ATOM      5  O   UNL     1       1.941   5.532  21.321  0.00  0.00    +0.000 OA
ATOM      6  C   UNL     1       2.017   7.382  19.716  0.00  0.00    +0.000 A 
ATOM      7  C   UNL     1       1.354   8.655  19.720  0.00  0.00    +0.000 A 
ATOM      8  C   UNL     1       1.468   9.630  18.697  0.00  0.00    +0.000 A 
ATOM      9  C   UNL     1       2.314   9.281  17.621  0.00  0.00    +0.000 A 
ATOM     10  C   UNL     1       3.004   8.071  17.646  0.00  0.00    +0.000 A 
ATOM     11  N   UNL     1       3.923   7.525  16.784  0.00  0.00    +0.000 N 
ATOM     12  C   UNL     1       4.335   6.279  17.225  0.00  0.00    +0.000 A 
ATOM     13  C   UNL     1       5.251   5.394  16.637  0.00  0.00    +0.000 A 
ATOM     14  C   UNL     1       5.493   4.179  17.281  0.00  0.00    +0.000 A 
ATOM     15  C   UNL     1       4.845   3.878  18.470  0.00  0.00    +0.000 A 
ATOM     16  C   UNL     1       3.940   4.764  19.058  0.00  0.00    +0.000 A 
ATOM     17  C   UNL     1       3.666   5.995  18.431  0.00  0.00    +0.000 A 
ATOM     18  C   UNL     1       2.880   7.134  18.627  0.00  0.00    +0.000 A 
ATOM     19  H   UNL     1       0.377   7.225  22.396  0.00  0.00    +0.000 HD
ATOM     20  H   UNL     1       4.267   7.976  15.948  0.00  0.00    +0.000 HD
ENDROOT
BRANCH   8  21
ATOM     21  C   UNL     1       0.777  10.947  18.744  0.00  0.00    +0.000 A 
ATOM     22  C   UNL     1       1.432  12.110  19.189  0.00  0.00    +0.000 A 
ATOM     23  C   UNL     1       0.827  13.372  19.147  0.00  0.00    +0.000 A 
ATOM     24  C   UNL     1      -0.493  13.500  18.741  0.00  0.00    +0.000 A 
ATOM     25  C   UNL     1      -1.212  12.365  18.388  0.00  0.00    +0.000 A 
ATOM     26  C   UNL     1      -0.581  11.112  18.382  0.00  0.00    +0.000 A 
BRANCH  26  27
ATOM     27  O   UNL     1      -1.334  10.028  18.002  0.00  0.00    +0.000 OA
ATOM     28  H   UNL     1      -1.804   9.683  18.777  0.00  0.00    +0.000 HD
ENDBRANCH  26  27
ENDBRANCH   8  21
BRANCH  15  29
ATOM     29  O   UNL     1       5.071   2.693  19.112  0.00  0.00    +0.000 OA
ATOM     30  H   UNL     1       5.583   2.113  18.527  0.00  0.00    +0.000 HD
ENDBRANCH  15  29
TORSDOF 3
ENDMDL
MODEL 4
REMARK VINA RESULT:      -7.3      1.250      1.459
REMARK  Name = 
REMARK  3 active torsions:
REMARK  status: ('A' for Active; 'I' for Inactive)
REMARK    1  A    between atoms: C_8  and  C_9
REMARK    2  A    between atoms: C_14  and  O_15
REMARK    3  A    between atoms: C_22  and  O_23
REMARK                            x       y       z     vdW  Elec       q    Type
REMARK                         _______ _______ _______ _____ _____    ______ ____
ROOT
ATOM      1  O   UNL     1       3.898   3.895  19.438  0.00  0.00    +0.000 OA
ATOM      2  C   UNL     1       3.339   4.974  19.593  0.00  0.00    +0.000 C 
ATOM      3  N   UNL     1       2.523   5.190  20.670  0.00  0.00    +0.000 N 
ATOM      4  C   UNL     1       1.861   6.379  20.705  0.00  0.00    +0.000 C 
ATOM      5  O   UNL     1       1.061   6.650  21.594  0.00  0.00    +0.000 OA
ATOM      6  C   UNL     1       2.350   7.051  19.548  0.00  0.00    +0.000 A 
ATOM      7  C   UNL     1       3.294   6.220  18.856  0.00  0.00    +0.000 A 
ATOM      8  C   UNL     1       3.997   6.596  17.684  0.00  0.00    +0.000 A 
ATOM      9  C   UNL     1       3.706   7.889  17.194  0.00  0.00    +0.000 A 
ATOM     10  C   UNL     1       2.746   8.672  17.831  0.00  0.00    +0.000 A 
ATOM     11  N   UNL     1       2.232   9.910  17.532  0.00  0.00    +0.000 N 
ATOM     12  C   UNL     1       1.289  10.293  18.472  0.00  0.00    +0.000 A 
ATOM     13  C   UNL     1       0.539  11.476  18.536  0.00  0.00    +0.000 A 
ATOM     14  C   UNL     1      -0.351  11.631  19.601  0.00  0.00    +0.000 A 
ATOM     15  C   UNL     1      -0.481  10.629  20.552  0.00  0.00    +0.000 A 
ATOM     16  C   UNL     1       0.260   9.448  20.481  0.00  0.00    +0.000 A 
ATOM     17  C   UNL     1       1.172   9.263  19.425  0.00  0.00    +0.000 A 
ATOM     18  C   UNL     1       2.084   8.308  18.965  0.00  0.00    +0.000 A 
ATOM     19  H   UNL     1       2.366   4.479  21.361  0.00  0.00    +0.000 HD
ATOM     20  H   UNL     1       2.490  10.462  16.727  0.00  0.00    +0.000 HD
ENDROOT
BRANCH   8  21
ATOM     21  C   UNL     1       4.957   5.701  16.985  0.00  0.00    +0.000 A 
ATOM     22  C   UNL     1       4.559   4.888  15.906  0.00  0.00    +0.000 A 
ATOM     23  C   UNL     1       5.470   4.114  15.177  0.00  0.00    +0.000 A 
ATOM     24  C   UNL     1       6.802   4.056  15.561  0.00  0.00    +0.000 A 
ATOM     25  C   UNL     1       7.220   4.763  16.682  0.00  0.00    +0.000 A 
ATOM     26  C   UNL     1       6.312   5.578  17.374  0.00  0.00    +0.000 A 
BRANCH  26  27
ATOM     27  O   UNL     1       6.787   6.272  18.460  0.00  0.00    +0.000 OA
ATOM     28  H   UNL     1       6.664   7.222  18.305  0.00  0.00    +0.000 HD
ENDBRANCH  26  27
ENDBRANCH   8  21
BRANCH  15  29
ATOM     29  O   UNL     1      -1.348  10.765  21.600  0.00  0.00    +0.000 OA
ATOM     30  H   UNL     1      -0.934  11.322  22.278  0.00  0.00    +0.000 HD
ENDBRANCH  15  29
TORSDOF 3
ENDMDL
MODEL 5
REMARK VINA RESULT:      -7.2      3.785      9.474
REMARK  Name = 
REMARK  3 active torsions:
REMARK  status: ('A' for Active; 'I' for Inactive)
REMARK    1  A    between atoms: C_8  and  C_9
REMARK    2  A    between atoms: C_14  and  O_15
REMARK    3  A    between atoms: C_22  and  O_23
REMARK                            x       y       z     vdW  Elec       q    Type
REMARK                         _______ _______ _______ _____ _____    ______ ____
ROOT
ATOM      1  O   UNL     1      -2.311  12.665  23.544  0.00  0.00    +0.000 OA
ATOM      2  C   UNL     1      -1.690  11.856  22.864  0.00  0.00    +0.000 C 
ATOM      3  N   UNL     1      -1.178  10.719  23.425  0.00  0.00    +0.000 N 
ATOM      4  C   UNL     1      -0.413   9.932  22.620  0.00  0.00    +0.000 C 
ATOM      5  O   UNL     1       0.142   8.921  23.037  0.00  0.00    +0.000 OA
ATOM      6  C   UNL     1      -0.485  10.597  21.362  0.00  0.00    +0.000 A 
ATOM      7  C   UNL     1      -1.298  11.774  21.472  0.00  0.00    +0.000 A 
ATOM      8  C   UNL     1      -1.606  12.649  20.399  0.00  0.00    +0.000 A 
ATOM      9  C   UNL     1      -1.040  12.298  19.153  0.00  0.00    +0.000 A 
ATOM     10  C   UNL     1      -0.203  11.188  19.060  0.00  0.00    +0.000 A 
ATOM     11  N   UNL     1       0.518  10.673  18.010  0.00  0.00    +0.000 N 
ATOM     12  C   UNL     1       1.208   9.536  18.395  0.00  0.00    +0.000 A 
ATOM     13  C   UNL     1       2.048   8.713  17.631  0.00  0.00    +0.000 A 
ATOM     14  C   UNL     1       2.627   7.607  18.256  0.00  0.00    +0.000 A 
ATOM     15  C   UNL     1       2.373   7.351  19.595  0.00  0.00    +0.000 A 
ATOM     16  C   UNL     1       1.544   8.176  20.357  0.00  0.00    +0.000 A 
ATOM     17  C   UNL     1       0.937   9.296  19.756  0.00  0.00    +0.000 A 
ATOM     18  C   UNL     1       0.078  10.346  20.093  0.00  0.00    +0.000 A 
ATOM     19  H   UNL     1      -1.300  10.513  24.400  0.00  0.00    +0.000 HD
ATOM     20  H   UNL     1       0.555  11.076  17.085  0.00  0.00    +0.000 HD
ENDROOT
BRANCH   8  21
ATOM     21  C   UNL     1      -2.439  13.871  20.555  0.00  0.00    +0.000 A 
ATOM     22  C   UNL     1      -1.863  15.150  20.670  0.00  0.00    +0.000 A 
ATOM     23  C   UNL     1      -2.635  16.317  20.719  0.00  0.00    +0.000 A 
ATOM     24  C   UNL     1      -4.020  16.237  20.747  0.00  0.00    +0.000 A 
ATOM     25  C   UNL     1      -4.632  14.990  20.738  0.00  0.00    +0.000 A 
ATOM     26  C   UNL     1      -3.852  13.829  20.634  0.00  0.00    +0.000 A 
BRANCH  26  27
ATOM     27  O   UNL     1      -4.512  12.625  20.605  0.00  0.00    +0.000 OA
ATOM     28  H   UNL     1      -4.749  12.373  21.512  0.00  0.00    +0.000 HD
ENDBRANCH  26  27
ENDBRANCH   8  21
BRANCH  15  29
ATOM     29  O   UNL     1       2.932   6.273  20.221  0.00  0.00    +0.000 OA
ATOM     30  H   UNL     1       2.866   6.399  21.181  0.00  0.00    +0.000 HD
ENDBRANCH  15  29
TORSDOF 3
ENDMDL
MODEL 6
REMARK VINA RESULT:      -7.2      3.076      4.426
REMARK  Name = 
REMARK  3 active torsions:
REMARK  status: ('A' for Active; 'I' for Inactive)
REMARK    1  A    between atoms: C_8  and  C_9
REMARK    2  A    between atoms: C_14  and  O_15
REMARK    3  A    between atoms: C_22  and  O_23
REMARK                            x       y       z     vdW  Elec       q    Type
REMARK                         _______ _______ _______ _____ _____    ______ ____
ROOT
ATOM      1  O   UNL     1       3.710   6.399  17.245  0.00  0.00    +0.000 OA
ATOM      2  C   UNL     1       3.037   7.234  17.838  0.00  0.00    +0.000 C 
ATOM      3  N   UNL     1       2.914   8.507  17.351  0.00  0.00    +0.000 N 
ATOM      4  C   UNL     1       2.236   9.395  18.128  0.00  0.00    +0.000 C 
ATOM      5  O   UNL     1       2.118  10.574  17.813  0.00  0.00    +0.000 OA
ATOM      6  C   UNL     1       1.806   8.596  19.225  0.00  0.00    +0.000 A 
ATOM      7  C   UNL     1       2.256   7.244  19.058  0.00  0.00    +0.000 A 
ATOM      8  C   UNL     1       1.973   6.180  19.952  0.00  0.00    +0.000 A 
ATOM      9  C   UNL     1       1.196   6.528  21.078  0.00  0.00    +0.000 A 
ATOM     10  C   UNL     1       0.808   7.852  21.271  0.00  0.00    +0.000 A 
ATOM     11  N   UNL     1       0.123   8.465  22.291  0.00  0.00    +0.000 N 
ATOM     12  C   UNL     1      -0.036   9.817  22.038  0.00  0.00    +0.000 A 
ATOM     13  C   UNL     1      -0.677  10.790  22.818  0.00  0.00    +0.000 A 
ATOM     14  C   UNL     1      -0.710  12.100  22.335  0.00  0.00    +0.000 A 
ATOM     15  C   UNL     1      -0.114  12.410  21.121  0.00  0.00    +0.000 A 
ATOM     16  C   UNL     1       0.531  11.441  20.350  0.00  0.00    +0.000 A 
ATOM     17  C   UNL     1       0.576  10.110  20.805  0.00  0.00    +0.000 A 
ATOM     18  C   UNL     1       1.074   8.867  20.401  0.00  0.00    +0.000 A 
ATOM     19  H   UNL     1       3.363   8.788  16.498  0.00  0.00    +0.000 HD
ATOM     20  H   UNL     1      -0.208   7.998  23.124  0.00  0.00    +0.000 HD
ENDROOT
BRANCH   8  21
ATOM     21  C   UNL     1       2.473   4.793  19.754  0.00  0.00    +0.000 A 
ATOM     22  C   UNL     1       1.593   3.706  19.589  0.00  0.00    +0.000 A 
ATOM     23  C   UNL     1       2.047   2.413  19.305  0.00  0.00    +0.000 A 
ATOM     24  C   UNL     1       3.407   2.142  19.266  0.00  0.00    +0.000 A 
ATOM     25  C   UNL     1       4.313   3.164  19.522  0.00  0.00    +0.000 A 
ATOM     26  C   UNL     1       3.850   4.468  19.753  0.00  0.00    +0.000 A 
BRANCH  26  27
ATOM     27  O   UNL     1       4.793   5.442  19.977  0.00  0.00    +0.000 OA
ATOM     28  H   UNL     1       4.989   5.477  20.927  0.00  0.00    +0.000 HD
ENDBRANCH  26  27
ENDBRANCH   8  21
BRANCH  15  29
ATOM     29  O   UNL     1      -0.137  13.687  20.634  0.00  0.00    +0.000 OA
ATOM     30  H   UNL     1      -0.733  13.719  19.869  0.00  0.00    +0.000 HD
ENDBRANCH  15  29
TORSDOF 3
ENDMDL
MODEL 7
REMARK VINA RESULT:      -7.1      0.882      1.311
REMARK  Name = 
REMARK  3 active torsions:
REMARK  status: ('A' for Active; 'I' for Inactive)
REMARK    1  A    between atoms: C_8  and  C_9
REMARK    2  A    between atoms: C_14  and  O_15
REMARK    3  A    between atoms: C_22  and  O_23
REMARK                            x       y       z     vdW  Elec       q    Type
REMARK                         _______ _______ _______ _____ _____    ______ ____
ROOT
ATOM      1  O   UNL     1       4.681   3.092  18.611  0.00  0.00    +0.000 OA
ATOM      2  C   UNL     1       4.040   4.033  19.065  0.00  0.00    +0.000 C 
ATOM      3  N   UNL     1       3.362   3.912  20.247  0.00  0.00    +0.000 N 
ATOM      4  C   UNL     1       2.593   4.971  20.621  0.00  0.00    +0.000 C 
ATOM      5  O   UNL     1       1.900   4.944  21.632  0.00  0.00    +0.000 OA
ATOM      6  C   UNL     1       2.845   5.927  19.596  0.00  0.00    +0.000 A 
ATOM      7  C   UNL     1       3.765   5.389  18.635  0.00  0.00    +0.000 A 
ATOM      8  C   UNL     1       4.257   6.090  17.505  0.00  0.00    +0.000 A 
ATOM      9  C   UNL     1       3.770   7.407  17.352  0.00  0.00    +0.000 A 
ATOM     10  C   UNL     1       2.832   7.907  18.252  0.00  0.00    +0.000 A 
ATOM     11  N   UNL     1       2.156   9.103  18.297  0.00  0.00    +0.000 N 
ATOM     12  C   UNL     1       1.318   9.155  19.398  0.00  0.00    +0.000 A 
ATOM     13  C   UNL     1       0.467  10.191  19.809  0.00  0.00    +0.000 A 
ATOM     14  C   UNL     1      -0.279  10.003  20.974  0.00  0.00    +0.000 A 
ATOM     15  C   UNL     1      -0.173   8.816  21.686  0.00  0.00    +0.000 A 
ATOM     16  C   UNL     1       0.669   7.783  21.271  0.00  0.00    +0.000 A 
ATOM     17  C   UNL     1       1.441   7.943  20.104  0.00  0.00    +0.000 A 
ATOM     18  C   UNL     1       2.373   7.232  19.342  0.00  0.00    +0.000 A 
ATOM     19  H   UNL     1       3.376   3.058  20.775  0.00  0.00    +0.000 HD
ATOM     20  H   UNL     1       2.243   9.839  17.611  0.00  0.00    +0.000 HD
ENDROOT
BRANCH   8  21
ATOM     21  C   UNL     1       5.198   5.493  16.520  0.00  0.00    +0.000 A 
ATOM     22  C   UNL     1       6.476   6.037  16.294  0.00  0.00    +0.000 A 
ATOM     23  C   UNL     1       7.408   5.431  15.443  0.00  0.00    +0.000 A 
ATOM     24  C   UNL     1       7.059   4.302  14.716  0.00  0.00    +0.000 A 
ATOM     25  C   UNL     1       5.774   3.787  14.831  0.00  0.00    +0.000 A 
ATOM     26  C   UNL     1       4.864   4.370  15.725  0.00  0.00    +0.000 A 
BRANCH  26  27
ATOM     27  O   UNL     1       3.616   3.804  15.815  0.00  0.00    +0.000 OA
ATOM     28  H   UNL     1       3.626   2.945  15.363  0.00  0.00    +0.000 HD
ENDBRANCH  26  27
ENDBRANCH   8  21
BRANCH  15  29
ATOM     29  O   UNL     1      -0.896   8.616  22.828  0.00  0.00    +0.000 OA
ATOM     30  H   UNL     1      -0.428   7.975  23.386  0.00  0.00    +0.000 HD
ENDBRANCH  15  29
TORSDOF 3
ENDMDL
MODEL 8
REMARK VINA RESULT:      -7.1      1.764      2.706
REMARK  Name = 
REMARK  3 active torsions:
REMARK  status: ('A' for Active; 'I' for Inactive)
REMARK    1  A    between atoms: C_8  and  C_9
REMARK    2  A    between atoms: C_14  and  O_15
REMARK    3  A    between atoms: C_22  and  O_23
REMARK                            x       y       z     vdW  Elec       q    Type
REMARK                         _______ _______ _______ _____ _____    ______ ____
ROOT
ATOM      1  O   UNL     1       3.159   4.638  20.102  0.00  0.00    +0.000 OA
ATOM      2  C   UNL     1       2.641   5.747  20.160  0.00  0.00    +0.000 C 
ATOM      3  N   UNL     1       1.856   6.098  21.225  0.00  0.00    +0.000 N 
ATOM      4  C   UNL     1       1.237   7.308  21.154  0.00  0.00    +0.000 C 
ATOM      5  O   UNL     1       0.467   7.694  22.027  0.00  0.00    +0.000 OA
ATOM      6  C   UNL     1       1.724   7.844  19.928  0.00  0.00    +0.000 A 
ATOM      7  C   UNL     1       2.623   6.916  19.305  0.00  0.00    +0.000 A 
ATOM      8  C   UNL     1       3.312   7.149  18.088  0.00  0.00    +0.000 A 
ATOM      9  C   UNL     1       3.056   8.398  17.478  0.00  0.00    +0.000 A 
ATOM     10  C   UNL     1       2.138   9.274  18.053  0.00  0.00    +0.000 A 
ATOM     11  N   UNL     1       1.660  10.495  17.643  0.00  0.00    +0.000 N 
ATOM     12  C   UNL     1       0.753  11.003  18.558  0.00  0.00    +0.000 A 
ATOM     13  C   UNL     1       0.046  12.213  18.519  0.00  0.00    +0.000 A 
ATOM     14  C   UNL     1      -0.814  12.504  19.580  0.00  0.00    +0.000 A 
ATOM     15  C   UNL     1      -0.959  11.605  20.627  0.00  0.00    +0.000 A 
ATOM     16  C   UNL     1      -0.261  10.397  20.659  0.00  0.00    +0.000 A 
ATOM     17  C   UNL     1       0.621  10.076  19.610  0.00  0.00    +0.000 A 
ATOM     18  C   UNL     1       1.489   9.048  19.229  0.00  0.00    +0.000 A 
ATOM     19  H   UNL     1       1.690   5.463  21.985  0.00  0.00    +0.000 HD
ATOM     20  H   UNL     1       1.920  10.956  16.783  0.00  0.00    +0.000 HD
ENDROOT
BRANCH   8  21
ATOM     21  C   UNL     1       4.225   6.155  17.463  0.00  0.00    +0.000 A 
ATOM     22  C   UNL     1       5.570   6.460  17.180  0.00  0.00    +0.000 A 
ATOM     23  C   UNL     1       6.465   5.505  16.683  0.00  0.00    +0.000 A 
ATOM     24  C   UNL     1       6.020   4.231  16.364  0.00  0.00    +0.000 A 
ATOM     25  C   UNL     1       4.678   3.914  16.532  0.00  0.00    +0.000 A 
ATOM     26  C   UNL     1       3.800   4.860  17.081  0.00  0.00    +0.000 A 
BRANCH  26  27
ATOM     27  O   UNL     1       2.489   4.484  17.246  0.00  0.00    +0.000 OA
ATOM     28  H   UNL     1       2.151   4.871  18.069  0.00  0.00    +0.000 HD
ENDBRANCH  26  27
ENDBRANCH   8  21
BRANCH  15  29
ATOM     29  O   UNL     1      -1.797  11.875  21.672  0.00  0.00    +0.000 OA
ATOM     30  H   UNL     1      -1.552  11.310  22.422  0.00  0.00    +0.000 HD
ENDBRANCH  15  29
TORSDOF 3
ENDMDL
MODEL 9
REMARK VINA RESULT:      -7.0      3.650      9.171
REMARK  Name = 
REMARK  3 active torsions:
REMARK  status: ('A' for Active; 'I' for Inactive)
REMARK    1  A    between atoms: C_8  and  C_9
REMARK    2  A    between atoms: C_14  and  O_15
REMARK    3  A    between atoms: C_22  and  O_23
REMARK                            x       y       z     vdW  Elec       q    Type
REMARK                         _______ _______ _______ _____ _____    ______ ____
ROOT
ATOM      1  O   UNL     1      -2.224  12.316  23.519  0.00  0.00    +0.000 OA
ATOM      2  C   UNL     1      -1.588  11.527  22.831  0.00  0.00    +0.000 C 
ATOM      3  N   UNL     1      -1.069  10.384  23.375  0.00  0.00    +0.000 N 
ATOM      4  C   UNL     1      -0.288   9.620  22.563  0.00  0.00    +0.000 C 
ATOM      5  O   UNL     1       0.273   8.607  22.967  0.00  0.00    +0.000 OA
ATOM      6  C   UNL     1      -0.355  10.308  21.318  0.00  0.00    +0.000 A 
ATOM      7  C   UNL     1      -1.180  11.475  21.441  0.00  0.00    +0.000 A 
ATOM      8  C   UNL     1      -1.486  12.366  20.382  0.00  0.00    +0.000 A 
ATOM      9  C   UNL     1      -0.905  12.045  19.135  0.00  0.00    +0.000 A 
ATOM     10  C   UNL     1      -0.056  10.945  19.030  0.00  0.00    +0.000 A 
ATOM     11  N   UNL     1       0.681  10.458  17.978  0.00  0.00    +0.000 N 
ATOM     12  C   UNL     1       1.379   9.320  18.349  0.00  0.00    +0.000 A 
ATOM     13  C   UNL     1       2.235   8.521  17.578  0.00  0.00    +0.000 A 
ATOM     14  C   UNL     1       2.819   7.409  18.187  0.00  0.00    +0.000 A 
ATOM     15  C   UNL     1       2.555   7.125  19.519  0.00  0.00    +0.000 A 
ATOM     16  C   UNL     1       1.709   7.927  20.288  0.00  0.00    +0.000 A 
ATOM     17  C   UNL     1       1.097   9.052  19.702  0.00  0.00    +0.000 A 
ATOM     18  C   UNL     1       0.224  10.086  20.049  0.00  0.00    +0.000 A 
ATOM     19  H   UNL     1      -1.199  10.159  24.345  0.00  0.00    +0.000 HD
ATOM     20  H   UNL     1       0.724  10.878  17.061  0.00  0.00    +0.000 HD
ENDROOT
BRANCH   8  21
ATOM     21  C   UNL     1      -2.334  13.576  20.552  0.00  0.00    +0.000 A 
ATOM     22  C   UNL     1      -3.739  13.511  20.485  0.00  0.00    +0.000 A 
ATOM     23  C   UNL     1      -4.552  14.622  20.739  0.00  0.00    +0.000 A 
ATOM     24  C   UNL     1      -3.983  15.863  20.982  0.00  0.00    +0.000 A 
ATOM     25  C   UNL     1      -2.601  15.996  20.958  0.00  0.00    +0.000 A 
ATOM     26  C   UNL     1      -1.793  14.868  20.755  0.00  0.00    +0.000 A 
BRANCH  26  27
ATOM     27  O   UNL     1      -0.432  15.055  20.766  0.00  0.00    +0.000 OA
ATOM     28  H   UNL     1      -0.011  14.338  20.266  0.00  0.00    +0.000 HD
ENDBRANCH  26  27
ENDBRANCH   8  21
BRANCH  15  29
ATOM     29  O   UNL     1       3.119   6.041  20.131  0.00  0.00    +0.000 OA
ATOM     30  H   UNL     1       3.834   6.346  20.711  0.00  0.00    +0.000 HD
ENDBRANCH  15  29
TORSDOF 3
ENDMDL
