MODEL 1
REMARK VINA RESULT:      -6.3      0.000      0.000
REMARK  Name = 
REMARK  6 active torsions:
REMARK  status: ('A' for Active; 'I' for Inactive)
REMARK    1  A    between atoms: C_1  and  O_2
REMARK    2  A    between atoms: O_2  and  C_3
REMARK    3  A    between atoms: C_3  and  C_4
REMARK    4  A    between atoms: C_4  and  N_5
REMARK    5  A    between atoms: C_23  and  O_24
REMARK    6  A    between atoms: O_24  and  C_25
REMARK                            x       y       z     vdW  Elec       q    Type
REMARK                         _______ _______ _______ _____ _____    ______ ____
ROOT
ATOM      1  N   UNL     1      -0.016  11.721  19.150  0.00  0.00    +0.000 N 
ATOM      2  C   UNL     1       0.516  12.357  20.250  0.00  0.00    +0.000 C 
ATOM      3  O   UNL     1       1.144  11.853  21.165  0.00  0.00    +0.000 OA
ATOM      4  C   UNL     1       0.087  13.817  20.130  0.00  0.00    +0.000 C 
ATOM      5  N   UNL     1      -0.558  13.854  18.763  0.00  0.00    +0.000 NA
ATOM      6  C   UNL     1      -0.648  12.627  18.388  0.00  0.00    +0.000 C 
ATOM      7  N   UNL     1      -1.422  12.350  17.321  0.00  0.00    +0.000 N 
ATOM      8  C   UNL     1       1.157  14.878  20.030  0.00  0.00    +0.000 A 
ATOM      9  C   UNL     1       2.365  14.709  19.356  0.00  0.00    +0.000 A 
ATOM     10  C   UNL     1       2.769  15.733  18.507  0.00  0.00    +0.000 A 
ATOM     11 CL   UNL     1       4.099  15.467  17.445  0.00  0.00    +0.000 Cl
ATOM     12  C   UNL     1       2.017  16.913  18.402  0.00  0.00    +0.000 A 
ATOM     13  C   UNL     1       0.894  17.126  19.215  0.00  0.00    +0.000 A 
ATOM     14  C   UNL     1       0.479  16.106  20.058  0.00  0.00    +0.000 A 
ATOM     15  C   UNL     1      -0.875  15.979  20.731  0.00  0.00    +0.000 C 
ATOM     16  C   UNL     1      -1.016  14.436  21.079  0.00  0.00    +0.000 C 
ATOM     17  C   UNL     1      -0.883  14.261  22.619  0.00  0.00    +0.000 C 
ATOM     18  C   UNL     1      -1.262  12.881  23.185  0.00  0.00    +0.000 C 
ATOM     19  C   UNL     1      -2.562  12.277  22.622  0.00  0.00    +0.000 C 
ATOM     20  C   UNL     1      -2.625  12.438  21.112  0.00  0.00    +0.000 C 
ATOM     21  C   UNL     1      -2.439  13.913  20.723  0.00  0.00    +0.000 C 
ATOM     22  H   UNL     1      -1.801  13.243  16.991  0.00  0.00    +0.000 HD
ATOM     23  H   UNL     1      -2.214  11.768  17.567  0.00  0.00    +0.000 HD
ENDROOT
BRANCH  19  24
ATOM     24  O   UNL     1      -3.751  12.921  23.078  0.00  0.00    +0.000 OA
ATOM     25  C   UNL     1      -4.109  12.649  24.415  0.00  0.00    +0.000 C 
ENDBRANCH  19  24
BRANCH   1  26
ATOM     26  C   UNL     1      -0.047  10.282  18.970  0.00  0.00    +0.000 C 
BRANCH  26  27
ATOM     27  C   UNL     1       1.145   9.723  18.194  0.00  0.00    +0.000 C 
BRANCH  27  29
ATOM     28  C   UNL     1       2.517   7.822  18.088  0.00  0.00    +0.000 C 
ATOM     29  O   UNL     1       1.780   8.688  18.942  0.00  0.00    +0.000 OA
ENDBRANCH  27  29
ENDBRANCH  26  27
ENDBRANCH   1  26
TORSDOF 4
ENDMDL
MODEL 2
REMARK VINA RESULT:      -6.1      2.689      5.312
REMARK  Name = 
REMARK  6 active torsions:
REMARK  status: ('A' for Active; 'I' for Inactive)
REMARK    1  A    between atoms: C_1  and  O_2
REMARK    2  A    between atoms: O_2  and  C_3
REMARK    3  A    between atoms: C_3  and  C_4
REMARK    4  A    between atoms: C_4  and  N_5
REMARK    5  A    between atoms: C_23  and  O_24
REMARK    6  A    between atoms: O_24  and  C_25
REMARK                            x       y       z     vdW  Elec       q    Type
REMARK                         _______ _______ _______ _____ _____    ______ ____
ROOT
ATOM      1  N   UNL     1       1.189  13.649  19.384  0.00  0.00    +0.000 N 
ATOM      2  C   UNL     1       0.033  12.909  19.273  0.00  0.00    +0.000 C 
ATOM      3  O   UNL     1      -0.839  13.021  18.428  0.00  0.00    +0.000 OA
ATOM      4  C   UNL     1       0.026  11.970  20.476  0.00  0.00    +0.000 C 
ATOM      5  N   UNL     1       1.390  12.211  21.083  0.00  0.00    +0.000 NA
ATOM      6  C   UNL     1       1.873  13.226  20.459  0.00  0.00    +0.000 C 
ATOM      7  N   UNL     1       2.967  13.820  20.974  0.00  0.00    +0.000 N 
ATOM      8  C   UNL     1       0.021  10.480  20.230  0.00  0.00    +0.000 A 
ATOM      9  C   UNL     1       0.698   9.860  19.181  0.00  0.00    +0.000 A 
ATOM     10  C   UNL     1       1.449   8.731  19.487  0.00  0.00    +0.000 A 
ATOM     11 CL   UNL     1       2.519   8.088  18.300  0.00  0.00    +0.000 Cl
ATOM     12  C   UNL     1       1.455   8.207  20.789  0.00  0.00    +0.000 A 
ATOM     13  C   UNL     1       0.636   8.754  21.789  0.00  0.00    +0.000 A 
ATOM     14  C   UNL     1      -0.109   9.886  21.494  0.00  0.00    +0.000 A 
ATOM     15  C   UNL     1      -0.757  10.831  22.489  0.00  0.00    +0.000 C 
ATOM     16  C   UNL     1      -0.964  12.187  21.690  0.00  0.00    +0.000 C 
ATOM     17  C   UNL     1      -2.484  12.370  21.411  0.00  0.00    +0.000 C 
ATOM     18  C   UNL     1      -2.922  13.750  20.889  0.00  0.00    +0.000 C 
ATOM     19  C   UNL     1      -2.296  14.953  21.619  0.00  0.00    +0.000 C 
ATOM     20  C   UNL     1      -0.806  14.743  21.832  0.00  0.00    +0.000 C 
ATOM     21  C   UNL     1      -0.551  13.413  22.557  0.00  0.00    +0.000 C 
ATOM     22  H   UNL     1       3.220  13.293  21.816  0.00  0.00    +0.000 HD
ATOM     23  H   UNL     1       2.781  14.772  21.267  0.00  0.00    +0.000 HD
ENDROOT
BRANCH  19  24
ATOM     24  O   UNL     1      -2.797  15.163  22.939  0.00  0.00    +0.000 OA
ATOM     25  C   UNL     1      -4.200  15.267  23.042  0.00  0.00    +0.000 C 
ENDBRANCH  19  24
BRANCH   1  26
ATOM     26  C   UNL     1       1.497  14.816  18.580  0.00  0.00    +0.000 C 
BRANCH  26  27
ATOM     27  C   UNL     1       0.777  16.090  19.022  0.00  0.00    +0.000 C 
BRANCH  27  29
ATOM     28  C   UNL     1      -0.667  17.660  18.047  0.00  0.00    +0.000 C 
ATOM     29  O   UNL     1      -0.411  16.278  18.256  0.00  0.00    +0.000 OA
ENDBRANCH  27  29
ENDBRANCH  26  27
ENDBRANCH   1  26
TORSDOF 4
ENDMDL
MODEL 3
REMARK VINA RESULT:      -6.1      2.651      5.102
REMARK  Name = 
REMARK  6 active torsions:
REMARK  status: ('A' for Active; 'I' for Inactive)
REMARK    1  A    between atoms: C_1  and  O_2
REMARK    2  A    between atoms: O_2  and  C_3
REMARK    3  A    between atoms: C_3  and  C_4
REMARK    4  A    between atoms: C_4  and  N_5
REMARK    5  A    between atoms: C_23  and  O_24
REMARK    6  A    between atoms: O_24  and  C_25
REMARK                            x       y       z     vdW  Elec       q    Type
REMARK                         _______ _______ _______ _____ _____    ______ ____
ROOT
ATOM      1  N   UNL     1       1.392  13.790  19.505  0.00  0.00    +0.000 N 
ATOM      2  C   UNL     1       0.215  13.103  19.301  0.00  0.00    +0.000 C 
ATOM      3  O   UNL     1      -0.608  13.289  18.421  0.00  0.00    +0.000 OA
ATOM      4  C   UNL     1       0.112  12.110  20.455  0.00  0.00    +0.000 C 
ATOM      5  N   UNL     1       1.452  12.267  21.139  0.00  0.00    +0.000 NA
ATOM      6  C   UNL     1       2.004  13.290  20.590  0.00  0.00    +0.000 C 
ATOM      7  N   UNL     1       3.092  13.815  21.186  0.00  0.00    +0.000 N 
ATOM      8  C   UNL     1       0.063  10.635  20.138  0.00  0.00    +0.000 A 
ATOM      9  C   UNL     1       0.768  10.037  19.094  0.00  0.00    +0.000 A 
ATOM     10  C   UNL     1       1.459   8.866  19.381  0.00  0.00    +0.000 A 
ATOM     11 CL   UNL     1       2.562   8.236  18.217  0.00  0.00    +0.000 Cl
ATOM     12  C   UNL     1       1.379   8.282  20.654  0.00  0.00    +0.000 A 
ATOM     13  C   UNL     1       0.532   8.814  21.638  0.00  0.00    +0.000 A 
ATOM     14  C   UNL     1      -0.154   9.987  21.363  0.00  0.00    +0.000 A 
ATOM     15  C   UNL     1      -0.815  10.911  22.370  0.00  0.00    +0.000 C 
ATOM     16  C   UNL     1      -0.930  12.309  21.628  0.00  0.00    +0.000 C 
ATOM     17  C   UNL     1      -2.425  12.567  21.285  0.00  0.00    +0.000 C 
ATOM     18  C   UNL     1      -2.783  13.986  20.810  0.00  0.00    +0.000 C 
ATOM     19  C   UNL     1      -2.150  15.128  21.628  0.00  0.00    +0.000 C 
ATOM     20  C   UNL     1      -0.682  14.848  21.902  0.00  0.00    +0.000 C 
ATOM     21  C   UNL     1      -0.515  13.476  22.573  0.00  0.00    +0.000 C 
ATOM     22  H   UNL     1       3.282  13.240  22.012  0.00  0.00    +0.000 HD
ATOM     23  H   UNL     1       2.927  14.758  21.515  0.00  0.00    +0.000 HD
ENDROOT
BRANCH  19  24
ATOM     24  O   UNL     1      -2.709  15.295  22.930  0.00  0.00    +0.000 OA
ATOM     25  C   UNL     1      -4.103  15.507  22.965  0.00  0.00    +0.000 C 
ENDBRANCH  19  24
BRANCH   1  26
ATOM     26  C   UNL     1       1.784  14.980  18.774  0.00  0.00    +0.000 C 
BRANCH  26  27
ATOM     27  C   UNL     1       2.999  14.786  17.867  0.00  0.00    +0.000 C 
BRANCH  27  29
ATOM     28  C   UNL     1       4.223  16.495  18.908  0.00  0.00    +0.000 C 
ATOM     29  O   UNL     1       4.197  15.115  18.568  0.00  0.00    +0.000 OA
ENDBRANCH  27  29
ENDBRANCH  26  27
ENDBRANCH   1  26
TORSDOF 4
ENDMDL
MODEL 4
REMARK VINA RESULT:      -6.1      2.693      5.320
REMARK  Name = 
REMARK  6 active torsions:
REMARK  status: ('A' for Active; 'I' for Inactive)
REMARK    1  A    between atoms: C_1  and  O_2
REMARK    2  A    between atoms: O_2  and  C_3
REMARK    3  A    between atoms: C_3  and  C_4
REMARK    4  A    between atoms: C_4  and  N_5
REMARK    5  A    between atoms: C_23  and  O_24
REMARK    6  A    between atoms: O_24  and  C_25
REMARK                            x       y       z     vdW  Elec       q    Type
REMARK                         _______ _______ _______ _____ _____    ______ ____
ROOT
ATOM      1  N   UNL     1       0.345  13.840  19.808  0.00  0.00    +0.000 N 
ATOM      2  C   UNL     1      -0.743  12.996  19.827  0.00  0.00    +0.000 C 
ATOM      3  O   UNL     1      -1.705  13.010  19.078  0.00  0.00    +0.000 OA
ATOM      4  C   UNL     1      -0.538  12.085  21.035  0.00  0.00    +0.000 C 
ATOM      5  N   UNL     1       0.854  12.462  21.492  0.00  0.00    +0.000 NA
ATOM      6  C   UNL     1       1.173  13.503  20.809  0.00  0.00    +0.000 C 
ATOM      7  N   UNL     1       2.255  14.205  21.199  0.00  0.00    +0.000 N 
ATOM      8  C   UNL     1      -0.430  10.596  20.808  0.00  0.00    +0.000 A 
ATOM      9  C   UNL     1       0.189  10.018  19.700  0.00  0.00    +0.000 A 
ATOM     10  C   UNL     1       1.068   8.969  19.938  0.00  0.00    +0.000 A 
ATOM     11 CL   UNL     1       2.064   8.401  18.651  0.00  0.00    +0.000 Cl
ATOM     12  C   UNL     1       1.259   8.475  21.237  0.00  0.00    +0.000 A 
ATOM     13  C   UNL     1       0.501   8.965  22.312  0.00  0.00    +0.000 A 
ATOM     14  C   UNL     1      -0.372  10.018  22.085  0.00  0.00    +0.000 A 
ATOM     15  C   UNL     1      -0.998  10.921  23.132  0.00  0.00    +0.000 C 
ATOM     16  C   UNL     1      -1.412  12.236  22.344  0.00  0.00    +0.000 C 
ATOM     17  C   UNL     1      -2.963  12.274  22.225  0.00  0.00    +0.000 C 
ATOM     18  C   UNL     1      -3.579  13.598  21.737  0.00  0.00    +0.000 C 
ATOM     19  C   UNL     1      -2.994  14.867  22.384  0.00  0.00    +0.000 C 
ATOM     20  C   UNL     1      -1.478  14.799  22.440  0.00  0.00    +0.000 C 
ATOM     21  C   UNL     1      -1.026  13.512  23.149  0.00  0.00    +0.000 C 
ATOM     22  H   UNL     1       2.642  13.721  22.015  0.00  0.00    +0.000 HD
ATOM     23  H   UNL     1       2.013  15.142  21.500  0.00  0.00    +0.000 HD
ENDROOT
BRANCH  19  24
ATOM     24  O   UNL     1      -3.373  15.058  23.746  0.00  0.00    +0.000 OA
ATOM     25  C   UNL     1      -4.584  15.754  23.944  0.00  0.00    +0.000 C 
ENDBRANCH  19  24
BRANCH   1  26
ATOM     26  C   UNL     1       0.458  15.013  18.962  0.00  0.00    +0.000 C 
BRANCH  26  27
ATOM     27  C   UNL     1      -0.177  16.273  19.551  0.00  0.00    +0.000 C 
BRANCH  27  29
ATOM     28  C   UNL     1       1.722  17.633  19.762  0.00  0.00    +0.000 C 
ATOM     29  O   UNL     1       0.724  16.901  20.461  0.00  0.00    +0.000 OA
ENDBRANCH  27  29
ENDBRANCH  26  27
ENDBRANCH   1  26
TORSDOF 4
ENDMDL
MODEL 5
REMARK VINA RESULT:      -6.0      1.266      1.615
REMARK  Name = 
REMARK  6 active torsions:
REMARK  status: ('A' for Active; 'I' for Inactive)
REMARK    1  A    between atoms: C_1  and  O_2
REMARK    2  A    between atoms: O_2  and  C_3
REMARK    3  A    between atoms: C_3  and  C_4
REMARK    4  A    between atoms: C_4  and  N_5
REMARK    5  A    between atoms: C_23  and  O_24
REMARK    6  A    between atoms: O_24  and  C_25
REMARK                            x       y       z     vdW  Elec       q    Type
REMARK                         _______ _______ _______ _____ _____    ______ ____
ROOT
ATOM      1  N   UNL     1       0.391  12.093  19.593  0.00  0.00    +0.000 N 
ATOM      2  C   UNL     1       0.613  13.045  20.563  0.00  0.00    +0.000 C 
ATOM      3  O   UNL     1       1.304  12.939  21.562  0.00  0.00    +0.000 OA
ATOM      4  C   UNL     1      -0.252  14.241  20.173  0.00  0.00    +0.000 C 
ATOM      5  N   UNL     1      -0.777  13.831  18.815  0.00  0.00    +0.000 NA
ATOM      6  C   UNL     1      -0.442  12.598  18.671  0.00  0.00    +0.000 C 
ATOM      7  N   UNL     1      -1.010  11.905  17.665  0.00  0.00    +0.000 N 
ATOM      8  C   UNL     1       0.424  15.561  19.892  0.00  0.00    +0.000 A 
ATOM      9  C   UNL     1       1.667  15.686  19.273  0.00  0.00    +0.000 A 
ATOM     10  C   UNL     1       1.779  16.626  18.255  0.00  0.00    +0.000 A 
ATOM     11 CL   UNL     1       3.196  16.635  17.274  0.00  0.00    +0.000 Cl
ATOM     12  C   UNL     1       0.698  17.458  17.927  0.00  0.00    +0.000 A 
ATOM     13  C   UNL     1      -0.489  17.425  18.674  0.00  0.00    +0.000 A 
ATOM     14  C   UNL     1      -0.612  16.484  19.686  0.00  0.00    +0.000 A 
ATOM     15  C   UNL     1      -1.898  16.035  20.357  0.00  0.00    +0.000 C 
ATOM     16  C   UNL     1      -1.560  14.615  20.980  0.00  0.00    +0.000 C 
ATOM     17  C   UNL     1      -1.486  14.757  22.527  0.00  0.00    +0.000 C 
ATOM     18  C   UNL     1      -1.441  13.447  23.333  0.00  0.00    +0.000 C 
ATOM     19  C   UNL     1      -2.435  12.363  22.876  0.00  0.00    +0.000 C 
ATOM     20  C   UNL     1      -2.441  12.236  21.362  0.00  0.00    +0.000 C 
ATOM     21  C   UNL     1      -2.711  13.601  20.710  0.00  0.00    +0.000 C 
ATOM     22  H   UNL     1      -1.630  12.554  17.172  0.00  0.00    +0.000 HD
ATOM     23  H   UNL     1      -1.588  11.145  18.005  0.00  0.00    +0.000 HD
ENDROOT
BRANCH  19  24
ATOM     24  O   UNL     1      -3.797  12.648  23.193  0.00  0.00    +0.000 OA
ATOM     25  C   UNL     1      -4.145  12.494  24.552  0.00  0.00    +0.000 C 
ENDBRANCH  19  24
BRANCH   1  26
ATOM     26  C   UNL     1       0.837  10.715  19.679  0.00  0.00    +0.000 C 
BRANCH  26  27
ATOM     27  C   UNL     1       0.011   9.848  20.629  0.00  0.00    +0.000 C 
BRANCH  27  29
ATOM     28  C   UNL     1       0.034   9.619  22.963  0.00  0.00    +0.000 C 
ATOM     29  O   UNL     1       0.789   9.480  21.766  0.00  0.00    +0.000 OA
ENDBRANCH  27  29
ENDBRANCH  26  27
ENDBRANCH   1  26
TORSDOF 4
ENDMDL
MODEL 6
REMARK VINA RESULT:      -5.9      1.146      1.542
REMARK  Name = 
REMARK  6 active torsions:
REMARK  status: ('A' for Active; 'I' for Inactive)
REMARK    1  A    between atoms: C_1  and  O_2
REMARK    2  A    between atoms: O_2  and  C_3
REMARK    3  A    between atoms: C_3  and  C_4
REMARK    4  A    between atoms: C_4  and  N_5
REMARK    5  A    between atoms: C_23  and  O_24
REMARK    6  A    between atoms: O_24  and  C_25
REMARK                            x       y       z     vdW  Elec       q    Type
REMARK                         _______ _______ _______ _____ _____    ______ ____
ROOT
ATOM      1  N   UNL     1       0.192  11.898  19.038  0.00  0.00    +0.000 N 
ATOM      2  C   UNL     1       0.704  12.388  20.220  0.00  0.00    +0.000 C 
ATOM      3  O   UNL     1       1.257  11.759  21.105  0.00  0.00    +0.000 OA
ATOM      4  C   UNL     1       0.362  13.876  20.232  0.00  0.00    +0.000 C 
ATOM      5  N   UNL     1      -0.212  14.087  18.849  0.00  0.00    +0.000 NA
ATOM      6  C   UNL     1      -0.351  12.912  18.347  0.00  0.00    +0.000 C 
ATOM      7  N   UNL     1      -1.086  12.789  17.225  0.00  0.00    +0.000 N 
ATOM      8  C   UNL     1       1.491  14.877  20.288  0.00  0.00    +0.000 A 
ATOM      9  C   UNL     1       2.720  14.704  19.653  0.00  0.00    +0.000 A 
ATOM     10  C   UNL     1       3.221  15.782  18.932  0.00  0.00    +0.000 A 
ATOM     11 CL   UNL     1       4.585  15.544  17.907  0.00  0.00    +0.000 Cl
ATOM     12  C   UNL     1       2.541  17.009  18.916  0.00  0.00    +0.000 A 
ATOM     13  C   UNL     1       1.392  17.206  19.697  0.00  0.00    +0.000 A 
ATOM     14  C   UNL     1       0.881  16.133  20.412  0.00  0.00    +0.000 A 
ATOM     15  C   UNL     1      -0.509  16.020  21.009  0.00  0.00    +0.000 C 
ATOM     16  C   UNL     1      -0.751  14.462  21.190  0.00  0.00    +0.000 C 
ATOM     17  C   UNL     1      -0.704  14.126  22.709  0.00  0.00    +0.000 C 
ATOM     18  C   UNL     1      -1.185  12.721  23.113  0.00  0.00    +0.000 C 
ATOM     19  C   UNL     1      -2.487  12.255  22.435  0.00  0.00    +0.000 C 
ATOM     20  C   UNL     1      -2.467  12.570  20.948  0.00  0.00    +0.000 C 
ATOM     21  C   UNL     1      -2.182  14.062  20.721  0.00  0.00    +0.000 C 
ATOM     22  H   UNL     1      -1.398  13.732  16.971  0.00  0.00    +0.000 HD
ATOM     23  H   UNL     1      -1.919  12.233  17.375  0.00  0.00    +0.000 HD
ENDROOT
BRANCH  19  24
ATOM     24  O   UNL     1      -3.661  12.919  22.902  0.00  0.00    +0.000 OA
ATOM     25  C   UNL     1      -4.081  12.559  24.200  0.00  0.00    +0.000 C 
ENDBRANCH  19  24
BRANCH   1  26
ATOM     26  C   UNL     1       0.091  10.488  18.710  0.00  0.00    +0.000 C 
BRANCH  26  27
ATOM     27  C   UNL     1      -1.339   9.951  18.688  0.00  0.00    +0.000 C 
BRANCH  27  29
ATOM     28  C   UNL     1      -3.188   9.799  17.252  0.00  0.00    +0.000 C 
ATOM     29  O   UNL     1      -1.770   9.748  17.344  0.00  0.00    +0.000 OA
ENDBRANCH  27  29
ENDBRANCH  26  27
ENDBRANCH   1  26
TORSDOF 4
ENDMDL
MODEL 7
REMARK VINA RESULT:      -5.8      2.604      4.909
REMARK  Name = 
REMARK  6 active torsions:
REMARK  status: ('A' for Active; 'I' for Inactive)
REMARK    1  A    between atoms: C_1  and  O_2
REMARK    2  A    between atoms: O_2  and  C_3
REMARK    3  A    between atoms: C_3  and  C_4
REMARK    4  A    between atoms: C_4  and  N_5
REMARK    5  A    between atoms: C_23  and  O_24
REMARK    6  A    between atoms: O_24  and  C_25
REMARK                            x       y       z     vdW  Elec       q    Type
REMARK                         _______ _______ _______ _____ _____    ______ ____
ROOT
ATOM      1  N   UNL     1       0.214  14.201  20.191  0.00  0.00    +0.000 N 
ATOM      2  C   UNL     1      -0.868  13.355  20.095  0.00  0.00    +0.000 C 
ATOM      3  O   UNL     1      -1.821  13.454  19.340  0.00  0.00    +0.000 OA
ATOM      4  C   UNL     1      -0.672  12.307  21.187  0.00  0.00    +0.000 C 
ATOM      5  N   UNL     1       0.711  12.633  21.704  0.00  0.00    +0.000 NA
ATOM      6  C   UNL     1       1.032  13.751  21.156  0.00  0.00    +0.000 C 
ATOM      7  N   UNL     1       2.104  14.406  21.642  0.00  0.00    +0.000 N 
ATOM      8  C   UNL     1      -0.551  10.857  20.785  0.00  0.00    +0.000 A 
ATOM      9  C   UNL     1       0.085  10.419  19.624  0.00  0.00    +0.000 A 
ATOM     10  C   UNL     1       0.968   9.353  19.746  0.00  0.00    +0.000 A 
ATOM     11 CL   UNL     1       1.984   8.948  18.415  0.00  0.00    +0.000 Cl
ATOM     12  C   UNL     1       1.145   8.708  20.980  0.00  0.00    +0.000 A 
ATOM     13  C   UNL     1       0.371   9.062  22.095  0.00  0.00    +0.000 A 
ATOM     14  C   UNL     1      -0.507  10.131  21.984  0.00  0.00    +0.000 A 
ATOM     15  C   UNL     1      -1.151  10.898  23.123  0.00  0.00    +0.000 C 
ATOM     16  C   UNL     1      -1.564  12.295  22.493  0.00  0.00    +0.000 C 
ATOM     17  C   UNL     1      -3.114  12.340  22.358  0.00  0.00    +0.000 C 
ATOM     18  C   UNL     1      -3.732  13.709  22.025  0.00  0.00    +0.000 C 
ATOM     19  C   UNL     1      -3.164  14.896  22.826  0.00  0.00    +0.000 C 
ATOM     20  C   UNL     1      -1.648  14.828  22.894  0.00  0.00    +0.000 C 
ATOM     21  C   UNL     1      -1.197  13.468  23.450  0.00  0.00    +0.000 C 
ATOM     22  H   UNL     1       2.484  13.830  22.399  0.00  0.00    +0.000 HD
ATOM     23  H   UNL     1       1.852  15.299  22.049  0.00  0.00    +0.000 HD
ENDROOT
BRANCH  19  24
ATOM     24  O   UNL     1      -3.561  14.919  24.197  0.00  0.00    +0.000 OA
ATOM     25  C   UNL     1      -3.594  16.198  24.793  0.00  0.00    +0.000 C 
ENDBRANCH  19  24
BRANCH   1  26
ATOM     26  C   UNL     1       0.331  15.468  19.494  0.00  0.00    +0.000 C 
BRANCH  26  27
ATOM     27  C   UNL     1       1.591  15.599  18.640  0.00  0.00    +0.000 C 
BRANCH  27  29
ATOM     28  C   UNL     1       3.525  14.324  18.269  0.00  0.00    +0.000 C 
ATOM     29  O   UNL     1       2.104  14.308  18.315  0.00  0.00    +0.000 OA
ENDBRANCH  27  29
ENDBRANCH  26  27
ENDBRANCH   1  26
TORSDOF 4
ENDMDL
MODEL 8
REMARK VINA RESULT:      -5.6      2.668      5.682
REMARK  Name = 
REMARK  6 active torsions:
REMARK  status: ('A' for Active; 'I' for Inactive)
REMARK    1  A    between atoms: C_1  and  O_2
REMARK    2  A    between atoms: O_2  and  C_3
REMARK    3  A    between atoms: C_3  and  C_4
REMARK    4  A    between atoms: C_4  and  N_5
REMARK    5  A    between atoms: C_23  and  O_24
REMARK    6  A    between atoms: O_24  and  C_25
REMARK                            x       y       z     vdW  Elec       q    Type
REMARK                         _______ _______ _______ _____ _____    ______ ____
ROOT
ATOM      1  N   UNL     1      -1.956  13.144  21.551  0.00  0.00    +0.000 N 
ATOM      2  C   UNL     1      -0.597  13.243  21.751  0.00  0.00    +0.000 C 
ATOM      3  O   UNL     1      -0.022  13.596  22.766  0.00  0.00    +0.000 OA
ATOM      4  C   UNL     1       0.044  12.898  20.409  0.00  0.00    +0.000 C 
ATOM      5  N   UNL     1      -1.144  12.447  19.590  0.00  0.00    +0.000 NA
ATOM      6  C   UNL     1      -2.181  12.737  20.292  0.00  0.00    +0.000 C 
ATOM      7  N   UNL     1      -3.385  12.685  19.690  0.00  0.00    +0.000 N 
ATOM      8  C   UNL     1       0.976  11.712  20.337  0.00  0.00    +0.000 A 
ATOM      9  C   UNL     1       0.802  10.537  21.067  0.00  0.00    +0.000 A 
ATOM     10  C   UNL     1       0.942   9.336  20.382  0.00  0.00    +0.000 A 
ATOM     11 CL   UNL     1       0.472   7.869  21.155  0.00  0.00    +0.000 Cl
ATOM     12  C   UNL     1       1.314   9.323  19.030  0.00  0.00    +0.000 A 
ATOM     13  C   UNL     1       1.643  10.512  18.362  0.00  0.00    +0.000 A 
ATOM     14  C   UNL     1       1.498  11.716  19.036  0.00  0.00    +0.000 A 
ATOM     15  C   UNL     1       1.443  13.101  18.419  0.00  0.00    +0.000 C 
ATOM     16  C   UNL     1       0.721  14.005  19.506  0.00  0.00    +0.000 C 
ATOM     17  C   UNL     1       1.775  14.962  20.134  0.00  0.00    +0.000 C 
ATOM     18  C   UNL     1       1.226  16.102  21.010  0.00  0.00    +0.000 C 
ATOM     19  C   UNL     1       0.010  16.847  20.428  0.00  0.00    +0.000 C 
ATOM     20  C   UNL     1      -1.006  15.868  19.864  0.00  0.00    +0.000 C 
ATOM     21  C   UNL     1      -0.340  14.933  18.843  0.00  0.00    +0.000 C 
ATOM     22  H   UNL     1      -3.219  12.388  18.724  0.00  0.00    +0.000 HD
ATOM     23  H   UNL     1      -3.829  13.594  19.646  0.00  0.00    +0.000 HD
ENDROOT
BRANCH  19  24
ATOM     24  O   UNL     1       0.316  17.689  19.318  0.00  0.00    +0.000 OA
ATOM     25  C   UNL     1       1.343  18.631  19.540  0.00  0.00    +0.000 C 
ENDBRANCH  19  24
BRANCH   1  26
ATOM     26  C   UNL     1      -2.960  13.599  22.495  0.00  0.00    +0.000 C 
BRANCH  26  27
ATOM     27  C   UNL     1      -3.353  12.556  23.541  0.00  0.00    +0.000 C 
BRANCH  27  29
ATOM     28  C   UNL     1      -5.444  13.299  22.780  0.00  0.00    +0.000 C 
ATOM     29  O   UNL     1      -4.743  12.251  23.436  0.00  0.00    +0.000 OA
ENDBRANCH  27  29
ENDBRANCH  26  27
ENDBRANCH   1  26
TORSDOF 4
ENDMDL
MODEL 9
REMARK VINA RESULT:      -5.5      3.026      5.796
REMARK  Name = 
REMARK  6 active torsions:
REMARK  status: ('A' for Active; 'I' for Inactive)
REMARK    1  A    between atoms: C_1  and  O_2
REMARK    2  A    between atoms: O_2  and  C_3
REMARK    3  A    between atoms: C_3  and  C_4
REMARK    4  A    between atoms: C_4  and  N_5
REMARK    5  A    between atoms: C_23  and  O_24
REMARK    6  A    between atoms: O_24  and  C_25
REMARK                            x       y       z     vdW  Elec       q    Type
REMARK                         _______ _______ _______ _____ _____    ______ ____
ROOT
ATOM      1  N   UNL     1       0.101  15.352  20.682  0.00  0.00    +0.000 N 
ATOM      2  C   UNL     1       0.331  14.418  21.668  0.00  0.00    +0.000 C 
ATOM      3  O   UNL     1       1.405  13.965  22.023  0.00  0.00    +0.000 OA
ATOM      4  C   UNL     1      -1.049  14.003  22.172  0.00  0.00    +0.000 C 
ATOM      5  N   UNL     1      -1.962  14.968  21.449  0.00  0.00    +0.000 NA
ATOM      6  C   UNL     1      -1.220  15.569  20.588  0.00  0.00    +0.000 C 
ATOM      7  N   UNL     1      -1.829  16.293  19.629  0.00  0.00    +0.000 N 
ATOM      8  C   UNL     1      -1.388  14.238  23.625  0.00  0.00    +0.000 A 
ATOM      9  C   UNL     1      -0.955  15.341  24.359  0.00  0.00    +0.000 A 
ATOM     10  C   UNL     1      -1.901  15.999  25.136  0.00  0.00    +0.000 A 
ATOM     11 CL   UNL     1      -1.497  17.518  25.842  0.00  0.00    +0.000 Cl
ATOM     12  C   UNL     1      -3.216  15.517  25.223  0.00  0.00    +0.000 A 
ATOM     13  C   UNL     1      -3.584  14.313  24.605  0.00  0.00    +0.000 A 
ATOM     14  C   UNL     1      -2.648  13.654  23.822  0.00  0.00    +0.000 A 
ATOM     15  C   UNL     1      -2.925  12.570  22.797  0.00  0.00    +0.000 C 
ATOM     16  C   UNL     1      -1.662  12.585  21.834  0.00  0.00    +0.000 C 
ATOM     17  C   UNL     1      -0.819  11.306  22.102  0.00  0.00    +0.000 C 
ATOM     18  C   UNL     1       0.295  10.996  21.086  0.00  0.00    +0.000 C 
ATOM     19  C   UNL     1      -0.107  11.152  19.607  0.00  0.00    +0.000 C 
ATOM     20  C   UNL     1      -0.893  12.434  19.391  0.00  0.00    +0.000 C 
ATOM     21  C   UNL     1      -2.099  12.490  20.342  0.00  0.00    +0.000 C 
ATOM     22  H   UNL     1      -2.836  16.224  19.802  0.00  0.00    +0.000 HD
ATOM     23  H   UNL     1      -1.662  15.916  18.704  0.00  0.00    +0.000 HD
ENDROOT
BRANCH  19  24
ATOM     24  O   UNL     1      -0.987  10.135  19.130  0.00  0.00    +0.000 OA
ATOM     25  C   UNL     1      -1.161  10.096  17.730  0.00  0.00    +0.000 C 
ENDBRANCH  19  24
BRANCH   1  26
ATOM     26  C   UNL     1       1.116  15.855  19.776  0.00  0.00    +0.000 C 
BRANCH  26  27
ATOM     27  C   UNL     1       1.713  17.200  20.189  0.00  0.00    +0.000 C 
BRANCH  27  29
ATOM     28  C   UNL     1       1.219  17.725  17.956  0.00  0.00    +0.000 C 
ATOM     29  O   UNL     1       2.120  17.935  19.036  0.00  0.00    +0.000 OA
ENDBRANCH  27  29
ENDBRANCH  26  27
ENDBRANCH   1  26
TORSDOF 4
ENDMDL
