MODEL 1
REMARK VINA RESULT:      -7.5      0.000      0.000
REMARK  Name = 
REMARK  15 active torsions:
REMARK  status: ('A' for Active; 'I' for Inactive)
REMARK    1  A    between atoms: C_1  and  C_2
REMARK    2  A    between atoms: C_2  and  C_3
REMARK    3  A    between atoms: C_2  and  C_4
REMARK    4  A    between atoms: C_4  and  C_5
REMARK    5  A    between atoms: C_5  and  C_6
REMARK    6  A    between atoms: C_6  and  C_8
REMARK    7  A    between atoms: C_8  and  C_9
REMARK    8  A    between atoms: C_8  and  C_10
REMARK    9  A    between atoms: C_10  and  C_11
REMARK   10  A    between atoms: C_11  and  C_12
REMARK   11  A    between atoms: C_12  and  C_13
REMARK   12  A    between atoms: C_13  and  C_14
REMARK   13  A    between atoms: C_17  and  C_18
REMARK   14  A    between atoms: C_18  and  C_19
REMARK   15  A    between atoms: C_19  and  O_21
REMARK                            x       y       z     vdW  Elec       q    Type
REMARK                         _______ _______ _______ _____ _____    ______ ____
ROOT
ATOM      1  C   UNL     1       2.727   6.150  19.047  0.00  0.00    +0.000 C 
ATOM      2  C   UNL     1       2.147   7.122  20.098  0.00  0.00    +0.000 C 
ATOM      3  O   UNL     1       3.916   5.586  19.629  0.00  0.00    +0.000 OA
ATOM      4  C   UNL     1       4.281   4.298  19.115  0.00  0.00    +0.000 C 
ATOM      5  C   UNL     1       3.101   3.286  19.016  0.00  0.00    +0.000 C 
ATOM      6  C   UNL     1       2.453   3.122  17.637  0.00  0.00    +0.000 C 
ATOM      7  C   UNL     1       1.651   4.387  17.446  0.00  0.00    +0.000 C 
ATOM      8  C   UNL     1       1.652   5.026  18.828  0.00  0.00    +0.000 C 
ATOM      9  O   UNL     1       1.977   3.891  19.715  0.00  0.00    +0.000 OA
ENDROOT
BRANCH   1  10
ATOM     10  C   UNL     1       3.172   6.981  17.801  0.00  0.00    +0.000 C 
BRANCH  10  11
ATOM     11  C   UNL     1       4.662   6.746  17.454  0.00  0.00    +0.000 C 
BRANCH  11  12
ATOM     12  C   UNL     1       4.967   5.792  16.295  0.00  0.00    +0.000 C 
BRANCH  12  13
ATOM     13  C   UNL     1       6.403   5.260  16.296  0.00  0.00    +0.000 C 
ATOM     14  C   UNL     1       7.384   6.263  16.889  0.00  0.00    +0.000 C 
BRANCH  13  15
ATOM     15  C   UNL     1       6.850   4.833  14.899  0.00  0.00    +0.000 C 
ATOM     16  O   UNL     1       7.764   5.443  14.338  0.00  0.00    +0.000 OA
BRANCH  15  17
ATOM     17  C   UNL     1       6.175   3.623  14.259  0.00  0.00    +0.000 C 
BRANCH  17  18
ATOM     18  C   UNL     1       6.120   3.758  12.738  0.00  0.00    +0.000 C 
BRANCH  18  20
ATOM     19  C   UNL     1       4.215   3.259  11.206  0.00  0.00    +0.000 C 
ATOM     20  C   UNL     1       5.347   2.635  12.026  0.00  0.00    +0.000 C 
ATOM     21  C   UNL     1       6.238   1.783  11.120  0.00  0.00    +0.000 C 
ENDBRANCH  18  20
ENDBRANCH  17  18
ENDBRANCH  15  17
ENDBRANCH  13  15
ENDBRANCH  12  13
ENDBRANCH  11  12
ENDBRANCH  10  11
ENDBRANCH   1  10
BRANCH   5  22
ATOM     22  C   UNL     1       3.536   1.921  19.568  0.00  0.00    +0.000 C 
BRANCH  22  23
ATOM     23  C   UNL     1       3.917   2.021  21.036  0.00  0.00    +0.000 C 
ATOM     24  O   UNL     1       3.168   2.288  21.952  0.00  0.00    +0.000 OA
BRANCH  23  25
ATOM     25  O   UNL     1       5.225   1.761  21.260  0.00  0.00    +0.000 OA
ATOM     26  H   UNL     1       5.790   1.819  20.468  0.00  0.00    +0.000 HD
ENDBRANCH  23  25
ENDBRANCH  22  23
ENDBRANCH   5  22
TORSDOF 11
ENDMDL
MODEL 2
REMARK VINA RESULT:      -7.4      4.625      7.260
REMARK  Name = 
REMARK  15 active torsions:
REMARK  status: ('A' for Active; 'I' for Inactive)
REMARK    1  A    between atoms: C_1  and  C_2
REMARK    2  A    between atoms: C_2  and  C_3
REMARK    3  A    between atoms: C_2  and  C_4
REMARK    4  A    between atoms: C_4  and  C_5
REMARK    5  A    between atoms: C_5  and  C_6
REMARK    6  A    between atoms: C_6  and  C_8
REMARK    7  A    between atoms: C_8  and  C_9
REMARK    8  A    between atoms: C_8  and  C_10
REMARK    9  A    between atoms: C_10  and  C_11
REMARK   10  A    between atoms: C_11  and  C_12
REMARK   11  A    between atoms: C_12  and  C_13
REMARK   12  A    between atoms: C_13  and  C_14
REMARK   13  A    between atoms: C_17  and  C_18
REMARK   14  A    between atoms: C_18  and  C_19
REMARK   15  A    between atoms: C_19  and  O_21
REMARK                            x       y       z     vdW  Elec       q    Type
REMARK                         _______ _______ _______ _____ _____    ______ ____
ROOT
ATOM      1  C   UNL     1       6.589   5.628  17.891  0.00  0.00    +0.000 C 
ATOM      2  C   UNL     1       7.873   5.183  18.625  0.00  0.00    +0.000 C 
ATOM      3  O   UNL     1       6.410   4.712  16.795  0.00  0.00    +0.000 OA
ATOM      4  C   UNL     1       5.055   4.568  16.349  0.00  0.00    +0.000 C 
ATOM      5  C   UNL     1       4.018   4.371  17.495  0.00  0.00    +0.000 C 
ATOM      6  C   UNL     1       3.237   5.615  17.935  0.00  0.00    +0.000 C 
ATOM      7  C   UNL     1       4.242   6.434  18.709  0.00  0.00    +0.000 C 
ATOM      8  C   UNL     1       5.407   5.475  18.914  0.00  0.00    +0.000 C 
ATOM      9  O   UNL     1       4.783   4.152  18.713  0.00  0.00    +0.000 OA
ENDROOT
BRANCH   1  10
ATOM     10  C   UNL     1       6.838   7.041  17.276  0.00  0.00    +0.000 C 
BRANCH  10  11
ATOM     11  C   UNL     1       7.940   7.816  18.038  0.00  0.00    +0.000 C 
BRANCH  11  12
ATOM     12  C   UNL     1       8.030   9.325  17.791  0.00  0.00    +0.000 C 
BRANCH  12  13
ATOM     13  C   UNL     1       9.206   9.998  18.506  0.00  0.00    +0.000 C 
ATOM     14  C   UNL     1       8.985  10.085  20.011  0.00  0.00    +0.000 C 
BRANCH  13  15
ATOM     15  C   UNL     1       9.507  11.378  17.925  0.00  0.00    +0.000 C 
ATOM     16  O   UNL     1       8.582  12.168  17.719  0.00  0.00    +0.000 OA
BRANCH  15  17
ATOM     17  C   UNL     1      10.963  11.754  17.664  0.00  0.00    +0.000 C 
BRANCH  17  18
ATOM     18  C   UNL     1      11.759  11.827  18.966  0.00  0.00    +0.000 C 
BRANCH  18  20
ATOM     19  C   UNL     1      11.750  14.270  18.461  0.00  0.00    +0.000 C 
ATOM     20  C   UNL     1      11.842  13.233  19.584  0.00  0.00    +0.000 C 
ATOM     21  C   UNL     1      10.748  13.491  20.622  0.00  0.00    +0.000 C 
ENDBRANCH  18  20
ENDBRANCH  17  18
ENDBRANCH  15  17
ENDBRANCH  13  15
ENDBRANCH  12  13
ENDBRANCH  11  12
ENDBRANCH  10  11
ENDBRANCH   1  10
BRANCH   5  22
ATOM     22  C   UNL     1       3.052   3.233  17.135  0.00  0.00    +0.000 C 
BRANCH  22  23
ATOM     23  C   UNL     1       3.054   2.155  18.205  0.00  0.00    +0.000 C 
ATOM     24  O   UNL     1       2.183   1.963  19.028  0.00  0.00    +0.000 OA
BRANCH  23  25
ATOM     25  O   UNL     1       4.154   1.370  18.161  0.00  0.00    +0.000 OA
ATOM     26  H   UNL     1       3.971   0.414  18.206  0.00  0.00    +0.000 HD
ENDBRANCH  23  25
ENDBRANCH  22  23
ENDBRANCH   5  22
TORSDOF 11
ENDMDL
MODEL 3
REMARK VINA RESULT:      -7.4      4.150      7.108
REMARK  Name = 
REMARK  15 active torsions:
REMARK  status: ('A' for Active; 'I' for Inactive)
REMARK    1  A    between atoms: C_1  and  C_2
REMARK    2  A    between atoms: C_2  and  C_3
REMARK    3  A    between atoms: C_2  and  C_4
REMARK    4  A    between atoms: C_4  and  C_5
REMARK    5  A    between atoms: C_5  and  C_6
REMARK    6  A    between atoms: C_6  and  C_8
REMARK    7  A    between atoms: C_8  and  C_9
REMARK    8  A    between atoms: C_8  and  C_10
REMARK    9  A    between atoms: C_10  and  C_11
REMARK   10  A    between atoms: C_11  and  C_12
REMARK   11  A    between atoms: C_12  and  C_13
REMARK   12  A    between atoms: C_13  and  C_14
REMARK   13  A    between atoms: C_17  and  C_18
REMARK   14  A    between atoms: C_18  and  C_19
REMARK   15  A    between atoms: C_19  and  O_21
REMARK                            x       y       z     vdW  Elec       q    Type
REMARK                         _______ _______ _______ _____ _____    ______ ____
ROOT
ATOM      1  C   UNL     1       2.958   6.388  18.122  0.00  0.00    +0.000 C 
ATOM      2  C   UNL     1       4.264   7.028  17.601  0.00  0.00    +0.000 C 
ATOM      3  O   UNL     1       2.786   5.163  17.387  0.00  0.00    +0.000 OA
ATOM      4  C   UNL     1       2.011   4.163  18.062  0.00  0.00    +0.000 C 
ATOM      5  C   UNL     1       2.406   3.940  19.553  0.00  0.00    +0.000 C 
ATOM      6  C   UNL     1       1.538   4.640  20.604  0.00  0.00    +0.000 C 
ATOM      7  C   UNL     1       1.930   6.095  20.506  0.00  0.00    +0.000 C 
ATOM      8  C   UNL     1       3.185   6.072  19.644  0.00  0.00    +0.000 C 
ATOM      9  O   UNL     1       3.644   4.674  19.768  0.00  0.00    +0.000 OA
ENDROOT
BRANCH   1  10
ATOM     10  C   UNL     1       1.766   7.324  17.744  0.00  0.00    +0.000 C 
BRANCH  10  11
ATOM     11  C   UNL     1       2.095   8.812  18.012  0.00  0.00    +0.000 C 
BRANCH  11  12
ATOM     12  C   UNL     1       1.136   9.586  18.921  0.00  0.00    +0.000 C 
BRANCH  12  13
ATOM     13  C   UNL     1       0.690  10.933  18.344  0.00  0.00    +0.000 C 
ATOM     14  C   UNL     1       1.610  12.070  18.772  0.00  0.00    +0.000 C 
BRANCH  13  15
ATOM     15  C   UNL     1      -0.760  11.251  18.704  0.00  0.00    +0.000 C 
ATOM     16  O   UNL     1      -1.038  12.340  19.213  0.00  0.00    +0.000 OA
BRANCH  15  17
ATOM     17  C   UNL     1      -1.833  10.218  18.370  0.00  0.00    +0.000 C 
BRANCH  17  18
ATOM     18  C   UNL     1      -1.854   9.903  16.876  0.00  0.00    +0.000 C 
BRANCH  18  20
ATOM     19  C   UNL     1      -3.051  10.170  14.703  0.00  0.00    +0.000 C 
ATOM     20  C   UNL     1      -2.732  10.849  16.038  0.00  0.00    +0.000 C 
ATOM     21  C   UNL     1      -4.030  11.238  16.747  0.00  0.00    +0.000 C 
ENDBRANCH  18  20
ENDBRANCH  17  18
ENDBRANCH  15  17
ENDBRANCH  13  15
ENDBRANCH  12  13
ENDBRANCH  11  12
ENDBRANCH  10  11
ENDBRANCH   1  10
BRANCH   5  22
ATOM     22  C   UNL     1       2.497   2.436  19.850  0.00  0.00    +0.000 C 
BRANCH  22  23
ATOM     23  C   UNL     1       3.716   1.820  19.183  0.00  0.00    +0.000 C 
ATOM     24  O   UNL     1       3.711   1.127  18.187  0.00  0.00    +0.000 OA
BRANCH  23  25
ATOM     25  O   UNL     1       4.873   2.130  19.810  0.00  0.00    +0.000 OA
ATOM     26  H   UNL     1       5.669   2.046  19.254  0.00  0.00    +0.000 HD
ENDBRANCH  23  25
ENDBRANCH  22  23
ENDBRANCH   5  22
TORSDOF 11
ENDMDL
MODEL 4
REMARK VINA RESULT:      -7.3      3.858      7.166
REMARK  Name = 
REMARK  15 active torsions:
REMARK  status: ('A' for Active; 'I' for Inactive)
REMARK    1  A    between atoms: C_1  and  C_2
REMARK    2  A    between atoms: C_2  and  C_3
REMARK    3  A    between atoms: C_2  and  C_4
REMARK    4  A    between atoms: C_4  and  C_5
REMARK    5  A    between atoms: C_5  and  C_6
REMARK    6  A    between atoms: C_6  and  C_8
REMARK    7  A    between atoms: C_8  and  C_9
REMARK    8  A    between atoms: C_8  and  C_10
REMARK    9  A    between atoms: C_10  and  C_11
REMARK   10  A    between atoms: C_11  and  C_12
REMARK   11  A    between atoms: C_12  and  C_13
REMARK   12  A    between atoms: C_13  and  C_14
REMARK   13  A    between atoms: C_17  and  C_18
REMARK   14  A    between atoms: C_18  and  C_19
REMARK   15  A    between atoms: C_19  and  O_21
REMARK                            x       y       z     vdW  Elec       q    Type
REMARK                         _______ _______ _______ _____ _____    ______ ____
ROOT
ATOM      1  C   UNL     1       3.008   6.278  18.159  0.00  0.00    +0.000 C 
ATOM      2  C   UNL     1       4.306   6.925  17.626  0.00  0.00    +0.000 C 
ATOM      3  O   UNL     1       2.832   5.056  17.420  0.00  0.00    +0.000 OA
ATOM      4  C   UNL     1       2.068   4.050  18.099  0.00  0.00    +0.000 C 
ATOM      5  C   UNL     1       2.480   3.821  19.584  0.00  0.00    +0.000 C 
ATOM      6  C   UNL     1       1.622   4.514  20.648  0.00  0.00    +0.000 C 
ATOM      7  C   UNL     1       2.008   5.970  20.553  0.00  0.00    +0.000 C 
ATOM      8  C   UNL     1       3.253   5.956  19.676  0.00  0.00    +0.000 C 
ATOM      9  O   UNL     1       3.718   4.559  19.789  0.00  0.00    +0.000 OA
ENDROOT
BRANCH   1  10
ATOM     10  C   UNL     1       1.809   7.212  17.799  0.00  0.00    +0.000 C 
BRANCH  10  11
ATOM     11  C   UNL     1       2.158   8.705  18.006  0.00  0.00    +0.000 C 
BRANCH  11  12
ATOM     12  C   UNL     1       0.991   9.696  18.053  0.00  0.00    +0.000 C 
BRANCH  12  13
ATOM     13  C   UNL     1       0.800  10.359  19.421  0.00  0.00    +0.000 C 
ATOM     14  C   UNL     1       0.809   9.342  20.555  0.00  0.00    +0.000 C 
BRANCH  13  15
ATOM     15  C   UNL     1      -0.471  11.205  19.467  0.00  0.00    +0.000 C 
ATOM     16  O   UNL     1      -1.184  11.181  20.473  0.00  0.00    +0.000 OA
BRANCH  15  17
ATOM     17  C   UNL     1      -0.792  12.099  18.271  0.00  0.00    +0.000 C 
BRANCH  17  18
ATOM     18  C   UNL     1      -2.192  11.817  17.729  0.00  0.00    +0.000 C 
BRANCH  18  20
ATOM     19  C   UNL     1      -3.263   9.565  17.669  0.00  0.00    +0.000 C 
ATOM     20  C   UNL     1      -2.314  10.510  16.927  0.00  0.00    +0.000 C 
ATOM     21  C   UNL     1      -2.814  10.733  15.499  0.00  0.00    +0.000 C 
ENDBRANCH  18  20
ENDBRANCH  17  18
ENDBRANCH  15  17
ENDBRANCH  13  15
ENDBRANCH  12  13
ENDBRANCH  11  12
ENDBRANCH  10  11
ENDBRANCH   1  10
BRANCH   5  22
ATOM     22  C   UNL     1       2.579   2.317  19.873  0.00  0.00    +0.000 C 
BRANCH  22  23
ATOM     23  C   UNL     1       3.796   1.709  19.195  0.00  0.00    +0.000 C 
ATOM     24  O   UNL     1       3.789   1.034  18.187  0.00  0.00    +0.000 OA
BRANCH  23  25
ATOM     25  O   UNL     1       4.954   2.004  19.826  0.00  0.00    +0.000 OA
ATOM     26  H   UNL     1       5.750   1.628  19.408  0.00  0.00    +0.000 HD
ENDBRANCH  23  25
ENDBRANCH  22  23
ENDBRANCH   5  22
TORSDOF 11
ENDMDL
MODEL 5
REMARK VINA RESULT:      -7.1      4.800      7.265
REMARK  Name = 
REMARK  15 active torsions:
REMARK  status: ('A' for Active; 'I' for Inactive)
REMARK    1  A    between atoms: C_1  and  C_2
REMARK    2  A    between atoms: C_2  and  C_3
REMARK    3  A    between atoms: C_2  and  C_4
REMARK    4  A    between atoms: C_4  and  C_5
REMARK    5  A    between atoms: C_5  and  C_6
REMARK    6  A    between atoms: C_6  and  C_8
REMARK    7  A    between atoms: C_8  and  C_9
REMARK    8  A    between atoms: C_8  and  C_10
REMARK    9  A    between atoms: C_10  and  C_11
REMARK   10  A    between atoms: C_11  and  C_12
REMARK   11  A    between atoms: C_12  and  C_13
REMARK   12  A    between atoms: C_13  and  C_14
REMARK   13  A    between atoms: C_17  and  C_18
REMARK   14  A    between atoms: C_18  and  C_19
REMARK   15  A    between atoms: C_19  and  O_21
REMARK                            x       y       z     vdW  Elec       q    Type
REMARK                         _______ _______ _______ _____ _____    ______ ____
ROOT
ATOM      1  C   UNL     1       6.857   5.790  18.269  0.00  0.00    +0.000 C 
ATOM      2  C   UNL     1       7.961   5.603  19.333  0.00  0.00    +0.000 C 
ATOM      3  O   UNL     1       7.097   4.796  17.257  0.00  0.00    +0.000 OA
ATOM      4  C   UNL     1       5.936   4.408  16.511  0.00  0.00    +0.000 C 
ATOM      5  C   UNL     1       4.680   4.111  17.383  0.00  0.00    +0.000 C 
ATOM      6  C   UNL     1       3.643   5.234  17.498  0.00  0.00    +0.000 C 
ATOM      7  C   UNL     1       4.289   6.249  18.411  0.00  0.00    +0.000 C 
ATOM      8  C   UNL     1       5.488   5.506  18.984  0.00  0.00    +0.000 C 
ATOM      9  O   UNL     1       5.132   4.090  18.767  0.00  0.00    +0.000 OA
ENDROOT
BRANCH   1  10
ATOM     10  C   UNL     1       7.051   7.188  17.599  0.00  0.00    +0.000 C 
BRANCH  10  11
ATOM     11  C   UNL     1       8.202   7.987  18.255  0.00  0.00    +0.000 C 
BRANCH  11  12
ATOM     12  C   UNL     1       8.248   9.494  17.986  0.00  0.00    +0.000 C 
BRANCH  12  13
ATOM     13  C   UNL     1       9.455  10.197  18.613  0.00  0.00    +0.000 C 
ATOM     14  C   UNL     1       9.288  10.388  20.115  0.00  0.00    +0.000 C 
BRANCH  13  15
ATOM     15  C   UNL     1       9.752  11.531  17.931  0.00  0.00    +0.000 C 
ATOM     16  O   UNL     1      10.865  11.730  17.438  0.00  0.00    +0.000 OA
BRANCH  15  17
ATOM     17  C   UNL     1       8.632  12.564  17.839  0.00  0.00    +0.000 C 
BRANCH  17  18
ATOM     18  C   UNL     1       8.698  13.559  18.996  0.00  0.00    +0.000 C 
BRANCH  18  20
ATOM     19  C   UNL     1      10.115  15.188  17.746  0.00  0.00    +0.000 C 
ATOM     20  C   UNL     1       8.831  15.029  18.565  0.00  0.00    +0.000 C 
ATOM     21  C   UNL     1       7.632  15.520  17.751  0.00  0.00    +0.000 C 
ENDBRANCH  18  20
ENDBRANCH  17  18
ENDBRANCH  15  17
ENDBRANCH  13  15
ENDBRANCH  12  13
ENDBRANCH  11  12
ENDBRANCH  10  11
ENDBRANCH   1  10
BRANCH   5  22
ATOM     22  C   UNL     1       4.011   2.813  16.911  0.00  0.00    +0.000 C 
BRANCH  22  23
ATOM     23  C   UNL     1       3.405   2.053  18.079  0.00  0.00    +0.000 C 
ATOM     24  O   UNL     1       2.250   2.109  18.446  0.00  0.00    +0.000 OA
BRANCH  23  25
ATOM     25  O   UNL     1       4.296   1.253  18.707  0.00  0.00    +0.000 OA
ATOM     26  H   UNL     1       5.071   1.010  18.168  0.00  0.00    +0.000 HD
ENDBRANCH  23  25
ENDBRANCH  22  23
ENDBRANCH   5  22
TORSDOF 11
ENDMDL
MODEL 6
REMARK VINA RESULT:      -7.0      3.009      5.604
REMARK  Name = 
REMARK  15 active torsions:
REMARK  status: ('A' for Active; 'I' for Inactive)
REMARK    1  A    between atoms: C_1  and  C_2
REMARK    2  A    between atoms: C_2  and  C_3
REMARK    3  A    between atoms: C_2  and  C_4
REMARK    4  A    between atoms: C_4  and  C_5
REMARK    5  A    between atoms: C_5  and  C_6
REMARK    6  A    between atoms: C_6  and  C_8
REMARK    7  A    between atoms: C_8  and  C_9
REMARK    8  A    between atoms: C_8  and  C_10
REMARK    9  A    between atoms: C_10  and  C_11
REMARK   10  A    between atoms: C_11  and  C_12
REMARK   11  A    between atoms: C_12  and  C_13
REMARK   12  A    between atoms: C_13  and  C_14
REMARK   13  A    between atoms: C_17  and  C_18
REMARK   14  A    between atoms: C_18  and  C_19
REMARK   15  A    between atoms: C_19  and  O_21
REMARK                            x       y       z     vdW  Elec       q    Type
REMARK                         _______ _______ _______ _____ _____    ______ ____
ROOT
ATOM      1  C   UNL     1       3.621   5.600  17.832  0.00  0.00    +0.000 C 
ATOM      2  C   UNL     1       3.102   7.042  18.021  0.00  0.00    +0.000 C 
ATOM      3  O   UNL     1       4.364   5.278  19.021  0.00  0.00    +0.000 OA
ATOM      4  C   UNL     1       4.441   3.877  19.319  0.00  0.00    +0.000 C 
ATOM      5  C   UNL     1       3.082   3.122  19.216  0.00  0.00    +0.000 C 
ATOM      6  C   UNL     1       2.826   2.345  17.919  0.00  0.00    +0.000 C 
ATOM      7  C   UNL     1       2.543   3.414  16.891  0.00  0.00    +0.000 C 
ATOM      8  C   UNL     1       2.357   4.675  17.723  0.00  0.00    +0.000 C 
ATOM      9  O   UNL     1       2.052   4.140  19.066  0.00  0.00    +0.000 OA
ENDROOT
BRANCH   1  10
ATOM     10  C   UNL     1       4.631   5.592  16.640  0.00  0.00    +0.000 C 
BRANCH  10  11
ATOM     11  C   UNL     1       5.643   6.759  16.734  0.00  0.00    +0.000 C 
BRANCH  11  12
ATOM     12  C   UNL     1       7.128   6.407  16.609  0.00  0.00    +0.000 C 
BRANCH  12  13
ATOM     13  C   UNL     1       7.985   6.924  17.769  0.00  0.00    +0.000 C 
ATOM     14  C   UNL     1       7.600   6.280  19.094  0.00  0.00    +0.000 C 
BRANCH  13  15
ATOM     15  C   UNL     1       7.932   8.447  17.876  0.00  0.00    +0.000 C 
ATOM     16  O   UNL     1       7.116   9.078  17.199  0.00  0.00    +0.000 OA
BRANCH  15  17
ATOM     17  C   UNL     1       8.868   9.138  18.864  0.00  0.00    +0.000 C 
BRANCH  17  18
ATOM     18  C   UNL     1       9.348  10.485  18.324  0.00  0.00    +0.000 C 
BRANCH  18  20
ATOM     19  C   UNL     1       9.329  10.932  20.779  0.00  0.00    +0.000 C 
ATOM     20  C   UNL     1       9.589  11.553  19.404  0.00  0.00    +0.000 C 
ATOM     21  C   UNL     1      11.002  12.138  19.356  0.00  0.00    +0.000 C 
ENDBRANCH  18  20
ENDBRANCH  17  18
ENDBRANCH  15  17
ENDBRANCH  13  15
ENDBRANCH  12  13
ENDBRANCH  11  12
ENDBRANCH  10  11
ENDBRANCH   1  10
BRANCH   5  22
ATOM     22  C   UNL     1       2.900   2.205  20.433  0.00  0.00    +0.000 C 
BRANCH  22  23
ATOM     23  C   UNL     1       1.975   2.837  21.460  0.00  0.00    +0.000 C 
ATOM     24  O   UNL     1       2.310   3.321  22.521  0.00  0.00    +0.000 OA
BRANCH  23  25
ATOM     25  O   UNL     1       0.678   2.831  21.077  0.00  0.00    +0.000 OA
ATOM     26  H   UNL     1       0.041   2.963  21.803  0.00  0.00    +0.000 HD
ENDBRANCH  23  25
ENDBRANCH  22  23
ENDBRANCH   5  22
TORSDOF 11
ENDMDL
MODEL 7
REMARK VINA RESULT:      -6.9      3.712      7.225
REMARK  Name = 
REMARK  15 active torsions:
REMARK  status: ('A' for Active; 'I' for Inactive)
REMARK    1  A    between atoms: C_1  and  C_2
REMARK    2  A    between atoms: C_2  and  C_3
REMARK    3  A    between atoms: C_2  and  C_4
REMARK    4  A    between atoms: C_4  and  C_5
REMARK    5  A    between atoms: C_5  and  C_6
REMARK    6  A    between atoms: C_6  and  C_8
REMARK    7  A    between atoms: C_8  and  C_9
REMARK    8  A    between atoms: C_8  and  C_10
REMARK    9  A    between atoms: C_10  and  C_11
REMARK   10  A    between atoms: C_11  and  C_12
REMARK   11  A    between atoms: C_12  and  C_13
REMARK   12  A    between atoms: C_13  and  C_14
REMARK   13  A    between atoms: C_17  and  C_18
REMARK   14  A    between atoms: C_18  and  C_19
REMARK   15  A    between atoms: C_19  and  O_21
REMARK                            x       y       z     vdW  Elec       q    Type
REMARK                         _______ _______ _______ _____ _____    ______ ____
ROOT
ATOM      1  C   UNL     1       3.252   4.985  19.054  0.00  0.00    +0.000 C 
ATOM      2  C   UNL     1       2.538   4.531  20.346  0.00  0.00    +0.000 C 
ATOM      3  O   UNL     1       4.264   5.924  19.459  0.00  0.00    +0.000 OA
ATOM      4  C   UNL     1       5.377   6.031  18.561  0.00  0.00    +0.000 C 
ATOM      5  C   UNL     1       5.956   4.664  18.089  0.00  0.00    +0.000 C 
ATOM      6  C   UNL     1       5.505   4.169  16.711  0.00  0.00    +0.000 C 
ATOM      7  C   UNL     1       4.078   3.722  16.921  0.00  0.00    +0.000 C 
ATOM      8  C   UNL     1       3.925   3.707  18.436  0.00  0.00    +0.000 C 
ATOM      9  O   UNL     1       5.323   3.641  18.907  0.00  0.00    +0.000 OA
ENDROOT
BRANCH   1  10
ATOM     10  C   UNL     1       2.226   5.764  18.172  0.00  0.00    +0.000 C 
BRANCH  10  11
ATOM     11  C   UNL     1       2.658   7.233  17.944  0.00  0.00    +0.000 C 
BRANCH  11  12
ATOM     12  C   UNL     1       1.554   8.295  17.949  0.00  0.00    +0.000 C 
BRANCH  12  13
ATOM     13  C   UNL     1       1.600   9.225  19.165  0.00  0.00    +0.000 C 
ATOM     14  C   UNL     1       1.241   8.497  20.454  0.00  0.00    +0.000 C 
BRANCH  13  15
ATOM     15  C   UNL     1       0.708  10.451  18.974  0.00  0.00    +0.000 C 
ATOM     16  O   UNL     1       1.220  11.540  18.704  0.00  0.00    +0.000 OA
BRANCH  15  17
ATOM     17  C   UNL     1      -0.804  10.271  19.075  0.00  0.00    +0.000 C 
BRANCH  17  18
ATOM     18  C   UNL     1      -1.544  11.524  18.608  0.00  0.00    +0.000 C 
BRANCH  18  20
ATOM     19  C   UNL     1      -2.146   9.927  16.788  0.00  0.00    +0.000 C 
ATOM     20  C   UNL     1      -2.431  11.315  17.369  0.00  0.00    +0.000 C 
ATOM     21  C   UNL     1      -3.923  11.452  17.679  0.00  0.00    +0.000 C 
ENDBRANCH  18  20
ENDBRANCH  17  18
ENDBRANCH  15  17
ENDBRANCH  13  15
ENDBRANCH  12  13
ENDBRANCH  11  12
ENDBRANCH  10  11
ENDBRANCH   1  10
BRANCH   5  22
ATOM     22  C   UNL     1       7.489   4.690  18.172  0.00  0.00    +0.000 C 
BRANCH  22  23
ATOM     23  C   UNL     1       7.968   5.793  19.102  0.00  0.00    +0.000 C 
ATOM     24  O   UNL     1       8.259   6.925  18.776  0.00  0.00    +0.000 OA
BRANCH  23  25
ATOM     25  O   UNL     1       8.035   5.401  20.394  0.00  0.00    +0.000 OA
ATOM     26  H   UNL     1       7.234   5.589  20.916  0.00  0.00    +0.000 HD
ENDBRANCH  23  25
ENDBRANCH  22  23
ENDBRANCH   5  22
TORSDOF 11
ENDMDL
MODEL 8
REMARK VINA RESULT:      -6.9      3.325      7.758
REMARK  Name = 
REMARK  15 active torsions:
REMARK  status: ('A' for Active; 'I' for Inactive)
REMARK    1  A    between atoms: C_1  and  C_2
REMARK    2  A    between atoms: C_2  and  C_3
REMARK    3  A    between atoms: C_2  and  C_4
REMARK    4  A    between atoms: C_4  and  C_5
REMARK    5  A    between atoms: C_5  and  C_6
REMARK    6  A    between atoms: C_6  and  C_8
REMARK    7  A    between atoms: C_8  and  C_9
REMARK    8  A    between atoms: C_8  and  C_10
REMARK    9  A    between atoms: C_10  and  C_11
REMARK   10  A    between atoms: C_11  and  C_12
REMARK   11  A    between atoms: C_12  and  C_13
REMARK   12  A    between atoms: C_13  and  C_14
REMARK   13  A    between atoms: C_17  and  C_18
REMARK   14  A    between atoms: C_18  and  C_19
REMARK   15  A    between atoms: C_19  and  O_21
REMARK                            x       y       z     vdW  Elec       q    Type
REMARK                         _______ _______ _______ _____ _____    ______ ____
ROOT
ATOM      1  C   UNL     1       2.807   4.663  19.122  0.00  0.00    +0.000 C 
ATOM      2  C   UNL     1       1.480   3.883  18.990  0.00  0.00    +0.000 C 
ATOM      3  O   UNL     1       3.832   3.681  19.356  0.00  0.00    +0.000 OA
ATOM      4  C   UNL     1       5.148   4.080  18.950  0.00  0.00    +0.000 C 
ATOM      5  C   UNL     1       5.217   4.719  17.531  0.00  0.00    +0.000 C 
ATOM      6  C   UNL     1       5.253   6.250  17.470  0.00  0.00    +0.000 C 
ATOM      7  C   UNL     1       3.845   6.673  17.814  0.00  0.00    +0.000 C 
ATOM      8  C   UNL     1       3.052   5.375  17.743  0.00  0.00    +0.000 C 
ATOM      9  O   UNL     1       3.915   4.507  16.917  0.00  0.00    +0.000 OA
ENDROOT
BRANCH   1  10
ATOM     10  C   UNL     1       2.726   5.560  20.398  0.00  0.00    +0.000 C 
BRANCH  10  11
ATOM     11  C   UNL     1       1.506   6.512  20.357  0.00  0.00    +0.000 C 
BRANCH  11  12
ATOM     12  C   UNL     1       1.753   7.980  20.718  0.00  0.00    +0.000 C 
BRANCH  12  13
ATOM     13  C   UNL     1       0.934   8.967  19.881  0.00  0.00    +0.000 C 
ATOM     14  C   UNL     1       1.586   9.252  18.535  0.00  0.00    +0.000 C 
BRANCH  13  15
ATOM     15  C   UNL     1       0.670  10.267  20.637  0.00  0.00    +0.000 C 
ATOM     16  O   UNL     1       0.972  10.351  21.830  0.00  0.00    +0.000 OA
BRANCH  15  17
ATOM     17  C   UNL     1       0.081  11.447  19.869  0.00  0.00    +0.000 C 
BRANCH  17  18
ATOM     18  C   UNL     1      -1.446  11.394  19.856  0.00  0.00    +0.000 C 
BRANCH  18  20
ATOM     19  C   UNL     1      -1.814  10.134  17.734  0.00  0.00    +0.000 C 
ATOM     20  C   UNL     1      -2.073  11.461  18.453  0.00  0.00    +0.000 C 
ATOM     21  C   UNL     1      -3.576  11.749  18.488  0.00  0.00    +0.000 C 
ENDBRANCH  18  20
ENDBRANCH  17  18
ENDBRANCH  15  17
ENDBRANCH  13  15
ENDBRANCH  12  13
ENDBRANCH  11  12
ENDBRANCH  10  11
ENDBRANCH   1  10
BRANCH   5  22
ATOM     22  C   UNL     1       6.397   4.125  16.748  0.00  0.00    +0.000 C 
BRANCH  22  23
ATOM     23  C   UNL     1       6.526   4.774  15.379  0.00  0.00    +0.000 C 
ATOM     24  O   UNL     1       7.447   5.469  15.002  0.00  0.00    +0.000 OA
BRANCH  23  25
ATOM     25  O   UNL     1       5.488   4.491  14.561  0.00  0.00    +0.000 OA
ATOM     26  H   UNL     1       4.694   4.155  15.016  0.00  0.00    +0.000 HD
ENDBRANCH  23  25
ENDBRANCH  22  23
ENDBRANCH   5  22
TORSDOF 11
ENDMDL
MODEL 9
REMARK VINA RESULT:      -6.9      2.763      7.308
REMARK  Name = 
REMARK  15 active torsions:
REMARK  status: ('A' for Active; 'I' for Inactive)
REMARK    1  A    between atoms: C_1  and  C_2
REMARK    2  A    between atoms: C_2  and  C_3
REMARK    3  A    between atoms: C_2  and  C_4
REMARK    4  A    between atoms: C_4  and  C_5
REMARK    5  A    between atoms: C_5  and  C_6
REMARK    6  A    between atoms: C_6  and  C_8
REMARK    7  A    between atoms: C_8  and  C_9
REMARK    8  A    between atoms: C_8  and  C_10
REMARK    9  A    between atoms: C_10  and  C_11
REMARK   10  A    between atoms: C_11  and  C_12
REMARK   11  A    between atoms: C_12  and  C_13
REMARK   12  A    between atoms: C_13  and  C_14
REMARK   13  A    between atoms: C_17  and  C_18
REMARK   14  A    between atoms: C_18  and  C_19
REMARK   15  A    between atoms: C_19  and  O_21
REMARK                            x       y       z     vdW  Elec       q    Type
REMARK                         _______ _______ _______ _____ _____    ______ ____
ROOT
ATOM      1  C   UNL     1       4.303   4.207  18.876  0.00  0.00    +0.000 C 
ATOM      2  C   UNL     1       3.515   2.931  19.243  0.00  0.00    +0.000 C 
ATOM      3  O   UNL     1       5.693   3.897  19.077  0.00  0.00    +0.000 OA
ATOM      4  C   UNL     1       6.602   4.679  18.291  0.00  0.00    +0.000 C 
ATOM      5  C   UNL     1       6.208   4.806  16.789  0.00  0.00    +0.000 C 
ATOM      6  C   UNL     1       5.491   6.096  16.375  0.00  0.00    +0.000 C 
ATOM      7  C   UNL     1       4.098   5.948  16.938  0.00  0.00    +0.000 C 
ATOM      8  C   UNL     1       4.031   4.485  17.354  0.00  0.00    +0.000 C 
ATOM      9  O   UNL     1       5.118   3.869  16.566  0.00  0.00    +0.000 OA
ENDROOT
BRANCH   1  10
ATOM     10  C   UNL     1       3.927   5.328  19.897  0.00  0.00    +0.000 C 
BRANCH  10  11
ATOM     11  C   UNL     1       2.441   5.247  20.322  0.00  0.00    +0.000 C 
BRANCH  11  12
ATOM     12  C   UNL     1       1.499   6.325  19.776  0.00  0.00    +0.000 C 
BRANCH  12  13
ATOM     13  C   UNL     1       1.913   7.752  20.147  0.00  0.00    +0.000 C 
ATOM     14  C   UNL     1       1.085   8.305  21.299  0.00  0.00    +0.000 C 
BRANCH  13  15
ATOM     15  C   UNL     1       1.854   8.690  18.943  0.00  0.00    +0.000 C 
ATOM     16  O   UNL     1       2.453   8.390  17.907  0.00  0.00    +0.000 OA
BRANCH  15  17
ATOM     17  C   UNL     1       1.006   9.954  19.049  0.00  0.00    +0.000 C 
BRANCH  17  18
ATOM     18  C   UNL     1      -0.144   9.937  18.043  0.00  0.00    +0.000 C 
BRANCH  18  20
ATOM     19  C   UNL     1      -1.251  11.319  19.799  0.00  0.00    +0.000 C 
ATOM     20  C   UNL     1      -1.500  10.377  18.619  0.00  0.00    +0.000 C 
ATOM     21  C   UNL     1      -2.390  11.066  17.582  0.00  0.00    +0.000 C 
ENDBRANCH  18  20
ENDBRANCH  17  18
ENDBRANCH  15  17
ENDBRANCH  13  15
ENDBRANCH  12  13
ENDBRANCH  11  12
ENDBRANCH  10  11
ENDBRANCH   1  10
BRANCH   5  22
ATOM     22  C   UNL     1       7.441   4.573  15.904  0.00  0.00    +0.000 C 
BRANCH  22  23
ATOM     23  C   UNL     1       7.064   4.564  14.432  0.00  0.00    +0.000 C 
ATOM     24  O   UNL     1       7.392   5.389  13.606  0.00  0.00    +0.000 OA
BRANCH  23  25
ATOM     25  O   UNL     1       6.304   3.500  14.089  0.00  0.00    +0.000 OA
ATOM     26  H   UNL     1       5.589   3.294  14.719  0.00  0.00    +0.000 HD
ENDBRANCH  23  25
ENDBRANCH  22  23
ENDBRANCH   5  22
TORSDOF 11
ENDMDL
