MODEL 1
REMARK VINA RESULT:     -10.6      0.000      0.000
REMARK  Name = 
REMARK  3 active torsions:
REMARK  status: ('A' for Active; 'I' for Inactive)
REMARK    1  A    between atoms: C_6  and  C_7
REMARK    2  A    between atoms: C_10  and  C_11
REMARK    3  A    between atoms: C_22  and  C_23
REMARK                            x       y       z     vdW  Elec       q    Type
REMARK                         _______ _______ _______ _____ _____    ______ ____
ROOT
ATOM      1  C   UNL     1       5.092   6.158  17.454  0.00  0.00    +0.000 C 
ATOM      2  C   UNL     1       3.877   7.055  17.073  0.00  0.00    +0.000 C 
ATOM      3  C   UNL     1       3.080   7.346  18.290  0.00  0.00    +0.000 A 
ATOM      4  C   UNL     1       3.129   6.487  19.367  0.00  0.00    +0.000 A 
ATOM      5  N   UNL     1       2.371   7.045  20.361  0.00  0.00    +0.000 N 
ATOM      6  C   UNL     1       1.686   8.135  19.882  0.00  0.00    +0.000 A 
ATOM      7  C   UNL     1       0.694   8.908  20.497  0.00  0.00    +0.000 A 
ATOM      8  C   UNL     1       0.204  10.006  19.788  0.00  0.00    +0.000 A 
ATOM      9  C   UNL     1       0.696  10.319  18.522  0.00  0.00    +0.000 A 
ATOM     10  C   UNL     1       1.673   9.517  17.913  0.00  0.00    +0.000 A 
ATOM     11  C   UNL     1       2.165   8.390  18.597  0.00  0.00    +0.000 A 
ATOM     12  C   UNL     1       3.901   5.210  19.475  0.00  0.00    +0.000 C 
ATOM     13  N   UNL     1       4.765   4.974  18.291  0.00  0.00    +0.000 NA
ATOM     14  H   UNL     1       2.260   6.685  21.298  0.00  0.00    +0.000 HD
ATOM     15  H   UNL     1       4.306   4.318  17.661  0.00  0.00    +0.000 HD
ENDROOT
BRANCH   1  19
ATOM     16  C   UNL     1       6.143   4.584  14.358  0.00  0.00    +0.000 A 
ATOM     17  C   UNL     1       7.358   5.054  14.802  0.00  0.00    +0.000 A 
ATOM     18  N   UNL     1       7.091   5.724  15.962  0.00  0.00    +0.000 N 
ATOM     19  C   UNL     1       5.737   5.639  16.188  0.00  0.00    +0.000 A 
ATOM     20  N   UNL     1       5.148   4.963  15.225  0.00  0.00    +0.000 NA
ATOM     21  H   UNL     1       7.765   6.168  16.563  0.00  0.00    +0.000 HD
BRANCH  16  27
ATOM     22  F   UNL     1       7.804   1.751  10.826  0.00  0.00    +0.000 F 
ATOM     23  C   UNL     1       6.772   2.375  11.414  0.00  0.00    +0.000 A 
ATOM     24  C   UNL     1       5.495   2.219  10.883  0.00  0.00    +0.000 A 
ATOM     25  C   UNL     1       4.419   2.865  11.490  0.00  0.00    +0.000 A 
ATOM     26  C   UNL     1       4.633   3.647  12.623  0.00  0.00    +0.000 A 
ATOM     27  C   UNL     1       5.919   3.793  13.166  0.00  0.00    +0.000 A 
ATOM     28  C   UNL     1       6.997   3.155  12.538  0.00  0.00    +0.000 A 
ENDBRANCH  16  27
ENDBRANCH   1  19
BRANCH  12  29
ATOM     29  C   UNL     1       2.988   3.955  19.687  0.00  0.00    +0.000 C 
ATOM     30  C   UNL     1       1.952   3.735  18.563  0.00  0.00    +0.000 C 
ATOM     31  C   UNL     1       1.056   2.539  18.862  0.00  0.00    +0.000 C 
ATOM     32  O   UNL     1       0.425   2.670  20.133  0.00  0.00    +0.000 OA
ATOM     33  C   UNL     1       1.373   2.719  21.196  0.00  0.00    +0.000 C 
ATOM     34  C   UNL     1       2.262   3.944  21.047  0.00  0.00    +0.000 C 
ENDBRANCH  12  29
TORSDOF 3
ENDMDL
MODEL 2
REMARK VINA RESULT:     -10.6      0.840      1.206
REMARK  Name = 
REMARK  3 active torsions:
REMARK  status: ('A' for Active; 'I' for Inactive)
REMARK    1  A    between atoms: C_6  and  C_7
REMARK    2  A    between atoms: C_10  and  C_11
REMARK    3  A    between atoms: C_22  and  C_23
REMARK                            x       y       z     vdW  Elec       q    Type
REMARK                         _______ _______ _______ _____ _____    ______ ____
ROOT
ATOM      1  C   UNL     1       5.123   6.157  17.417  0.00  0.00    +0.000 C 
ATOM      2  C   UNL     1       3.913   7.059  17.037  0.00  0.00    +0.000 C 
ATOM      3  C   UNL     1       3.116   7.349  18.255  0.00  0.00    +0.000 A 
ATOM      4  C   UNL     1       3.161   6.488  19.330  0.00  0.00    +0.000 A 
ATOM      5  N   UNL     1       2.405   7.045  20.325  0.00  0.00    +0.000 N 
ATOM      6  C   UNL     1       1.724   8.139  19.849  0.00  0.00    +0.000 A 
ATOM      7  C   UNL     1       0.735   8.914  20.466  0.00  0.00    +0.000 A 
ATOM      8  C   UNL     1       0.250  10.016  19.760  0.00  0.00    +0.000 A 
ATOM      9  C   UNL     1       0.744  10.331  18.495  0.00  0.00    +0.000 A 
ATOM     10  C   UNL     1       1.718   9.528  17.884  0.00  0.00    +0.000 A 
ATOM     11  C   UNL     1       2.205   8.396  18.565  0.00  0.00    +0.000 A 
ATOM     12  C   UNL     1       3.928   5.207  19.434  0.00  0.00    +0.000 C 
ATOM     13  N   UNL     1       4.792   4.972  18.250  0.00  0.00    +0.000 NA
ATOM     14  H   UNL     1       2.292   6.683  21.260  0.00  0.00    +0.000 HD
ATOM     15  H   UNL     1       4.331   4.319  17.617  0.00  0.00    +0.000 HD
ENDROOT
BRANCH   1  19
ATOM     16  C   UNL     1       6.181   4.570  14.328  0.00  0.00    +0.000 A 
ATOM     17  C   UNL     1       7.387   5.083  14.749  0.00  0.00    +0.000 A 
ATOM     18  N   UNL     1       7.115   5.762  15.903  0.00  0.00    +0.000 N 
ATOM     19  C   UNL     1       5.767   5.639  16.149  0.00  0.00    +0.000 A 
ATOM     20  N   UNL     1       5.187   4.931  15.204  0.00  0.00    +0.000 NA
ATOM     21  H   UNL     1       7.783   6.234  16.489  0.00  0.00    +0.000 HD
BRANCH  16  27
ATOM     22  F   UNL     1       3.263   2.820  10.911  0.00  0.00    +0.000 F 
ATOM     23  C   UNL     1       4.488   2.899  11.450  0.00  0.00    +0.000 A 
ATOM     24  C   UNL     1       5.540   2.221  10.842  0.00  0.00    +0.000 A 
ATOM     25  C   UNL     1       6.817   2.298  11.398  0.00  0.00    +0.000 A 
ATOM     26  C   UNL     1       7.024   3.061  12.545  0.00  0.00    +0.000 A 
ATOM     27  C   UNL     1       5.965   3.756  13.151  0.00  0.00    +0.000 A 
ATOM     28  C   UNL     1       4.683   3.656  12.595  0.00  0.00    +0.000 A 
ENDBRANCH  16  27
ENDBRANCH   1  19
BRANCH  12  29
ATOM     29  C   UNL     1       3.010   3.955  19.642  0.00  0.00    +0.000 C 
ATOM     30  C   UNL     1       1.924   3.786  18.556  0.00  0.00    +0.000 C 
ATOM     31  C   UNL     1       1.028   2.589  18.852  0.00  0.00    +0.000 C 
ATOM     32  O   UNL     1       0.454   2.682  20.154  0.00  0.00    +0.000 OA
ATOM     33  C   UNL     1       1.447   2.684  21.176  0.00  0.00    +0.000 C 
ATOM     34  C   UNL     1       2.343   3.903  21.031  0.00  0.00    +0.000 C 
ENDBRANCH  12  29
TORSDOF 3
ENDMDL
MODEL 3
REMARK VINA RESULT:      -9.8      1.182      1.801
REMARK  Name = 
REMARK  3 active torsions:
REMARK  status: ('A' for Active; 'I' for Inactive)
REMARK    1  A    between atoms: C_6  and  C_7
REMARK    2  A    between atoms: C_10  and  C_11
REMARK    3  A    between atoms: C_22  and  C_23
REMARK                            x       y       z     vdW  Elec       q    Type
REMARK                         _______ _______ _______ _____ _____    ______ ____
ROOT
ATOM      1  C   UNL     1       4.762   6.427  18.469  0.00  0.00    +0.000 C 
ATOM      2  C   UNL     1       3.740   7.351  17.743  0.00  0.00    +0.000 C 
ATOM      3  C   UNL     1       2.702   7.788  18.708  0.00  0.00    +0.000 A 
ATOM      4  C   UNL     1       2.433   7.025  19.825  0.00  0.00    +0.000 A 
ATOM      5  N   UNL     1       1.504   7.707  20.564  0.00  0.00    +0.000 N 
ATOM      6  C   UNL     1       1.032   8.786  19.858  0.00  0.00    +0.000 A 
ATOM      7  C   UNL     1      -0.018   9.661  20.159  0.00  0.00    +0.000 A 
ATOM      8  C   UNL     1      -0.246  10.718  19.276  0.00  0.00    +0.000 A 
ATOM      9  C   UNL     1       0.552  10.893  18.147  0.00  0.00    +0.000 A 
ATOM     10  C   UNL     1       1.584   9.991  17.850  0.00  0.00    +0.000 A 
ATOM     11  C   UNL     1       1.818   8.902  18.711  0.00  0.00    +0.000 A 
ATOM     12  C   UNL     1       3.063   5.723  20.206  0.00  0.00    +0.000 C 
ATOM     13  N   UNL     1       4.162   5.340  19.285  0.00  0.00    +0.000 NA
ATOM     14  H   UNL     1       1.150   7.435  21.470  0.00  0.00    +0.000 HD
ATOM     15  H   UNL     1       3.818   4.656  18.611  0.00  0.00    +0.000 HD
ENDROOT
BRANCH   1  19
ATOM     16  C   UNL     1       6.420   4.904  15.622  0.00  0.00    +0.000 A 
ATOM     17  C   UNL     1       7.242   4.460  16.633  0.00  0.00    +0.000 A 
ATOM     18  N   UNL     1       6.747   5.014  17.780  0.00  0.00    +0.000 N 
ATOM     19  C   UNL     1       5.648   5.766  17.436  0.00  0.00    +0.000 A 
ATOM     20  N   UNL     1       5.443   5.719  16.137  0.00  0.00    +0.000 NA
ATOM     21  H   UNL     1       7.097   4.869  18.712  0.00  0.00    +0.000 HD
BRANCH  16  27
ATOM     22  F   UNL     1       4.837   2.543  11.727  0.00  0.00    +0.000 F 
ATOM     23  C   UNL     1       5.722   3.381  12.286  0.00  0.00    +0.000 A 
ATOM     24  C   UNL     1       6.719   3.940  11.491  0.00  0.00    +0.000 A 
ATOM     25  C   UNL     1       7.643   4.812  12.066  0.00  0.00    +0.000 A 
ATOM     26  C   UNL     1       7.550   5.120  13.421  0.00  0.00    +0.000 A 
ATOM     27  C   UNL     1       6.536   4.567  14.219  0.00  0.00    +0.000 A 
ATOM     28  C   UNL     1       5.624   3.677  13.637  0.00  0.00    +0.000 A 
ENDBRANCH  16  27
ENDBRANCH   1  19
BRANCH  12  29
ATOM     29  C   UNL     1       2.037   4.541  20.281  0.00  0.00    +0.000 C 
ATOM     30  C   UNL     1       2.351   3.507  21.384  0.00  0.00    +0.000 C 
ATOM     31  C   UNL     1       1.355   2.354  21.361  0.00  0.00    +0.000 C 
ATOM     32  O   UNL     1       1.298   1.743  20.075  0.00  0.00    +0.000 OA
ATOM     33  C   UNL     1       0.859   2.654  19.070  0.00  0.00    +0.000 C 
ATOM     34  C   UNL     1       1.846   3.804  18.941  0.00  0.00    +0.000 C 
ENDBRANCH  12  29
TORSDOF 3
ENDMDL
MODEL 4
REMARK VINA RESULT:      -9.8      0.607      1.048
REMARK  Name = 
REMARK  3 active torsions:
REMARK  status: ('A' for Active; 'I' for Inactive)
REMARK    1  A    between atoms: C_6  and  C_7
REMARK    2  A    between atoms: C_10  and  C_11
REMARK    3  A    between atoms: C_22  and  C_23
REMARK                            x       y       z     vdW  Elec       q    Type
REMARK                         _______ _______ _______ _____ _____    ______ ____
ROOT
ATOM      1  C   UNL     1       4.812   6.362  17.760  0.00  0.00    +0.000 C 
ATOM      2  C   UNL     1       3.717   7.352  17.264  0.00  0.00    +0.000 C 
ATOM      3  C   UNL     1       2.837   7.720  18.401  0.00  0.00    +0.000 A 
ATOM      4  C   UNL     1       2.714   6.872  19.481  0.00  0.00    +0.000 A 
ATOM      5  N   UNL     1       1.917   7.501  20.398  0.00  0.00    +0.000 N 
ATOM      6  C   UNL     1       1.372   8.639  19.855  0.00  0.00    +0.000 A 
ATOM      7  C   UNL     1       0.395   9.498  20.372  0.00  0.00    +0.000 A 
ATOM      8  C   UNL     1       0.066  10.625  19.617  0.00  0.00    +0.000 A 
ATOM      9  C   UNL     1       0.698  10.882  18.402  0.00  0.00    +0.000 A 
ATOM     10  C   UNL     1       1.657   9.997  17.889  0.00  0.00    +0.000 A 
ATOM     11  C   UNL     1       1.988   8.840  18.618  0.00  0.00    +0.000 A 
ATOM     12  C   UNL     1       3.364   5.537  19.663  0.00  0.00    +0.000 C 
ATOM     13  N   UNL     1       4.311   5.218  18.566  0.00  0.00    +0.000 NA
ATOM     14  H   UNL     1       1.690   7.161  21.321  0.00  0.00    +0.000 HD
ATOM     15  H   UNL     1       3.860   4.595  17.897  0.00  0.00    +0.000 HD
ENDROOT
BRANCH   1  19
ATOM     16  C   UNL     1       5.996   4.717  14.749  0.00  0.00    +0.000 A 
ATOM     17  C   UNL     1       7.201   4.977  15.359  0.00  0.00    +0.000 A 
ATOM     18  N   UNL     1       6.894   5.654  16.506  0.00  0.00    +0.000 N 
ATOM     19  C   UNL     1       5.526   5.778  16.561  0.00  0.00    +0.000 A 
ATOM     20  N   UNL     1       4.969   5.227  15.504  0.00  0.00    +0.000 NA
ATOM     21  H   UNL     1       7.546   5.970  17.205  0.00  0.00    +0.000 HD
BRANCH  16  27
ATOM     22  F   UNL     1       7.768   2.137  11.081  0.00  0.00    +0.000 F 
ATOM     23  C   UNL     1       6.716   2.708  11.686  0.00  0.00    +0.000 A 
ATOM     24  C   UNL     1       5.452   2.569  11.119  0.00  0.00    +0.000 A 
ATOM     25  C   UNL     1       4.355   3.161  11.743  0.00  0.00    +0.000 A 
ATOM     26  C   UNL     1       4.534   3.872  12.927  0.00  0.00    +0.000 A 
ATOM     27  C   UNL     1       5.807   4.001  13.505  0.00  0.00    +0.000 A 
ATOM     28  C   UNL     1       6.907   3.418  12.861  0.00  0.00    +0.000 A 
ENDBRANCH  16  27
ENDBRANCH   1  19
BRANCH  12  29
ATOM     29  C   UNL     1       2.334   4.363  19.793  0.00  0.00    +0.000 C 
ATOM     30  C   UNL     1       2.749   3.274  20.805  0.00  0.00    +0.000 C 
ATOM     31  C   UNL     1       1.738   2.134  20.836  0.00  0.00    +0.000 C 
ATOM     32  O   UNL     1       1.534   1.587  19.536  0.00  0.00    +0.000 OA
ATOM     33  C   UNL     1       1.004   2.550  18.629  0.00  0.00    +0.000 C 
ATOM     34  C   UNL     1       1.989   3.694  18.448  0.00  0.00    +0.000 C 
ENDBRANCH  12  29
TORSDOF 3
ENDMDL
MODEL 5
REMARK VINA RESULT:      -9.7      5.305      8.331
REMARK  Name = 
REMARK  3 active torsions:
REMARK  status: ('A' for Active; 'I' for Inactive)
REMARK    1  A    between atoms: C_6  and  C_7
REMARK    2  A    between atoms: C_10  and  C_11
REMARK    3  A    between atoms: C_22  and  C_23
REMARK                            x       y       z     vdW  Elec       q    Type
REMARK                         _______ _______ _______ _____ _____    ______ ____
ROOT
ATOM      1  C   UNL     1       7.106   6.511  17.737  0.00  0.00    +0.000 C 
ATOM      2  C   UNL     1       5.580   6.550  18.042  0.00  0.00    +0.000 C 
ATOM      3  C   UNL     1       4.980   5.233  17.715  0.00  0.00    +0.000 A 
ATOM      4  C   UNL     1       5.587   4.409  16.791  0.00  0.00    +0.000 A 
ATOM      5  N   UNL     1       4.868   3.245  16.755  0.00  0.00    +0.000 N 
ATOM      6  C   UNL     1       3.712   3.377  17.485  0.00  0.00    +0.000 A 
ATOM      7  C   UNL     1       2.623   2.505  17.601  0.00  0.00    +0.000 A 
ATOM      8  C   UNL     1       1.594   2.875  18.468  0.00  0.00    +0.000 A 
ATOM      9  C   UNL     1       1.661   4.063  19.194  0.00  0.00    +0.000 A 
ATOM     10  C   UNL     1       2.749   4.935  19.046  0.00  0.00    +0.000 A 
ATOM     11  C   UNL     1       3.788   4.597  18.158  0.00  0.00    +0.000 A 
ATOM     12  C   UNL     1       6.828   4.690  16.004  0.00  0.00    +0.000 C 
ATOM     13  N   UNL     1       7.471   5.967  16.403  0.00  0.00    +0.000 NA
ATOM     14  H   UNL     1       5.098   2.420  16.220  0.00  0.00    +0.000 HD
ATOM     15  H   UNL     1       7.219   6.697  15.737  0.00  0.00    +0.000 HD
ENDROOT
BRANCH   1  19
ATOM     16  C   UNL     1       8.689   9.707  18.409  0.00  0.00    +0.000 A 
ATOM     17  C   UNL     1       7.747  10.105  17.488  0.00  0.00    +0.000 A 
ATOM     18  N   UNL     1       7.099   8.964  17.108  0.00  0.00    +0.000 N 
ATOM     19  C   UNL     1       7.658   7.918  17.805  0.00  0.00    +0.000 A 
ATOM     20  N   UNL     1       8.625   8.348  18.587  0.00  0.00    +0.000 NA
ATOM     21  H   UNL     1       6.328   8.901  16.464  0.00  0.00    +0.000 HD
BRANCH  16  27
ATOM     22  F   UNL     1       9.851  12.356  22.267  0.00  0.00    +0.000 F 
ATOM     23  C   UNL     1      10.173  11.886  21.053  0.00  0.00    +0.000 A 
ATOM     24  C   UNL     1      11.410  12.213  20.506  0.00  0.00    +0.000 A 
ATOM     25  C   UNL     1      11.750  11.727  19.244  0.00  0.00    +0.000 A 
ATOM     26  C   UNL     1      10.855  10.914  18.554  0.00  0.00    +0.000 A 
ATOM     27  C   UNL     1       9.612  10.573  19.111  0.00  0.00    +0.000 A 
ATOM     28  C   UNL     1       9.272  11.082  20.372  0.00  0.00    +0.000 A 
ENDBRANCH  16  27
ENDBRANCH   1  19
BRANCH  12  29
ATOM     29  C   UNL     1       6.584   4.713  14.456  0.00  0.00    +0.000 C 
ATOM     30  C   UNL     1       6.093   3.368  13.878  0.00  0.00    +0.000 C 
ATOM     31  C   UNL     1       5.936   3.441  12.364  0.00  0.00    +0.000 C 
ATOM     32  O   UNL     1       7.144   3.867  11.739  0.00  0.00    +0.000 OA
ATOM     33  C   UNL     1       7.526   5.176  12.152  0.00  0.00    +0.000 C 
ATOM     34  C   UNL     1       7.806   5.191  13.647  0.00  0.00    +0.000 C 
ENDBRANCH  12  29
TORSDOF 3
ENDMDL
MODEL 6
REMARK VINA RESULT:      -9.7      5.128      8.203
REMARK  Name = 
REMARK  3 active torsions:
REMARK  status: ('A' for Active; 'I' for Inactive)
REMARK    1  A    between atoms: C_6  and  C_7
REMARK    2  A    between atoms: C_10  and  C_11
REMARK    3  A    between atoms: C_22  and  C_23
REMARK                            x       y       z     vdW  Elec       q    Type
REMARK                         _______ _______ _______ _____ _____    ______ ____
ROOT
ATOM      1  C   UNL     1       7.076   6.501  17.706  0.00  0.00    +0.000 C 
ATOM      2  C   UNL     1       5.552   6.495  18.027  0.00  0.00    +0.000 C 
ATOM      3  C   UNL     1       4.990   5.159  17.712  0.00  0.00    +0.000 A 
ATOM      4  C   UNL     1       5.612   4.350  16.785  0.00  0.00    +0.000 A 
ATOM      5  N   UNL     1       4.929   3.164  16.761  0.00  0.00    +0.000 N 
ATOM      6  C   UNL     1       3.777   3.264  17.503  0.00  0.00    +0.000 A 
ATOM      7  C   UNL     1       2.717   2.359  17.634  0.00  0.00    +0.000 A 
ATOM      8  C   UNL     1       1.687   2.701  18.511  0.00  0.00    +0.000 A 
ATOM      9  C   UNL     1       1.724   3.893  19.231  0.00  0.00    +0.000 A 
ATOM     10  C   UNL     1       2.783   4.798  19.068  0.00  0.00    +0.000 A 
ATOM     11  C   UNL     1       3.823   4.489  18.171  0.00  0.00    +0.000 A 
ATOM     12  C   UNL     1       6.836   4.665  15.983  0.00  0.00    +0.000 C 
ATOM     13  N   UNL     1       7.443   5.963  16.370  0.00  0.00    +0.000 NA
ATOM     14  H   UNL     1       5.178   2.345  16.227  0.00  0.00    +0.000 HD
ATOM     15  H   UNL     1       7.161   6.682  15.704  0.00  0.00    +0.000 HD
ENDROOT
BRANCH   1  19
ATOM     16  C   UNL     1       8.589   9.740  18.332  0.00  0.00    +0.000 A 
ATOM     17  C   UNL     1       7.584  10.118  17.471  0.00  0.00    +0.000 A 
ATOM     18  N   UNL     1       6.953   8.960  17.112  0.00  0.00    +0.000 N 
ATOM     19  C   UNL     1       7.584   7.925  17.762  0.00  0.00    +0.000 A 
ATOM     20  N   UNL     1       8.580   8.377  18.494  0.00  0.00    +0.000 NA
ATOM     21  H   UNL     1       6.149   8.880  16.512  0.00  0.00    +0.000 HD
BRANCH  16  27
ATOM     22  F   UNL     1      12.331  12.778  18.165  0.00  0.00    +0.000 F 
ATOM     23  C   UNL     1      11.390  12.147  18.883  0.00  0.00    +0.000 A 
ATOM     24  C   UNL     1      11.309  12.387  20.251  0.00  0.00    +0.000 A 
ATOM     25  C   UNL     1      10.333  11.733  21.003  0.00  0.00    +0.000 A 
ATOM     26  C   UNL     1       9.449  10.859  20.376  0.00  0.00    +0.000 A 
ATOM     27  C   UNL     1       9.523  10.628  18.993  0.00  0.00    +0.000 A 
ATOM     28  C   UNL     1      10.518  11.275  18.249  0.00  0.00    +0.000 A 
ENDBRANCH  16  27
ENDBRANCH   1  19
BRANCH  12  29
ATOM     29  C   UNL     1       6.574   4.675  14.438  0.00  0.00    +0.000 C 
ATOM     30  C   UNL     1       6.089   3.321  13.876  0.00  0.00    +0.000 C 
ATOM     31  C   UNL     1       5.916   3.380  12.363  0.00  0.00    +0.000 C 
ATOM     32  O   UNL     1       7.113   3.812  11.721  0.00  0.00    +0.000 OA
ATOM     33  C   UNL     1       7.487   5.129  12.120  0.00  0.00    +0.000 C 
ATOM     34  C   UNL     1       7.782   5.158  13.611  0.00  0.00    +0.000 C 
ENDBRANCH  12  29
TORSDOF 3
ENDMDL
MODEL 7
REMARK VINA RESULT:      -9.4      5.100      8.041
REMARK  Name = 
REMARK  3 active torsions:
REMARK  status: ('A' for Active; 'I' for Inactive)
REMARK    1  A    between atoms: C_6  and  C_7
REMARK    2  A    between atoms: C_10  and  C_11
REMARK    3  A    between atoms: C_22  and  C_23
REMARK                            x       y       z     vdW  Elec       q    Type
REMARK                         _______ _______ _______ _____ _____    ______ ____
ROOT
ATOM      1  C   UNL     1       0.945  10.398  19.253  0.00  0.00    +0.000 C 
ATOM      2  C   UNL     1       1.774  11.567  18.644  0.00  0.00    +0.000 C 
ATOM      3  C   UNL     1       0.995  12.825  18.744  0.00  0.00    +0.000 A 
ATOM      4  C   UNL     1      -0.380  12.781  18.821  0.00  0.00    +0.000 A 
ATOM      5  N   UNL     1      -0.817  14.067  18.987  0.00  0.00    +0.000 N 
ATOM      6  C   UNL     1       0.225  14.948  18.824  0.00  0.00    +0.000 A 
ATOM      7  C   UNL     1       0.212  16.346  18.759  0.00  0.00    +0.000 A 
ATOM      8  C   UNL     1       1.442  16.995  18.642  0.00  0.00    +0.000 A 
ATOM      9  C   UNL     1       2.632  16.272  18.603  0.00  0.00    +0.000 A 
ATOM     10  C   UNL     1       2.623  14.870  18.645  0.00  0.00    +0.000 A 
ATOM     11  C   UNL     1       1.394  14.190  18.737  0.00  0.00    +0.000 A 
ATOM     12  C   UNL     1      -1.251  11.564  18.788  0.00  0.00    +0.000 C 
ATOM     13  N   UNL     1      -0.461  10.308  18.780  0.00  0.00    +0.000 NA
ATOM     14  H   UNL     1      -1.772  14.357  19.137  0.00  0.00    +0.000 HD
ATOM     15  H   UNL     1      -0.402   9.949  17.828  0.00  0.00    +0.000 HD
ENDROOT
BRANCH   1  19
ATOM     16  C   UNL     1       2.452   7.107  18.986  0.00  0.00    +0.000 A 
ATOM     17  C   UNL     1       2.965   7.689  17.850  0.00  0.00    +0.000 A 
ATOM     18  N   UNL     1       2.425   8.943  17.803  0.00  0.00    +0.000 N 
ATOM     19  C   UNL     1       1.613   9.087  18.903  0.00  0.00    +0.000 A 
ATOM     20  N   UNL     1       1.609   7.985  19.622  0.00  0.00    +0.000 NA
ATOM     21  H   UNL     1       2.616   9.649  17.111  0.00  0.00    +0.000 HD
BRANCH  16  27
ATOM     22  F   UNL     1       1.273   3.230  21.601  0.00  0.00    +0.000 F 
ATOM     23  C   UNL     1       2.135   3.848  20.780  0.00  0.00    +0.000 A 
ATOM     24  C   UNL     1       3.289   3.178  20.382  0.00  0.00    +0.000 A 
ATOM     25  C   UNL     1       4.190   3.815  19.530  0.00  0.00    +0.000 A 
ATOM     26  C   UNL     1       3.920   5.106  19.080  0.00  0.00    +0.000 A 
ATOM     27  C   UNL     1       2.750   5.776  19.471  0.00  0.00    +0.000 A 
ATOM     28  C   UNL     1       1.860   5.134  20.343  0.00  0.00    +0.000 A 
ENDBRANCH  16  27
ENDBRANCH   1  19
BRANCH  12  29
ATOM     29  C   UNL     1      -2.236  11.545  17.569  0.00  0.00    +0.000 C 
ATOM     30  C   UNL     1      -3.726  11.631  17.966  0.00  0.00    +0.000 C 
ATOM     31  C   UNL     1      -4.630  11.543  16.742  0.00  0.00    +0.000 C 
ATOM     32  O   UNL     1      -4.359  10.368  15.982  0.00  0.00    +0.000 OA
ATOM     33  C   UNL     1      -3.025  10.353  15.480  0.00  0.00    +0.000 C 
ATOM     34  C   UNL     1      -2.034  10.338  16.633  0.00  0.00    +0.000 C 
ENDBRANCH  12  29
TORSDOF 3
ENDMDL
MODEL 8
REMARK VINA RESULT:      -9.3      4.917      8.009
REMARK  Name = 
REMARK  3 active torsions:
REMARK  status: ('A' for Active; 'I' for Inactive)
REMARK    1  A    between atoms: C_6  and  C_7
REMARK    2  A    between atoms: C_10  and  C_11
REMARK    3  A    between atoms: C_22  and  C_23
REMARK                            x       y       z     vdW  Elec       q    Type
REMARK                         _______ _______ _______ _____ _____    ______ ____
ROOT
ATOM      1  C   UNL     1       0.866  10.594  19.327  0.00  0.00    +0.000 C 
ATOM      2  C   UNL     1       1.691  11.734  18.660  0.00  0.00    +0.000 C 
ATOM      3  C   UNL     1       0.936  13.008  18.757  0.00  0.00    +0.000 A 
ATOM      4  C   UNL     1      -0.436  12.988  18.886  0.00  0.00    +0.000 A 
ATOM      5  N   UNL     1      -0.845  14.286  19.037  0.00  0.00    +0.000 N 
ATOM      6  C   UNL     1       0.203  15.144  18.814  0.00  0.00    +0.000 A 
ATOM      7  C   UNL     1       0.210  16.540  18.715  0.00  0.00    +0.000 A 
ATOM      8  C   UNL     1       1.446  17.165  18.537  0.00  0.00    +0.000 A 
ATOM      9  C   UNL     1       2.622  16.422  18.471  0.00  0.00    +0.000 A 
ATOM     10  C   UNL     1       2.592  15.021  18.548  0.00  0.00    +0.000 A 
ATOM     11  C   UNL     1       1.356  14.365  18.702  0.00  0.00    +0.000 A 
ATOM     12  C   UNL     1      -1.327  11.786  18.915  0.00  0.00    +0.000 C 
ATOM     13  N   UNL     1      -0.558  10.517  18.909  0.00  0.00    +0.000 NA
ATOM     14  H   UNL     1      -1.790  14.594  19.215  0.00  0.00    +0.000 HD
ATOM     15  H   UNL     1      -0.540  10.134  17.964  0.00  0.00    +0.000 HD
ENDROOT
BRANCH   1  19
ATOM     16  C   UNL     1       2.297   7.268  19.082  0.00  0.00    +0.000 A 
ATOM     17  C   UNL     1       2.804   7.822  17.929  0.00  0.00    +0.000 A 
ATOM     18  N   UNL     1       2.291   9.087  17.874  0.00  0.00    +0.000 N 
ATOM     19  C   UNL     1       1.500   9.264  18.985  0.00  0.00    +0.000 A 
ATOM     20  N   UNL     1       1.484   8.172  19.719  0.00  0.00    +0.000 NA
ATOM     21  H   UNL     1       2.485   9.780  17.170  0.00  0.00    +0.000 HD
BRANCH  16  27
ATOM     22  F   UNL     1       5.015   3.285  19.134  0.00  0.00    +0.000 F 
ATOM     23  C   UNL     1       3.951   3.960  19.593  0.00  0.00    +0.000 A 
ATOM     24  C   UNL     1       3.150   3.377  20.571  0.00  0.00    +0.000 A 
ATOM     25  C   UNL     1       2.042   4.073  21.052  0.00  0.00    +0.000 A 
ATOM     26  C   UNL     1       1.758   5.344  20.558  0.00  0.00    +0.000 A 
ATOM     27  C   UNL     1       2.573   5.937  19.581  0.00  0.00    +0.000 A 
ATOM     28  C   UNL     1       3.673   5.221  19.090  0.00  0.00    +0.000 A 
ENDBRANCH  16  27
ENDBRANCH   1  19
BRANCH  12  29
ATOM     29  C   UNL     1      -2.356  11.755  17.734  0.00  0.00    +0.000 C 
ATOM     30  C   UNL     1      -3.828  11.644  18.189  0.00  0.00    +0.000 C 
ATOM     31  C   UNL     1      -4.770  11.554  16.995  0.00  0.00    +0.000 C 
ATOM     32  O   UNL     1      -4.410  10.479  16.130  0.00  0.00    +0.000 OA
ATOM     33  C   UNL     1      -3.105  10.650  15.582  0.00  0.00    +0.000 C 
ATOM     34  C   UNL     1      -2.068  10.654  16.694  0.00  0.00    +0.000 C 
ENDBRANCH  12  29
TORSDOF 3
ENDMDL
MODEL 9
REMARK VINA RESULT:      -9.3      4.259      7.586
REMARK  Name = 
REMARK  3 active torsions:
REMARK  status: ('A' for Active; 'I' for Inactive)
REMARK    1  A    between atoms: C_6  and  C_7
REMARK    2  A    between atoms: C_10  and  C_11
REMARK    3  A    between atoms: C_22  and  C_23
REMARK                            x       y       z     vdW  Elec       q    Type
REMARK                         _______ _______ _______ _____ _____    ______ ____
ROOT
ATOM      1  C   UNL     1       0.529  10.559  19.980  0.00  0.00    +0.000 C 
ATOM      2  C   UNL     1       1.469  11.642  19.373  0.00  0.00    +0.000 C 
ATOM      3  C   UNL     1       0.707  12.898  19.174  0.00  0.00    +0.000 A 
ATOM      4  C   UNL     1      -0.662  12.858  19.022  0.00  0.00    +0.000 A 
ATOM      5  N   UNL     1      -1.098  14.153  18.941  0.00  0.00    +0.000 N 
ATOM      6  C   UNL     1      -0.028  15.009  18.843  0.00  0.00    +0.000 A 
ATOM      7  C   UNL     1      -0.006  16.386  18.594  0.00  0.00    +0.000 A 
ATOM      8  C   UNL     1       1.238  17.020  18.604  0.00  0.00    +0.000 A 
ATOM      9  C   UNL     1       2.405  16.304  18.862  0.00  0.00    +0.000 A 
ATOM     10  C   UNL     1       2.364  14.920  19.085  0.00  0.00    +0.000 A 
ATOM     11  C   UNL     1       1.125  14.253  19.056  0.00  0.00    +0.000 A 
ATOM     12  C   UNL     1      -1.536  11.643  19.001  0.00  0.00    +0.000 C 
ATOM     13  N   UNL     1      -0.778  10.401  19.292  0.00  0.00    +0.000 NA
ATOM     14  H   UNL     1      -2.060  14.455  18.888  0.00  0.00    +0.000 HD
ATOM     15  H   UNL     1      -0.566   9.920  18.419  0.00  0.00    +0.000 HD
ENDROOT
BRANCH   1  19
ATOM     16  C   UNL     1       2.197   7.419  19.251  0.00  0.00    +0.000 A 
ATOM     17  C   UNL     1       1.779   7.166  20.538  0.00  0.00    +0.000 A 
ATOM     18  N   UNL     1       1.166   8.312  20.958  0.00  0.00    +0.000 N 
ATOM     19  C   UNL     1       1.223   9.216  19.923  0.00  0.00    +0.000 A 
ATOM     20  N   UNL     1       1.851   8.698  18.890  0.00  0.00    +0.000 NA
ATOM     21  H   UNL     1       0.718   8.457  21.847  0.00  0.00    +0.000 HD
BRANCH  16  27
ATOM     22  F   UNL     1       5.698   6.447  16.080  0.00  0.00    +0.000 F 
ATOM     23  C   UNL     1       4.648   6.028  16.802  0.00  0.00    +0.000 A 
ATOM     24  C   UNL     1       4.263   4.693  16.724  0.00  0.00    +0.000 A 
ATOM     25  C   UNL     1       3.171   4.252  17.471  0.00  0.00    +0.000 A 
ATOM     26  C   UNL     1       2.489   5.147  18.292  0.00  0.00    +0.000 A 
ATOM     27  C   UNL     1       2.886   6.491  18.380  0.00  0.00    +0.000 A 
ATOM     28  C   UNL     1       3.972   6.929  17.611  0.00  0.00    +0.000 A 
ENDBRANCH  16  27
ENDBRANCH   1  19
BRANCH  12  29
ATOM     29  C   UNL     1      -2.301  11.458  17.647  0.00  0.00    +0.000 C 
ATOM     30  C   UNL     1      -3.837  11.556  17.775  0.00  0.00    +0.000 C 
ATOM     31  C   UNL     1      -4.522  11.305  16.437  0.00  0.00    +0.000 C 
ATOM     32  O   UNL     1      -4.124  10.055  15.879  0.00  0.00    +0.000 OA
ATOM     33  C   UNL     1      -2.725  10.011  15.613  0.00  0.00    +0.000 C 
ATOM     34  C   UNL     1      -1.942  10.154  16.908  0.00  0.00    +0.000 C 
ENDBRANCH  12  29
TORSDOF 3
ENDMDL
