MODEL 1
REMARK VINA RESULT:      -6.6      0.000      0.000
REMARK  Name = 
REMARK  4 active torsions:
REMARK  status: ('A' for Active; 'I' for Inactive)
REMARK    1  A    between atoms: C_1  and  O_2
REMARK    2  A    between atoms: O_2  and  C_3
REMARK    3  A    between atoms: C_4  and  O_5
REMARK    4  A    between atoms: C_9  and  C_10
REMARK                            x       y       z     vdW  Elec       q    Type
REMARK                         _______ _______ _______ _____ _____    ______ ____
ROOT
ATOM      1  C   UNL     1       5.942   6.209  16.526  0.00  0.00    +0.000 A 
ATOM      2  C   UNL     1       6.513   5.181  15.772  0.00  0.00    +0.000 A 
ATOM      3  C   UNL     1       5.885   3.952  15.635  0.00  0.00    +0.000 A 
ATOM      4  C   UNL     1       4.667   3.720  16.282  0.00  0.00    +0.000 A 
ATOM      5  C   UNL     1       4.052   4.725  17.044  0.00  0.00    +0.000 A 
ATOM      6  C   UNL     1       2.799   4.533  17.796  0.00  0.00    +0.000 A 
ATOM      7  C   UNL     1       2.115   3.203  17.916  0.00  0.00    +0.000 C 
ATOM      8  C   UNL     1       2.269   5.584  18.443  0.00  0.00    +0.000 A 
ATOM      9  C   UNL     1       2.860   6.923  18.439  0.00  0.00    +0.000 A 
ATOM     10  O   UNL     1       2.326   7.857  19.023  0.00  0.00    +0.000 OA
ATOM     11  O   UNL     1       4.055   7.054  17.766  0.00  0.00    +0.000 OA
ATOM     12  C   UNL     1       4.692   5.975  17.114  0.00  0.00    +0.000 A 
ENDROOT
BRANCH   1  14
ATOM     13  C   UNL     1       7.600   7.453  17.688  0.00  0.00    +0.000 C 
ATOM     14  O   UNL     1       6.690   7.359  16.594  0.00  0.00    +0.000 OA
ENDBRANCH   1  14
BRANCH   2  15
ATOM     15  O   UNL     1       7.727   5.353  15.164  0.00  0.00    +0.000 OA
ATOM     16  H   UNL     1       7.897   6.315  15.194  0.00  0.00    +0.000 HD
ENDBRANCH   2  15
TORSDOF 2
ENDMDL
MODEL 2
REMARK VINA RESULT:      -6.6      3.009      4.930
REMARK  Name = 
REMARK  4 active torsions:
REMARK  status: ('A' for Active; 'I' for Inactive)
REMARK    1  A    between atoms: C_1  and  O_2
REMARK    2  A    between atoms: O_2  and  C_3
REMARK    3  A    between atoms: C_4  and  O_5
REMARK    4  A    between atoms: C_9  and  C_10
REMARK                            x       y       z     vdW  Elec       q    Type
REMARK                         _______ _______ _______ _____ _____    ______ ____
ROOT
ATOM      1  C   UNL     1       3.622   2.924  19.337  0.00  0.00    +0.000 A 
ATOM      2  C   UNL     1       2.618   2.476  18.475  0.00  0.00    +0.000 A 
ATOM      3  C   UNL     1       2.491   2.984  17.189  0.00  0.00    +0.000 A 
ATOM      4  C   UNL     1       3.365   3.983  16.749  0.00  0.00    +0.000 A 
ATOM      5  C   UNL     1       4.394   4.458  17.578  0.00  0.00    +0.000 A 
ATOM      6  C   UNL     1       5.315   5.544  17.199  0.00  0.00    +0.000 A 
ATOM      7  C   UNL     1       5.171   6.332  15.931  0.00  0.00    +0.000 C 
ATOM      8  C   UNL     1       6.301   5.877  18.049  0.00  0.00    +0.000 A 
ATOM      9  C   UNL     1       6.524   5.215  19.335  0.00  0.00    +0.000 A 
ATOM     10  O   UNL     1       7.453   5.535  20.065  0.00  0.00    +0.000 OA
ATOM     11  O   UNL     1       5.615   4.236  19.676  0.00  0.00    +0.000 OA
ATOM     12  C   UNL     1       4.525   3.879  18.853  0.00  0.00    +0.000 A 
ENDROOT
BRANCH   1  14
ATOM     13  C   UNL     1       2.681   2.901  21.518  0.00  0.00    +0.000 C 
ATOM     14  O   UNL     1       3.608   2.351  20.585  0.00  0.00    +0.000 OA
ENDBRANCH   1  14
BRANCH   2  15
ATOM     15  O   UNL     1       1.714   1.536  18.885  0.00  0.00    +0.000 OA
ATOM     16  H   UNL     1       1.376   1.126  18.065  0.00  0.00    +0.000 HD
ENDBRANCH   2  15
TORSDOF 2
ENDMDL
MODEL 3
REMARK VINA RESULT:      -6.5      2.723      3.587
REMARK  Name = 
REMARK  4 active torsions:
REMARK  status: ('A' for Active; 'I' for Inactive)
REMARK    1  A    between atoms: C_1  and  O_2
REMARK    2  A    between atoms: O_2  and  C_3
REMARK    3  A    between atoms: C_4  and  O_5
REMARK    4  A    between atoms: C_9  and  C_10
REMARK                            x       y       z     vdW  Elec       q    Type
REMARK                         _______ _______ _______ _____ _____    ______ ____
ROOT
ATOM      1  C   UNL     1       5.287   4.984  17.570  0.00  0.00    +0.000 A 
ATOM      2  C   UNL     1       4.792   6.189  17.067  0.00  0.00    +0.000 A 
ATOM      3  C   UNL     1       3.611   6.741  17.544  0.00  0.00    +0.000 A 
ATOM      4  C   UNL     1       2.882   6.068  18.530  0.00  0.00    +0.000 A 
ATOM      5  C   UNL     1       3.344   4.858  19.071  0.00  0.00    +0.000 A 
ATOM      6  C   UNL     1       2.601   4.071  20.071  0.00  0.00    +0.000 A 
ATOM      7  C   UNL     1       1.218   4.428  20.527  0.00  0.00    +0.000 C 
ATOM      8  C   UNL     1       3.168   2.957  20.563  0.00  0.00    +0.000 A 
ATOM      9  C   UNL     1       4.494   2.478  20.170  0.00  0.00    +0.000 A 
ATOM     10  O   UNL     1       4.981   1.470  20.666  0.00  0.00    +0.000 OA
ATOM     11  O   UNL     1       5.139   3.213  19.199  0.00  0.00    +0.000 OA
ATOM     12  C   UNL     1       4.573   4.361  18.602  0.00  0.00    +0.000 A 
ENDROOT
BRANCH   1  14
ATOM     13  C   UNL     1       7.642   4.725  17.748  0.00  0.00    +0.000 C 
ATOM     14  O   UNL     1       6.450   4.549  16.984  0.00  0.00    +0.000 OA
ENDBRANCH   1  14
BRANCH   2  15
ATOM     15  O   UNL     1       5.451   6.852  16.067  0.00  0.00    +0.000 OA
ATOM     16  H   UNL     1       5.792   6.153  15.475  0.00  0.00    +0.000 HD
ENDBRANCH   2  15
TORSDOF 2
ENDMDL
MODEL 4
REMARK VINA RESULT:      -6.5      2.523      3.121
REMARK  Name = 
REMARK  4 active torsions:
REMARK  status: ('A' for Active; 'I' for Inactive)
REMARK    1  A    between atoms: C_1  and  O_2
REMARK    2  A    between atoms: O_2  and  C_3
REMARK    3  A    between atoms: C_4  and  O_5
REMARK    4  A    between atoms: C_9  and  C_10
REMARK                            x       y       z     vdW  Elec       q    Type
REMARK                         _______ _______ _______ _____ _____    ______ ____
ROOT
ATOM      1  C   UNL     1       6.510   5.343  18.098  0.00  0.00    +0.000 A 
ATOM      2  C   UNL     1       6.337   6.453  17.269  0.00  0.00    +0.000 A 
ATOM      3  C   UNL     1       5.082   6.818  16.803  0.00  0.00    +0.000 A 
ATOM      4  C   UNL     1       3.966   6.048  17.144  0.00  0.00    +0.000 A 
ATOM      5  C   UNL     1       4.091   4.928  17.981  0.00  0.00    +0.000 A 
ATOM      6  C   UNL     1       2.967   4.043  18.337  0.00  0.00    +0.000 A 
ATOM      7  C   UNL     1       1.597   4.184  17.744  0.00  0.00    +0.000 C 
ATOM      8  C   UNL     1       3.190   3.033  19.195  0.00  0.00    +0.000 A 
ATOM      9  C   UNL     1       4.491   2.763  19.811  0.00  0.00    +0.000 A 
ATOM     10  O   UNL     1       4.640   1.846  20.609  0.00  0.00    +0.000 OA
ATOM     11  O   UNL     1       5.527   3.582  19.419  0.00  0.00    +0.000 OA
ATOM     12  C   UNL     1       5.370   4.624  18.479  0.00  0.00    +0.000 A 
ENDROOT
BRANCH   1  14
ATOM     13  C   UNL     1       8.229   5.619  19.715  0.00  0.00    +0.000 C 
ATOM     14  O   UNL     1       7.811   5.089  18.459  0.00  0.00    +0.000 OA
ENDBRANCH   1  14
BRANCH   2  15
ATOM     15  O   UNL     1       7.412   7.203  16.874  0.00  0.00    +0.000 OA
ATOM     16  H   UNL     1       7.396   7.182  15.897  0.00  0.00    +0.000 HD
ENDBRANCH   2  15
TORSDOF 2
ENDMDL
MODEL 5
REMARK VINA RESULT:      -6.3      1.893      3.182
REMARK  Name = 
REMARK  4 active torsions:
REMARK  status: ('A' for Active; 'I' for Inactive)
REMARK    1  A    between atoms: C_1  and  O_2
REMARK    2  A    between atoms: O_2  and  C_3
REMARK    3  A    between atoms: C_4  and  O_5
REMARK    4  A    between atoms: C_9  and  C_10
REMARK                            x       y       z     vdW  Elec       q    Type
REMARK                         _______ _______ _______ _____ _____    ______ ____
ROOT
ATOM      1  C   UNL     1       5.663   4.643  16.026  0.00  0.00    +0.000 A 
ATOM      2  C   UNL     1       6.548   5.723  16.073  0.00  0.00    +0.000 A 
ATOM      3  C   UNL     1       6.273   6.850  16.835  0.00  0.00    +0.000 A 
ATOM      4  C   UNL     1       5.076   6.924  17.554  0.00  0.00    +0.000 A 
ATOM      5  C   UNL     1       4.160   5.860  17.543  0.00  0.00    +0.000 A 
ATOM      6  C   UNL     1       2.858   5.893  18.233  0.00  0.00    +0.000 A 
ATOM      7  C   UNL     1       2.329   7.116  18.921  0.00  0.00    +0.000 C 
ATOM      8  C   UNL     1       2.087   4.793  18.204  0.00  0.00    +0.000 A 
ATOM      9  C   UNL     1       2.469   3.550  17.532  0.00  0.00    +0.000 A 
ATOM     10  O   UNL     1       1.744   2.564  17.556  0.00  0.00    +0.000 OA
ATOM     11  O   UNL     1       3.671   3.572  16.859  0.00  0.00    +0.000 OA
ATOM     12  C   UNL     1       4.500   4.713  16.804  0.00  0.00    +0.000 A 
ENDROOT
BRANCH   1  14
ATOM     13  C   UNL     1       5.788   3.773  13.819  0.00  0.00    +0.000 C 
ATOM     14  O   UNL     1       6.056   3.611  15.210  0.00  0.00    +0.000 OA
ENDBRANCH   1  14
BRANCH   2  15
ATOM     15  O   UNL     1       7.706   5.708  15.345  0.00  0.00    +0.000 OA
ATOM     16  H   UNL     1       7.804   4.787  15.033  0.00  0.00    +0.000 HD
ENDBRANCH   2  15
TORSDOF 2
ENDMDL
MODEL 6
REMARK VINA RESULT:      -6.2      2.664      4.484
REMARK  Name = 
REMARK  4 active torsions:
REMARK  status: ('A' for Active; 'I' for Inactive)
REMARK    1  A    between atoms: C_1  and  O_2
REMARK    2  A    between atoms: O_2  and  C_3
REMARK    3  A    between atoms: C_4  and  O_5
REMARK    4  A    between atoms: C_9  and  C_10
REMARK                            x       y       z     vdW  Elec       q    Type
REMARK                         _______ _______ _______ _____ _____    ______ ____
ROOT
ATOM      1  C   UNL     1       2.084   3.628  18.842  0.00  0.00    +0.000 A 
ATOM      2  C   UNL     1       2.695   2.470  18.356  0.00  0.00    +0.000 A 
ATOM      3  C   UNL     1       3.789   2.533  17.505  0.00  0.00    +0.000 A 
ATOM      4  C   UNL     1       4.280   3.778  17.099  0.00  0.00    +0.000 A 
ATOM      5  C   UNL     1       3.703   4.968  17.568  0.00  0.00    +0.000 A 
ATOM      6  C   UNL     1       4.134   6.311  17.140  0.00  0.00    +0.000 A 
ATOM      7  C   UNL     1       5.159   6.537  16.069  0.00  0.00    +0.000 C 
ATOM      8  C   UNL     1       3.550   7.383  17.700  0.00  0.00    +0.000 A 
ATOM      9  C   UNL     1       2.508   7.299  18.725  0.00  0.00    +0.000 A 
ATOM     10  O   UNL     1       2.023   8.305  19.226  0.00  0.00    +0.000 OA
ATOM     11  O   UNL     1       2.098   6.028  19.066  0.00  0.00    +0.000 OA
ATOM     12  C   UNL     1       2.632   4.863  18.473  0.00  0.00    +0.000 A 
ENDROOT
BRANCH   1  14
ATOM     13  C   UNL     1       1.266   3.313  21.050  0.00  0.00    +0.000 C 
ATOM     14  O   UNL     1       0.997   3.410  19.653  0.00  0.00    +0.000 OA
ENDBRANCH   1  14
BRANCH   2  15
ATOM     15  O   UNL     1       2.213   1.233  18.691  0.00  0.00    +0.000 OA
ATOM     16  H   UNL     1       2.616   1.024  19.556  0.00  0.00    +0.000 HD
ENDBRANCH   2  15
TORSDOF 2
ENDMDL
MODEL 7
REMARK VINA RESULT:      -6.2      2.794      4.887
REMARK  Name = 
REMARK  4 active torsions:
REMARK  status: ('A' for Active; 'I' for Inactive)
REMARK    1  A    between atoms: C_1  and  O_2
REMARK    2  A    between atoms: O_2  and  C_3
REMARK    3  A    between atoms: C_4  and  O_5
REMARK    4  A    between atoms: C_9  and  C_10
REMARK                            x       y       z     vdW  Elec       q    Type
REMARK                         _______ _______ _______ _____ _____    ______ ____
ROOT
ATOM      1  C   UNL     1       3.541   2.806  18.684  0.00  0.00    +0.000 A 
ATOM      2  C   UNL     1       2.152   2.681  18.597  0.00  0.00    +0.000 A 
ATOM      3  C   UNL     1       1.354   3.745  18.201  0.00  0.00    +0.000 A 
ATOM      4  C   UNL     1       1.942   4.979  17.906  0.00  0.00    +0.000 A 
ATOM      5  C   UNL     1       3.334   5.149  17.972  0.00  0.00    +0.000 A 
ATOM      6  C   UNL     1       4.014   6.434  17.728  0.00  0.00    +0.000 A 
ATOM      7  C   UNL     1       3.275   7.718  17.497  0.00  0.00    +0.000 C 
ATOM      8  C   UNL     1       5.356   6.467  17.759  0.00  0.00    +0.000 A 
ATOM      9  C   UNL     1       6.193   5.293  18.015  0.00  0.00    +0.000 A 
ATOM     10  O   UNL     1       7.415   5.367  18.008  0.00  0.00    +0.000 OA
ATOM     11  O   UNL     1       5.522   4.121  18.285  0.00  0.00    +0.000 OA
ATOM     12  C   UNL     1       4.113   4.033  18.323  0.00  0.00    +0.000 A 
ENDROOT
BRANCH   1  14
ATOM     13  C   UNL     1       4.694   1.713  20.451  0.00  0.00    +0.000 C 
ATOM     14  O   UNL     1       4.196   1.679  19.115  0.00  0.00    +0.000 OA
ENDBRANCH   1  14
BRANCH   2  15
ATOM     15  O   UNL     1       1.536   1.504  18.925  0.00  0.00    +0.000 OA
ATOM     16  H   UNL     1       2.173   1.028  19.493  0.00  0.00    +0.000 HD
ENDBRANCH   2  15
TORSDOF 2
ENDMDL
MODEL 8
REMARK VINA RESULT:      -6.2      2.667      5.081
REMARK  Name = 
REMARK  4 active torsions:
REMARK  status: ('A' for Active; 'I' for Inactive)
REMARK    1  A    between atoms: C_1  and  O_2
REMARK    2  A    between atoms: O_2  and  C_3
REMARK    3  A    between atoms: C_4  and  O_5
REMARK    4  A    between atoms: C_9  and  C_10
REMARK                            x       y       z     vdW  Elec       q    Type
REMARK                         _______ _______ _______ _____ _____    ______ ____
ROOT
ATOM      1  C   UNL     1       2.603   4.156  19.828  0.00  0.00    +0.000 A 
ATOM      2  C   UNL     1       1.517   3.632  19.123  0.00  0.00    +0.000 A 
ATOM      3  C   UNL     1       1.596   3.372  17.762  0.00  0.00    +0.000 A 
ATOM      4  C   UNL     1       2.776   3.661  17.069  0.00  0.00    +0.000 A 
ATOM      5  C   UNL     1       3.896   4.181  17.737  0.00  0.00    +0.000 A 
ATOM      6  C   UNL     1       5.150   4.559  17.061  0.00  0.00    +0.000 A 
ATOM      7  C   UNL     1       5.314   4.534  15.571  0.00  0.00    +0.000 C 
ATOM      8  C   UNL     1       6.179   4.991  17.809  0.00  0.00    +0.000 A 
ATOM      9  C   UNL     1       6.133   5.101  19.268  0.00  0.00    +0.000 A 
ATOM     10  O   UNL     1       7.106   5.474  19.911  0.00  0.00    +0.000 OA
ATOM     11  O   UNL     1       4.930   4.784  19.861  0.00  0.00    +0.000 OA
ATOM     12  C   UNL     1       3.795   4.378  19.125  0.00  0.00    +0.000 A 
ENDROOT
BRANCH   1  14
ATOM     13  C   UNL     1       2.278   3.230  21.991  0.00  0.00    +0.000 C 
ATOM     14  O   UNL     1       2.369   4.386  21.161  0.00  0.00    +0.000 OA
ENDBRANCH   1  14
BRANCH   2  15
ATOM     15  O   UNL     1       0.330   3.382  19.756  0.00  0.00    +0.000 OA
ATOM     16  H   UNL     1       0.155   2.432  19.611  0.00  0.00    +0.000 HD
ENDBRANCH   2  15
TORSDOF 2
ENDMDL
MODEL 9
REMARK VINA RESULT:      -6.1      2.380      3.580
REMARK  Name = 
REMARK  4 active torsions:
REMARK  status: ('A' for Active; 'I' for Inactive)
REMARK    1  A    between atoms: C_1  and  O_2
REMARK    2  A    between atoms: O_2  and  C_3
REMARK    3  A    between atoms: C_4  and  O_5
REMARK    4  A    between atoms: C_9  and  C_10
REMARK                            x       y       z     vdW  Elec       q    Type
REMARK                         _______ _______ _______ _____ _____    ______ ____
ROOT
ATOM      1  C   UNL     1       4.731   5.021  16.619  0.00  0.00    +0.000 A 
ATOM      2  C   UNL     1       4.634   6.414  16.622  0.00  0.00    +0.000 A 
ATOM      3  C   UNL     1       3.846   7.082  17.548  0.00  0.00    +0.000 A 
ATOM      4  C   UNL     1       3.109   6.351  18.486  0.00  0.00    +0.000 A 
ATOM      5  C   UNL     1       3.182   4.949  18.526  0.00  0.00    +0.000 A 
ATOM      6  C   UNL     1       2.392   4.115  19.450  0.00  0.00    +0.000 A 
ATOM      7  C   UNL     1       1.344   4.675  20.363  0.00  0.00    +0.000 C 
ATOM      8  C   UNL     1       2.586   2.786  19.441  0.00  0.00    +0.000 A 
ATOM      9  C   UNL     1       3.549   2.111  18.569  0.00  0.00    +0.000 A 
ATOM     10  O   UNL     1       3.710   0.898  18.615  0.00  0.00    +0.000 OA
ATOM     11  O   UNL     1       4.234   2.917  17.686  0.00  0.00    +0.000 OA
ATOM     12  C   UNL     1       4.034   4.313  17.607  0.00  0.00    +0.000 A 
ENDROOT
BRANCH   1  14
ATOM     13  C   UNL     1       6.898   4.302  15.964  0.00  0.00    +0.000 C 
ATOM     14  O   UNL     1       5.527   4.500  15.629  0.00  0.00    +0.000 OA
ENDBRANCH   1  14
BRANCH   2  15
ATOM     15  O   UNL     1       5.301   7.162  15.690  0.00  0.00    +0.000 OA
ATOM     16  H   UNL     1       5.988   6.570  15.327  0.00  0.00    +0.000 HD
ENDBRANCH   2  15
TORSDOF 2
ENDMDL
