MODEL 1
REMARK VINA RESULT:      -8.2      0.000      0.000
REMARK  Name = 
REMARK  8 active torsions:
REMARK  status: ('A' for Active; 'I' for Inactive)
REMARK    1  A    between atoms: C_1  and  C_2
REMARK    2  A    between atoms: C_2  and  N_3
REMARK    3  A    between atoms: C_4  and  C_6
REMARK    4  A    between atoms: C_9  and  C_10
REMARK    5  A    between atoms: C_11  and  C_12
REMARK    6  A    between atoms: C_15  and  C_16
REMARK    7  A    between atoms: N_18  and  C_19
REMARK    8  A    between atoms: C_19  and  C_20
REMARK                            x       y       z     vdW  Elec       q    Type
REMARK                         _______ _______ _______ _____ _____    ______ ____
ROOT
ATOM      1  C   UNL     1       2.459   7.185  18.519  0.00  0.00    +0.000 A 
ATOM      2  C   UNL     1       2.085   7.405  19.858  0.00  0.00    +0.000 A 
ATOM      3  C   UNL     1       1.455   8.586  20.277  0.00  0.00    +0.000 A 
ATOM      4  C   UNL     1       1.235   9.616  19.363  0.00  0.00    +0.000 A 
ATOM      5  C   UNL     1       1.660   9.457  18.043  0.00  0.00    +0.000 A 
ATOM      6  C   UNL     1       2.244   8.253  17.627  0.00  0.00    +0.000 A 
ENDROOT
BRANCH   1  12
ATOM      7  C   UNL     1       4.805   4.819  16.659  0.00  0.00    +0.000 A 
ATOM      8  C   UNL     1       4.453   3.572  17.169  0.00  0.00    +0.000 A 
ATOM      9  C   UNL     1       3.424   3.480  18.102  0.00  0.00    +0.000 A 
ATOM     10  C   UNL     1       2.720   4.625  18.536  0.00  0.00    +0.000 A 
ATOM     11  C   UNL     1       1.562   4.386  19.472  0.00  0.00    +0.000 C 
ATOM     12  C   UNL     1       3.099   5.913  18.071  0.00  0.00    +0.000 A 
ATOM     13  C   UNL     1       4.139   5.968  17.110  0.00  0.00    +0.000 A 
BRANCH   7  15
ATOM     14  N   UNL     1       5.739   4.053  14.542  0.00  0.00    +0.000 N 
ATOM     15  C   UNL     1       5.828   4.953  15.584  0.00  0.00    +0.000 C 
ATOM     16  O   UNL     1       6.685   5.825  15.662  0.00  0.00    +0.000 OA
ATOM     17  H   UNL     1       5.210   3.204  14.691  0.00  0.00    +0.000 HD
BRANCH  14  19
ATOM     18  C   UNL     1       6.144   3.337  12.237  0.00  0.00    +0.000 C 
ATOM     19  C   UNL     1       6.688   4.075  13.446  0.00  0.00    +0.000 C 
ENDBRANCH  14  19
ENDBRANCH   7  15
ENDBRANCH   1  12
BRANCH   4  20
ATOM     20  C   UNL     1       0.606  10.905  19.765  0.00  0.00    +0.000 C 
ATOM     21  O   UNL     1       1.139  11.962  19.444  0.00  0.00    +0.000 OA
ATOM     22  N   UNL     1      -0.578  10.832  20.463  0.00  0.00    +0.000 N 
ATOM     23  H   UNL     1      -1.057   9.954  20.563  0.00  0.00    +0.000 HD
BRANCH  22  24
ATOM     24  C   UNL     1      -1.245  12.048  20.859  0.00  0.00    +0.000 C 
BRANCH  24  25
ATOM     25  C   UNL     1      -1.251  12.198  22.347  0.00  0.00    +0.000 C 
ATOM     26  C   UNL     1      -2.498  11.993  23.175  0.00  0.00    +0.000 C 
ATOM     27  C   UNL     1      -1.401  10.967  23.208  0.00  0.00    +0.000 C 
ENDBRANCH  24  25
ENDBRANCH  22  24
ENDBRANCH   4  20
TORSDOF 6
ENDMDL
MODEL 2
REMARK VINA RESULT:      -8.0      1.971      9.622
REMARK  Name = 
REMARK  8 active torsions:
REMARK  status: ('A' for Active; 'I' for Inactive)
REMARK    1  A    between atoms: C_1  and  C_2
REMARK    2  A    between atoms: C_2  and  N_3
REMARK    3  A    between atoms: C_4  and  C_6
REMARK    4  A    between atoms: C_9  and  C_10
REMARK    5  A    between atoms: C_11  and  C_12
REMARK    6  A    between atoms: C_15  and  C_16
REMARK    7  A    between atoms: N_18  and  C_19
REMARK    8  A    between atoms: C_19  and  C_20
REMARK                            x       y       z     vdW  Elec       q    Type
REMARK                         _______ _______ _______ _____ _____    ______ ____
ROOT
ATOM      1  C   UNL     1       4.245   5.124  17.647  0.00  0.00    +0.000 A 
ATOM      2  C   UNL     1       4.215   3.974  16.837  0.00  0.00    +0.000 A 
ATOM      3  C   UNL     1       5.063   3.814  15.730  0.00  0.00    +0.000 A 
ATOM      4  C   UNL     1       5.929   4.844  15.366  0.00  0.00    +0.000 A 
ATOM      5  C   UNL     1       5.930   6.027  16.106  0.00  0.00    +0.000 A 
ATOM      6  C   UNL     1       5.115   6.154  17.239  0.00  0.00    +0.000 A 
ENDROOT
BRANCH   1  12
ATOM      7  C   UNL     1       1.963   6.765  20.229  0.00  0.00    +0.000 A 
ATOM      8  C   UNL     1       1.622   5.700  21.060  0.00  0.00    +0.000 A 
ATOM      9  C   UNL     1       2.157   4.439  20.810  0.00  0.00    +0.000 A 
ATOM     10  C   UNL     1       3.048   4.217  19.737  0.00  0.00    +0.000 A 
ATOM     11  C   UNL     1       3.638   2.834  19.629  0.00  0.00    +0.000 C 
ATOM     12  C   UNL     1       3.366   5.277  18.844  0.00  0.00    +0.000 A 
ATOM     13  C   UNL     1       2.817   6.549  19.137  0.00  0.00    +0.000 A 
BRANCH   7  15
ATOM     14  N   UNL     1       1.342   8.475  21.851  0.00  0.00    +0.000 N 
ATOM     15  C   UNL     1       1.498   8.150  20.518  0.00  0.00    +0.000 C 
ATOM     16  O   UNL     1       1.274   8.924  19.596  0.00  0.00    +0.000 OA
ATOM     17  H   UNL     1       1.258   7.719  22.518  0.00  0.00    +0.000 HD
BRANCH  14  19
ATOM     18  C   UNL     1      -0.292   9.681  23.215  0.00  0.00    +0.000 C 
ATOM     19  C   UNL     1       0.879   9.788  22.255  0.00  0.00    +0.000 C 
ENDBRANCH  14  19
ENDBRANCH   7  15
ENDBRANCH   1  12
BRANCH   4  20
ATOM     20  C   UNL     1       6.820   4.741  14.176  0.00  0.00    +0.000 C 
ATOM     21  O   UNL     1       7.826   5.441  14.115  0.00  0.00    +0.000 OA
ATOM     22  N   UNL     1       6.468   3.828  13.209  0.00  0.00    +0.000 N 
ATOM     23  H   UNL     1       5.728   3.168  13.376  0.00  0.00    +0.000 HD
BRANCH  22  24
ATOM     24  C   UNL     1       7.305   3.669  12.045  0.00  0.00    +0.000 C 
BRANCH  24  25
ATOM     25  C   UNL     1       6.686   2.730  11.060  0.00  0.00    +0.000 C 
ATOM     26  C   UNL     1       6.884   1.235  11.135  0.00  0.00    +0.000 C 
ATOM     27  C   UNL     1       5.559   1.832  11.511  0.00  0.00    +0.000 C 
ENDBRANCH  24  25
ENDBRANCH  22  24
ENDBRANCH   4  20
TORSDOF 6
ENDMDL
MODEL 3
REMARK VINA RESULT:      -7.9      1.013      1.019
REMARK  Name = 
REMARK  8 active torsions:
REMARK  status: ('A' for Active; 'I' for Inactive)
REMARK    1  A    between atoms: C_1  and  C_2
REMARK    2  A    between atoms: C_2  and  N_3
REMARK    3  A    between atoms: C_4  and  C_6
REMARK    4  A    between atoms: C_9  and  C_10
REMARK    5  A    between atoms: C_11  and  C_12
REMARK    6  A    between atoms: C_15  and  C_16
REMARK    7  A    between atoms: N_18  and  C_19
REMARK    8  A    between atoms: C_19  and  C_20
REMARK                            x       y       z     vdW  Elec       q    Type
REMARK                         _______ _______ _______ _____ _____    ______ ____
ROOT
ATOM      1  C   UNL     1       2.178   7.633  18.997  0.00  0.00    +0.000 A 
ATOM      2  C   UNL     1       1.797   7.854  20.334  0.00  0.00    +0.000 A 
ATOM      3  C   UNL     1       1.042   8.971  20.723  0.00  0.00    +0.000 A 
ATOM      4  C   UNL     1       0.699   9.939  19.781  0.00  0.00    +0.000 A 
ATOM      5  C   UNL     1       1.124   9.785  18.461  0.00  0.00    +0.000 A 
ATOM      6  C   UNL     1       1.835   8.641  18.074  0.00  0.00    +0.000 A 
ENDROOT
BRANCH   1  12
ATOM      7  C   UNL     1       4.574   5.426  17.008  0.00  0.00    +0.000 A 
ATOM      8  C   UNL     1       4.536   4.223  17.707  0.00  0.00    +0.000 A 
ATOM      9  C   UNL     1       3.704   4.102  18.817  0.00  0.00    +0.000 A 
ATOM     10  C   UNL     1       2.888   5.172  19.244  0.00  0.00    +0.000 A 
ATOM     11  C   UNL     1       1.958   4.888  20.397  0.00  0.00    +0.000 C 
ATOM     12  C   UNL     1       2.953   6.427  18.580  0.00  0.00    +0.000 A 
ATOM     13  C   UNL     1       3.796   6.509  17.446  0.00  0.00    +0.000 A 
BRANCH   7  15
ATOM     14  N   UNL     1       5.921   4.410  15.250  0.00  0.00    +0.000 N 
ATOM     15  C   UNL     1       5.368   5.569  15.756  0.00  0.00    +0.000 C 
ATOM     16  O   UNL     1       5.502   6.671  15.239  0.00  0.00    +0.000 OA
ATOM     17  H   UNL     1       6.016   3.617  15.871  0.00  0.00    +0.000 HD
BRANCH  14  19
ATOM     18  C   UNL     1       6.077   3.614  12.941  0.00  0.00    +0.000 C 
ATOM     19  C   UNL     1       6.729   4.425  14.046  0.00  0.00    +0.000 C 
ENDBRANCH  14  19
ENDBRANCH   7  15
ENDBRANCH   1  12
BRANCH   4  20
ATOM     20  C   UNL     1      -0.067  11.162  20.150  0.00  0.00    +0.000 C 
ATOM     21  O   UNL     1      -1.034  11.495  19.473  0.00  0.00    +0.000 OA
ATOM     22  N   UNL     1       0.350  11.846  21.269  0.00  0.00    +0.000 N 
ATOM     23  H   UNL     1       1.043  11.450  21.879  0.00  0.00    +0.000 HD
BRANCH  22  24
ATOM     24  C   UNL     1      -0.367  13.027  21.687  0.00  0.00    +0.000 C 
BRANCH  24  25
ATOM     25  C   UNL     1      -1.089  12.790  22.975  0.00  0.00    +0.000 C 
ATOM     26  C   UNL     1      -2.592  12.874  23.087  0.00  0.00    +0.000 C 
ATOM     27  C   UNL     1      -1.913  11.535  23.135  0.00  0.00    +0.000 C 
ENDBRANCH  24  25
ENDBRANCH  22  24
ENDBRANCH   4  20
TORSDOF 6
ENDMDL
MODEL 4
REMARK VINA RESULT:      -7.9      1.528      2.006
REMARK  Name = 
REMARK  8 active torsions:
REMARK  status: ('A' for Active; 'I' for Inactive)
REMARK    1  A    between atoms: C_1  and  C_2
REMARK    2  A    between atoms: C_2  and  N_3
REMARK    3  A    between atoms: C_4  and  C_6
REMARK    4  A    between atoms: C_9  and  C_10
REMARK    5  A    between atoms: C_11  and  C_12
REMARK    6  A    between atoms: C_15  and  C_16
REMARK    7  A    between atoms: N_18  and  C_19
REMARK    8  A    between atoms: C_19  and  C_20
REMARK                            x       y       z     vdW  Elec       q    Type
REMARK                         _______ _______ _______ _____ _____    ______ ____
ROOT
ATOM      1  C   UNL     1       2.397   6.809  18.718  0.00  0.00    +0.000 A 
ATOM      2  C   UNL     1       2.102   7.105  20.062  0.00  0.00    +0.000 A 
ATOM      3  C   UNL     1       1.529   8.325  20.453  0.00  0.00    +0.000 A 
ATOM      4  C   UNL     1       1.292   9.316  19.502  0.00  0.00    +0.000 A 
ATOM      5  C   UNL     1       1.641   9.080  18.171  0.00  0.00    +0.000 A 
ATOM      6  C   UNL     1       2.166   7.839  17.785  0.00  0.00    +0.000 A 
ENDROOT
BRANCH   1  12
ATOM      7  C   UNL     1       4.719   4.292  17.033  0.00  0.00    +0.000 A 
ATOM      8  C   UNL     1       4.220   3.069  17.475  0.00  0.00    +0.000 A 
ATOM      9  C   UNL     1       3.100   3.046  18.301  0.00  0.00    +0.000 A 
ATOM     10  C   UNL     1       2.450   4.236  18.693  0.00  0.00    +0.000 A 
ATOM     11  C   UNL     1       1.190   4.077  19.506  0.00  0.00    +0.000 C 
ATOM     12  C   UNL     1       2.975   5.497  18.301  0.00  0.00    +0.000 A 
ATOM     13  C   UNL     1       4.105   5.484  17.447  0.00  0.00    +0.000 A 
BRANCH   7  15
ATOM     14  N   UNL     1       5.533   4.145  14.741  0.00  0.00    +0.000 N 
ATOM     15  C   UNL     1       5.850   4.362  16.067  0.00  0.00    +0.000 C 
ATOM     16  O   UNL     1       6.984   4.596  16.468  0.00  0.00    +0.000 OA
ATOM     17  H   UNL     1       4.662   3.676  14.530  0.00  0.00    +0.000 HD
BRANCH  14  19
ATOM     18  C   UNL     1       6.078   3.462  12.455  0.00  0.00    +0.000 C 
ATOM     19  C   UNL     1       6.553   4.170  13.710  0.00  0.00    +0.000 C 
ENDBRANCH  14  19
ENDBRANCH   7  15
ENDBRANCH   1  12
BRANCH   4  20
ATOM     20  C   UNL     1       0.723  10.642  19.870  0.00  0.00    +0.000 C 
ATOM     21  O   UNL     1       1.087  11.188  20.906  0.00  0.00    +0.000 OA
ATOM     22  N   UNL     1      -0.178  11.201  18.992  0.00  0.00    +0.000 N 
ATOM     23  H   UNL     1      -0.324  10.794  18.085  0.00  0.00    +0.000 HD
BRANCH  22  24
ATOM     24  C   UNL     1      -0.746  12.494  19.285  0.00  0.00    +0.000 C 
BRANCH  24  25
ATOM     25  C   UNL     1      -0.088  13.567  18.477  0.00  0.00    +0.000 C 
ATOM     26  C   UNL     1      -0.205  15.031  18.829  0.00  0.00    +0.000 C 
ATOM     27  C   UNL     1       1.091  14.307  19.061  0.00  0.00    +0.000 C 
ENDBRANCH  24  25
ENDBRANCH  22  24
ENDBRANCH   4  20
TORSDOF 6
ENDMDL
MODEL 5
REMARK VINA RESULT:      -7.9      1.521      2.161
REMARK  Name = 
REMARK  8 active torsions:
REMARK  status: ('A' for Active; 'I' for Inactive)
REMARK    1  A    between atoms: C_1  and  C_2
REMARK    2  A    between atoms: C_2  and  N_3
REMARK    3  A    between atoms: C_4  and  C_6
REMARK    4  A    between atoms: C_9  and  C_10
REMARK    5  A    between atoms: C_11  and  C_12
REMARK    6  A    between atoms: C_15  and  C_16
REMARK    7  A    between atoms: N_18  and  C_19
REMARK    8  A    between atoms: C_19  and  C_20
REMARK                            x       y       z     vdW  Elec       q    Type
REMARK                         _______ _______ _______ _____ _____    ______ ____
ROOT
ATOM      1  C   UNL     1       2.559   6.942  18.451  0.00  0.00    +0.000 A 
ATOM      2  C   UNL     1       2.162   8.069  17.707  0.00  0.00    +0.000 A 
ATOM      3  C   UNL     1       1.560   9.187  18.303  0.00  0.00    +0.000 A 
ATOM      4  C   UNL     1       1.280   9.179  19.669  0.00  0.00    +0.000 A 
ATOM      5  C   UNL     1       1.596   8.047  20.421  0.00  0.00    +0.000 A 
ATOM      6  C   UNL     1       2.242   6.956  19.823  0.00  0.00    +0.000 A 
ENDROOT
BRANCH   1  12
ATOM      7  C   UNL     1       5.098   4.922  16.443  0.00  0.00    +0.000 A 
ATOM      8  C   UNL     1       4.649   3.613  16.606  0.00  0.00    +0.000 A 
ATOM      9  C   UNL     1       3.495   3.374  17.346  0.00  0.00    +0.000 A 
ATOM     10  C   UNL     1       2.760   4.431  17.926  0.00  0.00    +0.000 A 
ATOM     11  C   UNL     1       1.474   4.055  18.618  0.00  0.00    +0.000 C 
ATOM     12  C   UNL     1       3.230   5.768  17.819  0.00  0.00    +0.000 A 
ATOM     13  C   UNL     1       4.398   5.977  17.046  0.00  0.00    +0.000 A 
BRANCH   7  15
ATOM     14  N   UNL     1       6.225   4.733  14.290  0.00  0.00    +0.000 N 
ATOM     15  C   UNL     1       6.268   5.234  15.575  0.00  0.00    +0.000 C 
ATOM     16  O   UNL     1       7.196   5.899  16.018  0.00  0.00    +0.000 OA
ATOM     17  H   UNL     1       5.591   3.968  14.099  0.00  0.00    +0.000 HD
BRANCH  14  19
ATOM     18  C   UNL     1       7.180   4.065  12.138  0.00  0.00    +0.000 C 
ATOM     19  C   UNL     1       7.314   4.957  13.359  0.00  0.00    +0.000 C 
ENDBRANCH  14  19
ENDBRANCH   7  15
ENDBRANCH   1  12
BRANCH   4  20
ATOM     20  C   UNL     1       0.606  10.324  20.343  0.00  0.00    +0.000 C 
ATOM     21  O   UNL     1      -0.258  10.103  21.184  0.00  0.00    +0.000 OA
ATOM     22  N   UNL     1       1.023  11.588  19.993  0.00  0.00    +0.000 N 
ATOM     23  H   UNL     1       1.839  11.715  19.421  0.00  0.00    +0.000 HD
BRANCH  22  24
ATOM     24  C   UNL     1       0.421  12.735  20.630  0.00  0.00    +0.000 C 
BRANCH  24  25
ATOM     25  C   UNL     1      -0.564  13.398  19.722  0.00  0.00    +0.000 C 
ATOM     26  C   UNL     1      -0.200  14.587  18.864  0.00  0.00    +0.000 C 
ATOM     27  C   UNL     1      -0.408  13.242  18.229  0.00  0.00    +0.000 C 
ENDBRANCH  24  25
ENDBRANCH  22  24
ENDBRANCH   4  20
TORSDOF 6
ENDMDL
MODEL 6
REMARK VINA RESULT:      -7.9      0.723      1.249
REMARK  Name = 
REMARK  8 active torsions:
REMARK  status: ('A' for Active; 'I' for Inactive)
REMARK    1  A    between atoms: C_1  and  C_2
REMARK    2  A    between atoms: C_2  and  N_3
REMARK    3  A    between atoms: C_4  and  C_6
REMARK    4  A    between atoms: C_9  and  C_10
REMARK    5  A    between atoms: C_11  and  C_12
REMARK    6  A    between atoms: C_15  and  C_16
REMARK    7  A    between atoms: N_18  and  C_19
REMARK    8  A    between atoms: C_19  and  C_20
REMARK                            x       y       z     vdW  Elec       q    Type
REMARK                         _______ _______ _______ _____ _____    ______ ____
ROOT
ATOM      1  C   UNL     1       2.462   6.860  18.864  0.00  0.00    +0.000 A 
ATOM      2  C   UNL     1       2.201   7.866  17.915  0.00  0.00    +0.000 A 
ATOM      3  C   UNL     1       1.674   9.116  18.273  0.00  0.00    +0.000 A 
ATOM      4  C   UNL     1       1.333   9.370  19.600  0.00  0.00    +0.000 A 
ATOM      5  C   UNL     1       1.512   8.367  20.554  0.00  0.00    +0.000 A 
ATOM      6  C   UNL     1       2.085   7.140  20.193  0.00  0.00    +0.000 A 
ENDROOT
BRANCH   1  12
ATOM      7  C   UNL     1       4.825   4.321  17.273  0.00  0.00    +0.000 A 
ATOM      8  C   UNL     1       4.326   3.105  17.733  0.00  0.00    +0.000 A 
ATOM      9  C   UNL     1       3.193   3.093  18.541  0.00  0.00    +0.000 A 
ATOM     10  C   UNL     1       2.530   4.287  18.897  0.00  0.00    +0.000 A 
ATOM     11  C   UNL     1       1.257   4.138  19.693  0.00  0.00    +0.000 C 
ATOM     12  C   UNL     1       3.054   5.543  18.485  0.00  0.00    +0.000 A 
ATOM     13  C   UNL     1       4.198   5.518  17.651  0.00  0.00    +0.000 A 
BRANCH   7  15
ATOM     14  N   UNL     1       5.654   4.582  14.996  0.00  0.00    +0.000 N 
ATOM     15  C   UNL     1       5.971   4.376  16.323  0.00  0.00    +0.000 C 
ATOM     16  O   UNL     1       7.116   4.238  16.738  0.00  0.00    +0.000 OA
ATOM     17  H   UNL     1       4.706   4.393  14.699  0.00  0.00    +0.000 HD
BRANCH  14  19
ATOM     18  C   UNL     1       6.367   3.696  12.830  0.00  0.00    +0.000 C 
ATOM     19  C   UNL     1       6.684   4.638  13.977  0.00  0.00    +0.000 C 
ENDBRANCH  14  19
ENDBRANCH   7  15
ENDBRANCH   1  12
BRANCH   4  20
ATOM     20  C   UNL     1       0.733  10.666  20.026  0.00  0.00    +0.000 C 
ATOM     21  O   UNL     1       1.320  11.713  19.775  0.00  0.00    +0.000 OA
ATOM     22  N   UNL     1      -0.484  10.610  20.667  0.00  0.00    +0.000 N 
ATOM     23  H   UNL     1      -0.999   9.748  20.708  0.00  0.00    +0.000 HD
BRANCH  22  24
ATOM     24  C   UNL     1      -1.123  11.835  21.083  0.00  0.00    +0.000 C 
BRANCH  24  25
ATOM     25  C   UNL     1      -1.109  11.971  22.572  0.00  0.00    +0.000 C 
ATOM     26  C   UNL     1      -1.464  13.262  23.270  0.00  0.00    +0.000 C 
ATOM     27  C   UNL     1      -2.419  12.103  23.310  0.00  0.00    +0.000 C 
ENDBRANCH  24  25
ENDBRANCH  22  24
ENDBRANCH   4  20
TORSDOF 6
ENDMDL
MODEL 7
REMARK VINA RESULT:      -7.8      2.043      2.494
REMARK  Name = 
REMARK  8 active torsions:
REMARK  status: ('A' for Active; 'I' for Inactive)
REMARK    1  A    between atoms: C_1  and  C_2
REMARK    2  A    between atoms: C_2  and  N_3
REMARK    3  A    between atoms: C_4  and  C_6
REMARK    4  A    between atoms: C_9  and  C_10
REMARK    5  A    between atoms: C_11  and  C_12
REMARK    6  A    between atoms: C_15  and  C_16
REMARK    7  A    between atoms: N_18  and  C_19
REMARK    8  A    between atoms: C_19  and  C_20
REMARK                            x       y       z     vdW  Elec       q    Type
REMARK                         _______ _______ _______ _____ _____    ______ ____
ROOT
ATOM      1  C   UNL     1       2.273   7.086  19.481  0.00  0.00    +0.000 A 
ATOM      2  C   UNL     1       1.722   7.572  20.681  0.00  0.00    +0.000 A 
ATOM      3  C   UNL     1       1.004   8.776  20.743  0.00  0.00    +0.000 A 
ATOM      4  C   UNL     1       0.873   9.565  19.602  0.00  0.00    +0.000 A 
ATOM      5  C   UNL     1       1.470   9.145  18.412  0.00  0.00    +0.000 A 
ATOM      6  C   UNL     1       2.142   7.917  18.351  0.00  0.00    +0.000 A 
ENDROOT
BRANCH   1  12
ATOM      7  C   UNL     1       5.006   4.557  18.644  0.00  0.00    +0.000 A 
ATOM      8  C   UNL     1       4.545   3.392  19.252  0.00  0.00    +0.000 A 
ATOM      9  C   UNL     1       3.321   3.406  19.915  0.00  0.00    +0.000 A 
ATOM     10  C   UNL     1       2.529   4.573  19.976  0.00  0.00    +0.000 A 
ATOM     11  C   UNL     1       1.180   4.436  20.635  0.00  0.00    +0.000 C 
ATOM     12  C   UNL     1       3.006   5.787  19.411  0.00  0.00    +0.000 A 
ATOM     13  C   UNL     1       4.247   5.734  18.730  0.00  0.00    +0.000 A 
BRANCH   7  15
ATOM     14  N   UNL     1       6.099   4.547  16.465  0.00  0.00    +0.000 N 
ATOM     15  C   UNL     1       6.258   4.564  17.836  0.00  0.00    +0.000 C 
ATOM     16  O   UNL     1       7.347   4.580  18.397  0.00  0.00    +0.000 OA
ATOM     17  H   UNL     1       5.210   4.241  16.093  0.00  0.00    +0.000 HD
BRANCH  14  19
ATOM     18  C   UNL     1       6.821   4.775  14.138  0.00  0.00    +0.000 C 
ATOM     19  C   UNL     1       7.244   4.534  15.576  0.00  0.00    +0.000 C 
ENDBRANCH  14  19
ENDBRANCH   7  15
ENDBRANCH   1  12
BRANCH   4  20
ATOM     20  C   UNL     1       0.156  10.871  19.623  0.00  0.00    +0.000 C 
ATOM     21  O   UNL     1      -0.307  11.287  20.680  0.00  0.00    +0.000 OA
ATOM     22  N   UNL     1       0.077  11.559  18.434  0.00  0.00    +0.000 N 
ATOM     23  H   UNL     1       0.606  11.257  17.634  0.00  0.00    +0.000 HD
BRANCH  22  24
ATOM     24  C   UNL     1      -0.586  12.840  18.399  0.00  0.00    +0.000 C 
BRANCH  24  25
ATOM     25  C   UNL     1       0.397  13.959  18.523  0.00  0.00    +0.000 C 
ATOM     26  C   UNL     1      -0.028  15.384  18.787  0.00  0.00    +0.000 C 
ATOM     27  C   UNL     1       0.629  14.586  19.876  0.00  0.00    +0.000 C 
ENDBRANCH  24  25
ENDBRANCH  22  24
ENDBRANCH   4  20
TORSDOF 6
ENDMDL
MODEL 8
REMARK VINA RESULT:      -7.8      0.991      1.424
REMARK  Name = 
REMARK  8 active torsions:
REMARK  status: ('A' for Active; 'I' for Inactive)
REMARK    1  A    between atoms: C_1  and  C_2
REMARK    2  A    between atoms: C_2  and  N_3
REMARK    3  A    between atoms: C_4  and  C_6
REMARK    4  A    between atoms: C_9  and  C_10
REMARK    5  A    between atoms: C_11  and  C_12
REMARK    6  A    between atoms: C_15  and  C_16
REMARK    7  A    between atoms: N_18  and  C_19
REMARK    8  A    between atoms: C_19  and  C_20
REMARK                            x       y       z     vdW  Elec       q    Type
REMARK                         _______ _______ _______ _____ _____    ______ ____
ROOT
ATOM      1  C   UNL     1       2.174   7.657  18.903  0.00  0.00    +0.000 A 
ATOM      2  C   UNL     1       1.749   8.591  17.939  0.00  0.00    +0.000 A 
ATOM      3  C   UNL     1       1.057   9.762  18.284  0.00  0.00    +0.000 A 
ATOM      4  C   UNL     1       0.714   9.999  19.614  0.00  0.00    +0.000 A 
ATOM      5  C   UNL     1       1.057   9.056  20.584  0.00  0.00    +0.000 A 
ATOM      6  C   UNL     1       1.792   7.915  20.235  0.00  0.00    +0.000 A 
ENDROOT
BRANCH   1  12
ATOM      7  C   UNL     1       4.560   5.354  17.015  0.00  0.00    +0.000 A 
ATOM      8  C   UNL     1       4.507   4.178  17.759  0.00  0.00    +0.000 A 
ATOM      9  C   UNL     1       3.668   4.108  18.868  0.00  0.00    +0.000 A 
ATOM     10  C   UNL     1       2.859   5.201  19.249  0.00  0.00    +0.000 A 
ATOM     11  C   UNL     1       1.920   4.970  20.406  0.00  0.00    +0.000 C 
ATOM     12  C   UNL     1       2.939   6.429  18.538  0.00  0.00    +0.000 A 
ATOM     13  C   UNL     1       3.790   6.460  17.406  0.00  0.00    +0.000 A 
BRANCH   7  15
ATOM     14  N   UNL     1       5.848   4.248  15.266  0.00  0.00    +0.000 N 
ATOM     15  C   UNL     1       5.363   5.441  15.763  0.00  0.00    +0.000 C 
ATOM     16  O   UNL     1       5.561   6.530  15.239  0.00  0.00    +0.000 OA
ATOM     17  H   UNL     1       5.897   3.456  15.894  0.00  0.00    +0.000 HD
BRANCH  14  19
ATOM     18  C   UNL     1       5.886   3.601  12.907  0.00  0.00    +0.000 C 
ATOM     19  C   UNL     1       6.657   4.208  14.064  0.00  0.00    +0.000 C 
ENDBRANCH  14  19
ENDBRANCH   7  15
ENDBRANCH   1  12
BRANCH   4  20
ATOM     20  C   UNL     1      -0.055  11.207  20.027  0.00  0.00    +0.000 C 
ATOM     21  O   UNL     1      -0.895  11.675  19.267  0.00  0.00    +0.000 OA
ATOM     22  N   UNL     1       0.212  11.719  21.276  0.00  0.00    +0.000 N 
ATOM     23  H   UNL     1       0.790  11.211  21.923  0.00  0.00    +0.000 HD
BRANCH  22  24
ATOM     24  C   UNL     1      -0.517  12.875  21.739  0.00  0.00    +0.000 C 
BRANCH  24  25
ATOM     25  C   UNL     1      -1.261  12.572  23.000  0.00  0.00    +0.000 C 
ATOM     26  C   UNL     1      -2.274  13.524  23.590  0.00  0.00    +0.000 C 
ATOM     27  C   UNL     1      -2.736  12.259  22.925  0.00  0.00    +0.000 C 
ENDBRANCH  24  25
ENDBRANCH  22  24
ENDBRANCH   4  20
TORSDOF 6
ENDMDL
MODEL 9
REMARK VINA RESULT:      -7.8      1.800      2.233
REMARK  Name = 
REMARK  8 active torsions:
REMARK  status: ('A' for Active; 'I' for Inactive)
REMARK    1  A    between atoms: C_1  and  C_2
REMARK    2  A    between atoms: C_2  and  N_3
REMARK    3  A    between atoms: C_4  and  C_6
REMARK    4  A    between atoms: C_9  and  C_10
REMARK    5  A    between atoms: C_11  and  C_12
REMARK    6  A    between atoms: C_15  and  C_16
REMARK    7  A    between atoms: N_18  and  C_19
REMARK    8  A    between atoms: C_19  and  C_20
REMARK                            x       y       z     vdW  Elec       q    Type
REMARK                         _______ _______ _______ _____ _____    ______ ____
ROOT
ATOM      1  C   UNL     1       2.459   7.424  18.817  0.00  0.00    +0.000 A 
ATOM      2  C   UNL     1       1.972   7.769  20.092  0.00  0.00    +0.000 A 
ATOM      3  C   UNL     1       1.082   8.835  20.291  0.00  0.00    +0.000 A 
ATOM      4  C   UNL     1       0.701   9.632  19.213  0.00  0.00    +0.000 A 
ATOM      5  C   UNL     1       1.224   9.359  17.948  0.00  0.00    +0.000 A 
ATOM      6  C   UNL     1       2.072   8.262  17.753  0.00  0.00    +0.000 A 
ENDROOT
BRANCH   1  12
ATOM      7  C   UNL     1       5.194   5.264  17.263  0.00  0.00    +0.000 A 
ATOM      8  C   UNL     1       5.234   4.160  18.112  0.00  0.00    +0.000 A 
ATOM      9  C   UNL     1       4.349   4.088  19.183  0.00  0.00    +0.000 A 
ATOM     10  C   UNL     1       3.400   5.107  19.423  0.00  0.00    +0.000 A 
ATOM     11  C   UNL     1       2.430   4.868  20.553  0.00  0.00    +0.000 C 
ATOM     12  C   UNL     1       3.379   6.268  18.604  0.00  0.00    +0.000 A 
ATOM     13  C   UNL     1       4.282   6.300  17.514  0.00  0.00    +0.000 A 
BRANCH   7  15
ATOM     14  N   UNL     1       5.910   4.302  15.142  0.00  0.00    +0.000 N 
ATOM     15  C   UNL     1       6.050   5.335  16.047  0.00  0.00    +0.000 C 
ATOM     16  O   UNL     1       6.825   6.272  15.898  0.00  0.00    +0.000 OA
ATOM     17  H   UNL     1       5.488   3.441  15.464  0.00  0.00    +0.000 HD
BRANCH  14  19
ATOM     18  C   UNL     1       5.939   3.576  12.805  0.00  0.00    +0.000 C 
ATOM     19  C   UNL     1       6.703   4.253  13.928  0.00  0.00    +0.000 C 
ENDBRANCH  14  19
ENDBRANCH   7  15
ENDBRANCH   1  12
BRANCH   4  20
ATOM     20  C   UNL     1      -0.209  10.799  19.377  0.00  0.00    +0.000 C 
ATOM     21  O   UNL     1       0.024  11.627  20.251  0.00  0.00    +0.000 OA
ATOM     22  N   UNL     1      -1.266  10.895  18.500  0.00  0.00    +0.000 N 
ATOM     23  H   UNL     1      -1.325  10.284  17.704  0.00  0.00    +0.000 HD
BRANCH  22  24
ATOM     24  C   UNL     1      -2.169  12.017  18.597  0.00  0.00    +0.000 C 
BRANCH  24  25
ATOM     25  C   UNL     1      -3.588  11.583  18.410  0.00  0.00    +0.000 C 
ATOM     26  C   UNL     1      -4.270  11.609  17.063  0.00  0.00    +0.000 C 
ATOM     27  C   UNL     1      -3.871  10.297  17.673  0.00  0.00    +0.000 C 
ENDBRANCH  24  25
ENDBRANCH  22  24
ENDBRANCH   4  20
TORSDOF 6
ENDMDL
