MODEL 1
REMARK VINA RESULT:      -8.4      0.000      0.000
REMARK  Name = 
REMARK  6 active torsions:
REMARK  status: ('A' for Active; 'I' for Inactive)
REMARK    1  A    between atoms: C_1  and  C_2
REMARK    2  A    between atoms: N_4  and  C_5
REMARK    3  A    between atoms: C_5  and  C_6
REMARK    4  A    between atoms: C_6  and  C_7
REMARK    5  A    between atoms: C_14  and  C_15
REMARK    6  A    between atoms: C_20  and  C_21
REMARK                            x       y       z     vdW  Elec       q    Type
REMARK                         _______ _______ _______ _____ _____    ______ ____
ROOT
ATOM      1  C   UNL     1       3.592   1.507  18.362  0.00  0.00    +0.000 C 
ATOM      2  C   UNL     1       3.807   2.877  17.831  0.00  0.00    +0.000 A 
ATOM      3  N   UNL     1       4.709   3.073  16.859  0.00  0.00    +0.000 NA
ATOM      4  N   UNL     1       4.652   4.400  16.619  0.00  0.00    +0.000 N 
ATOM      5  C   UNL     1       3.748   5.059  17.411  0.00  0.00    +0.000 A 
ATOM      6  N   UNL     1       3.485   6.379  17.400  0.00  0.00    +0.000 NA
ATOM      7  C   UNL     1       2.544   6.768  18.301  0.00  0.00    +0.000 A 
ATOM      8  C   UNL     1       1.896   5.879  19.168  0.00  0.00    +0.000 A 
ATOM      9  C   UNL     1       2.193   4.500  19.151  0.00  0.00    +0.000 A 
ATOM     10  C   UNL     1       3.171   4.090  18.223  0.00  0.00    +0.000 A 
ENDROOT
BRANCH   7  11
ATOM     11  C   UNL     1       2.169   8.247  18.385  0.00  0.00    +0.000 C 
ATOM     12  F   UNL     1       1.766   8.658  19.618  0.00  0.00    +0.000 F 
ATOM     13  F   UNL     1       3.209   9.062  18.040  0.00  0.00    +0.000 F 
ATOM     14  F   UNL     1       1.155   8.572  17.531  0.00  0.00    +0.000 F 
ENDBRANCH   7  11
BRANCH   9  15
ATOM     15  C   UNL     1       1.490   3.554  20.085  0.00  0.00    +0.000 C 
ATOM     16  F   UNL     1       0.828   2.554  19.440  0.00  0.00    +0.000 F 
ATOM     17  F   UNL     1       2.346   2.938  20.945  0.00  0.00    +0.000 F 
ATOM     18  F   UNL     1       0.559   4.177  20.858  0.00  0.00    +0.000 F 
ENDBRANCH   9  15
BRANCH   4  19
ATOM     19  C   UNL     1       5.530   4.986  15.623  0.00  0.00    +0.000 C 
BRANCH  19  20
ATOM     20  C   UNL     1       6.999   4.720  15.924  0.00  0.00    +0.000 C 
BRANCH  20  21
ATOM     21  C   UNL     1       7.397   5.283  17.231  0.00  0.00    +0.000 A 
ATOM     22  N   UNL     1       7.706   4.505  18.313  0.00  0.00    +0.000 NA
ATOM     23  N   UNL     1       8.026   5.338  19.294  0.00  0.00    +0.000 NA
ATOM     24  N   UNL     1       7.900   6.560  18.759  0.00  0.00    +0.000 N 
ATOM     25  N   UNL     1       7.496   6.599  17.477  0.00  0.00    +0.000 NA
ATOM     26  H   UNL     1       8.097   7.401  19.294  0.00  0.00    +0.000 HD
ENDBRANCH  20  21
ENDBRANCH  19  20
ENDBRANCH   4  19
TORSDOF 5
ENDMDL
MODEL 2
REMARK VINA RESULT:      -8.4      0.039      1.073
REMARK  Name = 
REMARK  6 active torsions:
REMARK  status: ('A' for Active; 'I' for Inactive)
REMARK    1  A    between atoms: C_1  and  C_2
REMARK    2  A    between atoms: N_4  and  C_5
REMARK    3  A    between atoms: C_5  and  C_6
REMARK    4  A    between atoms: C_6  and  C_7
REMARK    5  A    between atoms: C_14  and  C_15
REMARK    6  A    between atoms: C_20  and  C_21
REMARK                            x       y       z     vdW  Elec       q    Type
REMARK                         _______ _______ _______ _____ _____    ______ ____
ROOT
ATOM      1  C   UNL     1       3.566   1.513  18.339  0.00  0.00    +0.000 C 
ATOM      2  C   UNL     1       3.794   2.881  17.806  0.00  0.00    +0.000 A 
ATOM      3  N   UNL     1       4.697   3.067  16.834  0.00  0.00    +0.000 NA
ATOM      4  N   UNL     1       4.653   4.394  16.591  0.00  0.00    +0.000 N 
ATOM      5  C   UNL     1       3.755   5.062  17.383  0.00  0.00    +0.000 A 
ATOM      6  N   UNL     1       3.505   6.385  17.370  0.00  0.00    +0.000 NA
ATOM      7  C   UNL     1       2.568   6.784  18.271  0.00  0.00    +0.000 A 
ATOM      8  C   UNL     1       1.912   5.902  19.139  0.00  0.00    +0.000 A 
ATOM      9  C   UNL     1       2.195   4.521  19.124  0.00  0.00    +0.000 A 
ATOM     10  C   UNL     1       3.170   4.100  18.196  0.00  0.00    +0.000 A 
ENDROOT
BRANCH   7  11
ATOM     11  C   UNL     1       2.207   8.267  18.352  0.00  0.00    +0.000 C 
ATOM     12  F   UNL     1       3.217   9.112  18.007  0.00  0.00    +0.000 F 
ATOM     13  F   UNL     1       1.156   8.587  17.542  0.00  0.00    +0.000 F 
ATOM     14  F   UNL     1       1.822   8.637  19.609  0.00  0.00    +0.000 F 
ENDBRANCH   7  11
BRANCH   9  15
ATOM     15  C   UNL     1       1.484   3.583  20.060  0.00  0.00    +0.000 C 
ATOM     16  F   UNL     1       0.575   4.208  20.860  0.00  0.00    +0.000 F 
ATOM     17  F   UNL     1       0.793   2.614  19.401  0.00  0.00    +0.000 F 
ATOM     18  F   UNL     1       2.336   2.937  20.901  0.00  0.00    +0.000 F 
ENDBRANCH   9  15
BRANCH   4  19
ATOM     19  C   UNL     1       5.536   4.970  15.594  0.00  0.00    +0.000 C 
BRANCH  19  20
ATOM     20  C   UNL     1       7.004   4.713  15.909  0.00  0.00    +0.000 C 
BRANCH  20  21
ATOM     21  C   UNL     1       7.385   5.275  17.222  0.00  0.00    +0.000 A 
ATOM     22  N   UNL     1       7.684   4.495  18.306  0.00  0.00    +0.000 NA
ATOM     23  N   UNL     1       7.990   5.327  19.292  0.00  0.00    +0.000 NA
ATOM     24  N   UNL     1       7.865   6.550  18.759  0.00  0.00    +0.000 N 
ATOM     25  N   UNL     1       7.476   6.590  17.472  0.00  0.00    +0.000 NA
ATOM     26  H   UNL     1       8.052   7.391  19.298  0.00  0.00    +0.000 HD
ENDBRANCH  20  21
ENDBRANCH  19  20
ENDBRANCH   4  19
TORSDOF 5
ENDMDL
MODEL 3
REMARK VINA RESULT:      -8.4      0.132      1.057
REMARK  Name = 
REMARK  6 active torsions:
REMARK  status: ('A' for Active; 'I' for Inactive)
REMARK    1  A    between atoms: C_1  and  C_2
REMARK    2  A    between atoms: N_4  and  C_5
REMARK    3  A    between atoms: C_5  and  C_6
REMARK    4  A    between atoms: C_6  and  C_7
REMARK    5  A    between atoms: C_14  and  C_15
REMARK    6  A    between atoms: C_20  and  C_21
REMARK                            x       y       z     vdW  Elec       q    Type
REMARK                         _______ _______ _______ _____ _____    ______ ____
ROOT
ATOM      1  C   UNL     1       3.518   1.571  18.215  0.00  0.00    +0.000 C 
ATOM      2  C   UNL     1       3.762   2.952  17.727  0.00  0.00    +0.000 A 
ATOM      3  N   UNL     1       4.693   3.164  16.786  0.00  0.00    +0.000 NA
ATOM      4  N   UNL     1       4.657   4.498  16.580  0.00  0.00    +0.000 N 
ATOM      5  C   UNL     1       3.738   5.145  17.365  0.00  0.00    +0.000 A 
ATOM      6  N   UNL     1       3.489   6.468  17.382  0.00  0.00    +0.000 NA
ATOM      7  C   UNL     1       2.527   6.843  18.267  0.00  0.00    +0.000 A 
ATOM      8  C   UNL     1       1.846   5.938  19.091  0.00  0.00    +0.000 A 
ATOM      9  C   UNL     1       2.128   4.558  19.045  0.00  0.00    +0.000 A 
ATOM     10  C   UNL     1       3.128   4.161  18.133  0.00  0.00    +0.000 A 
ENDROOT
BRANCH   7  11
ATOM     11  C   UNL     1       2.166   8.324  18.380  0.00  0.00    +0.000 C 
ATOM     12  F   UNL     1       1.786   8.718  19.626  0.00  0.00    +0.000 F 
ATOM     13  F   UNL     1       3.206   9.136  18.030  0.00  0.00    +0.000 F 
ATOM     14  F   UNL     1       1.140   8.670  17.549  0.00  0.00    +0.000 F 
ENDBRANCH   7  11
BRANCH   9  15
ATOM     15  C   UNL     1       1.390   3.595  19.933  0.00  0.00    +0.000 C 
ATOM     16  F   UNL     1       2.210   2.889  20.761  0.00  0.00    +0.000 F 
ATOM     17  F   UNL     1       0.492   4.218  20.745  0.00  0.00    +0.000 F 
ATOM     18  F   UNL     1       0.686   2.668  19.230  0.00  0.00    +0.000 F 
ENDBRANCH   9  15
BRANCH   4  19
ATOM     19  C   UNL     1       5.568   5.100  15.625  0.00  0.00    +0.000 C 
BRANCH  19  20
ATOM     20  C   UNL     1       7.021   4.743  15.913  0.00  0.00    +0.000 C 
BRANCH  20  21
ATOM     21  C   UNL     1       7.455   5.255  17.230  0.00  0.00    +0.000 A 
ATOM     22  N   UNL     1       7.628   6.587  17.490  0.00  0.00    +0.000 NA
ATOM     23  N   UNL     1       8.003   6.674  18.759  0.00  0.00    +0.000 NA
ATOM     24  N   UNL     1       8.034   5.408  19.194  0.00  0.00    +0.000 N 
ATOM     25  N   UNL     1       7.715   4.469  18.286  0.00  0.00    +0.000 NA
ATOM     26  H   UNL     1       8.284   5.177  20.152  0.00  0.00    +0.000 HD
ENDBRANCH  20  21
ENDBRANCH  19  20
ENDBRANCH   4  19
TORSDOF 5
ENDMDL
MODEL 4
REMARK VINA RESULT:      -8.3      1.439      2.136
REMARK  Name = 
REMARK  6 active torsions:
REMARK  status: ('A' for Active; 'I' for Inactive)
REMARK    1  A    between atoms: C_1  and  C_2
REMARK    2  A    between atoms: N_4  and  C_5
REMARK    3  A    between atoms: C_5  and  C_6
REMARK    4  A    between atoms: C_6  and  C_7
REMARK    5  A    between atoms: C_14  and  C_15
REMARK    6  A    between atoms: C_20  and  C_21
REMARK                            x       y       z     vdW  Elec       q    Type
REMARK                         _______ _______ _______ _____ _____    ______ ____
ROOT
ATOM      1  C   UNL     1       3.713   1.998  18.267  0.00  0.00    +0.000 C 
ATOM      2  C   UNL     1       3.621   3.479  18.206  0.00  0.00    +0.000 A 
ATOM      3  N   UNL     1       4.265   4.140  17.234  0.00  0.00    +0.000 NA
ATOM      4  N   UNL     1       3.977   5.438  17.470  0.00  0.00    +0.000 N 
ATOM      5  C   UNL     1       3.174   5.627  18.565  0.00  0.00    +0.000 A 
ATOM      6  N   UNL     1       2.734   6.806  19.043  0.00  0.00    +0.000 NA
ATOM      7  C   UNL     1       1.956   6.703  20.153  0.00  0.00    +0.000 A 
ATOM      8  C   UNL     1       1.632   5.480  20.754  0.00  0.00    +0.000 A 
ATOM      9  C   UNL     1       2.107   4.262  20.226  0.00  0.00    +0.000 A 
ATOM     10  C   UNL     1       2.919   4.361  19.077  0.00  0.00    +0.000 A 
ENDROOT
BRANCH   7  11
ATOM     11  C   UNL     1       1.406   7.979  20.789  0.00  0.00    +0.000 C 
ATOM     12  F   UNL     1       1.379   9.057  19.958  0.00  0.00    +0.000 F 
ATOM     13  F   UNL     1       0.126   7.820  21.239  0.00  0.00    +0.000 F 
ATOM     14  F   UNL     1       2.128   8.365  21.881  0.00  0.00    +0.000 F 
ENDBRANCH   7  11
BRANCH   9  15
ATOM     15  C   UNL     1       1.752   2.954  20.878  0.00  0.00    +0.000 C 
ATOM     16  F   UNL     1       0.882   3.090  21.917  0.00  0.00    +0.000 F 
ATOM     17  F   UNL     1       1.163   2.083  20.014  0.00  0.00    +0.000 F 
ATOM     18  F   UNL     1       2.837   2.310  21.386  0.00  0.00    +0.000 F 
ENDBRANCH   9  15
BRANCH   4  19
ATOM     19  C   UNL     1       4.538   6.464  16.612  0.00  0.00    +0.000 C 
BRANCH  19  20
ATOM     20  C   UNL     1       5.846   7.020  17.161  0.00  0.00    +0.000 C 
BRANCH  20  21
ATOM     21  C   UNL     1       6.777   5.939  17.548  0.00  0.00    +0.000 A 
ATOM     22  N   UNL     1       7.407   5.139  16.634  0.00  0.00    +0.000 NA
ATOM     23  N   UNL     1       8.165   4.303  17.331  0.00  0.00    +0.000 NA
ATOM     24  N   UNL     1       7.959   4.640  18.611  0.00  0.00    +0.000 N 
ATOM     25  N   UNL     1       7.092   5.646  18.819  0.00  0.00    +0.000 NA
ATOM     26  H   UNL     1       8.431   4.161  19.373  0.00  0.00    +0.000 HD
ENDBRANCH  20  21
ENDBRANCH  19  20
ENDBRANCH   4  19
TORSDOF 5
ENDMDL
MODEL 5
REMARK VINA RESULT:      -8.3      1.470      2.027
REMARK  Name = 
REMARK  6 active torsions:
REMARK  status: ('A' for Active; 'I' for Inactive)
REMARK    1  A    between atoms: C_1  and  C_2
REMARK    2  A    between atoms: N_4  and  C_5
REMARK    3  A    between atoms: C_5  and  C_6
REMARK    4  A    between atoms: C_6  and  C_7
REMARK    5  A    between atoms: C_14  and  C_15
REMARK    6  A    between atoms: C_20  and  C_21
REMARK                            x       y       z     vdW  Elec       q    Type
REMARK                         _______ _______ _______ _____ _____    ______ ____
ROOT
ATOM      1  C   UNL     1       3.762   1.961  18.392  0.00  0.00    +0.000 C 
ATOM      2  C   UNL     1       3.643   3.439  18.305  0.00  0.00    +0.000 A 
ATOM      3  N   UNL     1       4.268   4.094  17.317  0.00  0.00    +0.000 NA
ATOM      4  N   UNL     1       3.957   5.390  17.532  0.00  0.00    +0.000 N 
ATOM      5  C   UNL     1       3.159   5.584  18.629  0.00  0.00    +0.000 A 
ATOM      6  N   UNL     1       2.701   6.763  19.089  0.00  0.00    +0.000 NA
ATOM      7  C   UNL     1       1.932   6.666  20.206  0.00  0.00    +0.000 A 
ATOM      8  C   UNL     1       1.634   5.448  20.831  0.00  0.00    +0.000 A 
ATOM      9  C   UNL     1       2.128   4.230  20.321  0.00  0.00    +0.000 A 
ATOM     10  C   UNL     1       2.930   4.323  19.165  0.00  0.00    +0.000 A 
ENDROOT
BRANCH   7  11
ATOM     11  C   UNL     1       1.363   7.943  20.823  0.00  0.00    +0.000 C 
ATOM     12  F   UNL     1       0.081   7.831  21.269  0.00  0.00    +0.000 F 
ATOM     13  F   UNL     1       2.096   8.370  21.893  0.00  0.00    +0.000 F 
ATOM     14  F   UNL     1       1.363   8.987  19.943  0.00  0.00    +0.000 F 
ENDBRANCH   7  11
BRANCH   9  15
ATOM     15  C   UNL     1       1.801   2.928  20.999  0.00  0.00    +0.000 C 
ATOM     16  F   UNL     1       2.886   2.327  21.562  0.00  0.00    +0.000 F 
ATOM     17  F   UNL     1       0.897   3.076  22.005  0.00  0.00    +0.000 F 
ATOM     18  F   UNL     1       1.271   2.011  20.145  0.00  0.00    +0.000 F 
ENDBRANCH   9  15
BRANCH   4  19
ATOM     19  C   UNL     1       4.494   6.411  16.652  0.00  0.00    +0.000 C 
BRANCH  19  20
ATOM     20  C   UNL     1       5.807   6.984  17.170  0.00  0.00    +0.000 C 
BRANCH  20  21
ATOM     21  C   UNL     1       6.762   5.915  17.530  0.00  0.00    +0.000 A 
ATOM     22  N   UNL     1       7.381   5.125  16.599  0.00  0.00    +0.000 NA
ATOM     23  N   UNL     1       8.168   4.299  17.275  0.00  0.00    +0.000 NA
ATOM     24  N   UNL     1       7.989   4.630  18.560  0.00  0.00    +0.000 N 
ATOM     25  N   UNL     1       7.113   5.623  18.792  0.00  0.00    +0.000 NA
ATOM     26  H   UNL     1       8.486   4.155  19.309  0.00  0.00    +0.000 HD
ENDBRANCH  20  21
ENDBRANCH  19  20
ENDBRANCH   4  19
TORSDOF 5
ENDMDL
MODEL 6
REMARK VINA RESULT:      -8.3      1.417      2.059
REMARK  Name = 
REMARK  6 active torsions:
REMARK  status: ('A' for Active; 'I' for Inactive)
REMARK    1  A    between atoms: C_1  and  C_2
REMARK    2  A    between atoms: N_4  and  C_5
REMARK    3  A    between atoms: C_5  and  C_6
REMARK    4  A    between atoms: C_6  and  C_7
REMARK    5  A    between atoms: C_14  and  C_15
REMARK    6  A    between atoms: C_20  and  C_21
REMARK                            x       y       z     vdW  Elec       q    Type
REMARK                         _______ _______ _______ _____ _____    ______ ____
ROOT
ATOM      1  C   UNL     1       3.754   1.946  18.307  0.00  0.00    +0.000 C 
ATOM      2  C   UNL     1       3.660   3.426  18.216  0.00  0.00    +0.000 A 
ATOM      3  N   UNL     1       4.298   4.067  17.228  0.00  0.00    +0.000 NA
ATOM      4  N   UNL     1       4.008   5.369  17.437  0.00  0.00    +0.000 N 
ATOM      5  C   UNL     1       3.211   5.579  18.532  0.00  0.00    +0.000 A 
ATOM      6  N   UNL     1       2.771   6.768  18.987  0.00  0.00    +0.000 NA
ATOM      7  C   UNL     1       1.998   6.687  20.103  0.00  0.00    +0.000 A 
ATOM      8  C   UNL     1       1.679   5.476  20.731  0.00  0.00    +0.000 A 
ATOM      9  C   UNL     1       2.153   4.248  20.226  0.00  0.00    +0.000 A 
ATOM     10  C   UNL     1       2.960   4.324  19.072  0.00  0.00    +0.000 A 
ENDROOT
BRANCH   7  11
ATOM     11  C   UNL     1       1.448   7.975  20.714  0.00  0.00    +0.000 C 
ATOM     12  F   UNL     1       1.405   9.032  19.857  0.00  0.00    +0.000 F 
ATOM     13  F   UNL     1       0.176   7.820  21.184  0.00  0.00    +0.000 F 
ATOM     14  F   UNL     1       2.183   8.393  21.787  0.00  0.00    +0.000 F 
ENDBRANCH   7  11
BRANCH   9  15
ATOM     15  C   UNL     1       1.803   2.954  20.907  0.00  0.00    +0.000 C 
ATOM     16  F   UNL     1       2.882   2.321  21.446  0.00  0.00    +0.000 F 
ATOM     17  F   UNL     1       0.924   3.125  21.931  0.00  0.00    +0.000 F 
ATOM     18  F   UNL     1       1.231   2.055  20.061  0.00  0.00    +0.000 F 
ENDBRANCH   9  15
BRANCH   4  19
ATOM     19  C   UNL     1       4.564   6.378  16.556  0.00  0.00    +0.000 C 
BRANCH  19  20
ATOM     20  C   UNL     1       5.845   6.985  17.112  0.00  0.00    +0.000 C 
BRANCH  20  21
ATOM     21  C   UNL     1       6.799   5.942  17.544  0.00  0.00    +0.000 A 
ATOM     22  N   UNL     1       7.188   5.783  18.846  0.00  0.00    +0.000 NA
ATOM     23  N   UNL     1       8.027   4.756  18.863  0.00  0.00    +0.000 NA
ATOM     24  N   UNL     1       8.096   4.351  17.588  0.00  0.00    +0.000 N 
ATOM     25  N   UNL     1       7.363   5.056  16.709  0.00  0.00    +0.000 NA
ATOM     26  H   UNL     1       8.669   3.559  17.309  0.00  0.00    +0.000 HD
ENDBRANCH  20  21
ENDBRANCH  19  20
ENDBRANCH   4  19
TORSDOF 5
ENDMDL
MODEL 7
REMARK VINA RESULT:      -8.2      1.531      1.992
REMARK  Name = 
REMARK  6 active torsions:
REMARK  status: ('A' for Active; 'I' for Inactive)
REMARK    1  A    between atoms: C_1  and  C_2
REMARK    2  A    between atoms: N_4  and  C_5
REMARK    3  A    between atoms: C_5  and  C_6
REMARK    4  A    between atoms: C_6  and  C_7
REMARK    5  A    between atoms: C_14  and  C_15
REMARK    6  A    between atoms: C_20  and  C_21
REMARK                            x       y       z     vdW  Elec       q    Type
REMARK                         _______ _______ _______ _____ _____    ______ ____
ROOT
ATOM      1  C   UNL     1       3.647   2.184  18.168  0.00  0.00    +0.000 C 
ATOM      2  C   UNL     1       3.532   3.665  18.172  0.00  0.00    +0.000 A 
ATOM      3  N   UNL     1       4.157   4.377  17.224  0.00  0.00    +0.000 NA
ATOM      4  N   UNL     1       3.850   5.659  17.517  0.00  0.00    +0.000 N 
ATOM      5  C   UNL     1       3.055   5.788  18.627  0.00  0.00    +0.000 A 
ATOM      6  N   UNL     1       2.601   6.938  19.158  0.00  0.00    +0.000 NA
ATOM      7  C   UNL     1       1.835   6.775  20.270  0.00  0.00    +0.000 A 
ATOM      8  C   UNL     1       1.536   5.523  20.820  0.00  0.00    +0.000 A 
ATOM      9  C   UNL     1       2.025   4.336  20.236  0.00  0.00    +0.000 A 
ATOM     10  C   UNL     1       2.824   4.497  19.086  0.00  0.00    +0.000 A 
ENDROOT
BRANCH   7  11
ATOM     11  C   UNL     1       1.271   8.014  20.965  0.00  0.00    +0.000 C 
ATOM     12  F   UNL     1      -0.020   7.889  21.380  0.00  0.00    +0.000 F 
ATOM     13  F   UNL     1       1.990   8.355  22.074  0.00  0.00    +0.000 F 
ATOM     14  F   UNL     1       1.300   9.116  20.160  0.00  0.00    +0.000 F 
ENDBRANCH   7  11
BRANCH   9  15
ATOM     15  C   UNL     1       1.696   2.996  20.835  0.00  0.00    +0.000 C 
ATOM     16  F   UNL     1       1.101   2.145  19.954  0.00  0.00    +0.000 F 
ATOM     17  F   UNL     1       2.799   2.344  21.292  0.00  0.00    +0.000 F 
ATOM     18  F   UNL     1       0.845   3.090  21.892  0.00  0.00    +0.000 F 
ENDBRANCH   9  15
BRANCH   4  19
ATOM     19  C   UNL     1       4.388   6.730  16.700  0.00  0.00    +0.000 C 
BRANCH  19  20
ATOM     20  C   UNL     1       5.782   7.149  17.146  0.00  0.00    +0.000 C 
BRANCH  20  21
ATOM     21  C   UNL     1       6.721   6.008  17.141  0.00  0.00    +0.000 A 
ATOM     22  N   UNL     1       7.224   5.454  18.286  0.00  0.00    +0.000 NA
ATOM     23  N   UNL     1       8.010   4.456  17.905  0.00  0.00    +0.000 NA
ATOM     24  N   UNL     1       7.939   4.457  16.567  0.00  0.00    +0.000 N 
ATOM     25  N   UNL     1       7.161   5.410  16.023  0.00  0.00    +0.000 NA
ATOM     26  H   UNL     1       8.444   3.778  16.004  0.00  0.00    +0.000 HD
ENDBRANCH  20  21
ENDBRANCH  19  20
ENDBRANCH   4  19
TORSDOF 5
ENDMDL
MODEL 8
REMARK VINA RESULT:      -8.2      1.613      2.478
REMARK  Name = 
REMARK  6 active torsions:
REMARK  status: ('A' for Active; 'I' for Inactive)
REMARK    1  A    between atoms: C_1  and  C_2
REMARK    2  A    between atoms: N_4  and  C_5
REMARK    3  A    between atoms: C_5  and  C_6
REMARK    4  A    between atoms: C_6  and  C_7
REMARK    5  A    between atoms: C_14  and  C_15
REMARK    6  A    between atoms: C_20  and  C_21
REMARK                            x       y       z     vdW  Elec       q    Type
REMARK                         _______ _______ _______ _____ _____    ______ ____
ROOT
ATOM      1  C   UNL     1       4.268   2.064  20.196  0.00  0.00    +0.000 C 
ATOM      2  C   UNL     1       4.515   3.393  19.579  0.00  0.00    +0.000 A 
ATOM      3  N   UNL     1       5.731   3.679  19.095  0.00  0.00    +0.000 NA
ATOM      4  N   UNL     1       5.609   4.937  18.619  0.00  0.00    +0.000 N 
ATOM      5  C   UNL     1       4.356   5.465  18.790  0.00  0.00    +0.000 A 
ATOM      6  N   UNL     1       3.947   6.694  18.424  0.00  0.00    +0.000 NA
ATOM      7  C   UNL     1       2.648   6.962  18.723  0.00  0.00    +0.000 A 
ATOM      8  C   UNL     1       1.799   6.043  19.353  0.00  0.00    +0.000 A 
ATOM      9  C   UNL     1       2.258   4.762  19.720  0.00  0.00    +0.000 A 
ATOM     10  C   UNL     1       3.606   4.478  19.418  0.00  0.00    +0.000 A 
ENDROOT
BRANCH   7  11
ATOM     11  C   UNL     1       2.075   8.332  18.361  0.00  0.00    +0.000 C 
ATOM     12  F   UNL     1       2.987   9.210  17.860  0.00  0.00    +0.000 F 
ATOM     13  F   UNL     1       1.084   8.245  17.426  0.00  0.00    +0.000 F 
ATOM     14  F   UNL     1       1.507   8.954  19.435  0.00  0.00    +0.000 F 
ENDBRANCH   7  11
BRANCH   9  15
ATOM     15  C   UNL     1       1.338   3.783  20.396  0.00  0.00    +0.000 C 
ATOM     16  F   UNL     1       0.076   4.264  20.571  0.00  0.00    +0.000 F 
ATOM     17  F   UNL     1       1.199   2.627  19.692  0.00  0.00    +0.000 F 
ATOM     18  F   UNL     1       1.773   3.424  21.634  0.00  0.00    +0.000 F 
ENDBRANCH   9  15
BRANCH   4  19
ATOM     19  C   UNL     1       6.761   5.596  18.033  0.00  0.00    +0.000 C 
BRANCH  19  20
ATOM     20  C   UNL     1       7.611   4.640  17.206  0.00  0.00    +0.000 C 
BRANCH  20  21
ATOM     21  C   UNL     1       7.170   4.603  15.795  0.00  0.00    +0.000 A 
ATOM     22  N   UNL     1       7.704   5.410  14.828  0.00  0.00    +0.000 NA
ATOM     23  N   UNL     1       7.087   5.096  13.697  0.00  0.00    +0.000 NA
ATOM     24  N   UNL     1       6.226   4.127  14.035  0.00  0.00    +0.000 N 
ATOM     25  N   UNL     1       6.217   3.779  15.334  0.00  0.00    +0.000 NA
ATOM     26  H   UNL     1       5.620   3.685  13.349  0.00  0.00    +0.000 HD
ENDBRANCH  20  21
ENDBRANCH  19  20
ENDBRANCH   4  19
TORSDOF 5
ENDMDL
MODEL 9
REMARK VINA RESULT:      -8.2      1.567      2.452
REMARK  Name = 
REMARK  6 active torsions:
REMARK  status: ('A' for Active; 'I' for Inactive)
REMARK    1  A    between atoms: C_1  and  C_2
REMARK    2  A    between atoms: N_4  and  C_5
REMARK    3  A    between atoms: C_5  and  C_6
REMARK    4  A    between atoms: C_6  and  C_7
REMARK    5  A    between atoms: C_14  and  C_15
REMARK    6  A    between atoms: C_20  and  C_21
REMARK                            x       y       z     vdW  Elec       q    Type
REMARK                         _______ _______ _______ _____ _____    ______ ____
ROOT
ATOM      1  C   UNL     1       4.299   2.050  20.144  0.00  0.00    +0.000 C 
ATOM      2  C   UNL     1       4.539   3.391  19.552  0.00  0.00    +0.000 A 
ATOM      3  N   UNL     1       5.758   3.697  19.086  0.00  0.00    +0.000 NA
ATOM      4  N   UNL     1       5.630   4.962  18.630  0.00  0.00    +0.000 N 
ATOM      5  C   UNL     1       4.370   5.475  18.797  0.00  0.00    +0.000 A 
ATOM      6  N   UNL     1       3.953   6.707  18.448  0.00  0.00    +0.000 NA
ATOM      7  C   UNL     1       2.649   6.958  18.738  0.00  0.00    +0.000 A 
ATOM      8  C   UNL     1       1.802   6.021  19.344  0.00  0.00    +0.000 A 
ATOM      9  C   UNL     1       2.269   4.738  19.694  0.00  0.00    +0.000 A 
ATOM     10  C   UNL     1       3.623   4.472  19.401  0.00  0.00    +0.000 A 
ENDROOT
BRANCH   7  11
ATOM     11  C   UNL     1       2.067   8.329  18.393  0.00  0.00    +0.000 C 
ATOM     12  F   UNL     1       1.068   8.301  17.470  0.00  0.00    +0.000 F 
ATOM     13  F   UNL     1       1.549   8.958  19.488  0.00  0.00    +0.000 F 
ATOM     14  F   UNL     1       3.012   9.181  17.898  0.00  0.00    +0.000 F 
ENDBRANCH   7  11
BRANCH   9  15
ATOM     15  C   UNL     1       1.351   3.739  20.343  0.00  0.00    +0.000 C 
ATOM     16  F   UNL     1       1.746   3.381  21.596  0.00  0.00    +0.000 F 
ATOM     17  F   UNL     1       0.081   4.208  20.475  0.00  0.00    +0.000 F 
ATOM     18  F   UNL     1       1.257   2.580  19.638  0.00  0.00    +0.000 F 
ENDBRANCH   9  15
BRANCH   4  19
ATOM     19  C   UNL     1       6.781   5.640  18.067  0.00  0.00    +0.000 C 
BRANCH  19  20
ATOM     20  C   UNL     1       7.641   4.710  17.222  0.00  0.00    +0.000 C 
BRANCH  20  21
ATOM     21  C   UNL     1       7.173   4.658  15.821  0.00  0.00    +0.000 A 
ATOM     22  N   UNL     1       6.149   3.849  15.409  0.00  0.00    +0.000 NA
ATOM     23  N   UNL     1       5.996   4.074  14.111  0.00  0.00    +0.000 NA
ATOM     24  N   UNL     1       6.919   4.997  13.812  0.00  0.00    +0.000 N 
ATOM     25  N   UNL     1       7.699   5.397  14.832  0.00  0.00    +0.000 NA
ATOM     26  H   UNL     1       7.021   5.367  12.871  0.00  0.00    +0.000 HD
ENDBRANCH  20  21
ENDBRANCH  19  20
ENDBRANCH   4  19
TORSDOF 5
ENDMDL
