MODEL 1
REMARK VINA RESULT:      -9.4      0.000      0.000
REMARK  Name = 
REMARK  5 active torsions:
REMARK  status: ('A' for Active; 'I' for Inactive)
REMARK    1  A    between atoms: C_1  and  N_2
REMARK    2  A    between atoms: C_7  and  C_8
REMARK    3  A    between atoms: C_11  and  C_12
REMARK    4  A    between atoms: C_12  and  C_13
REMARK    5  A    between atoms: N_25  and  C_26
REMARK                            x       y       z     vdW  Elec       q    Type
REMARK                         _______ _______ _______ _____ _____    ______ ____
ROOT
ATOM      1  C   UNL     1      -2.980  14.489  22.587  0.00  0.00    +0.000 C 
ATOM      2  N   UNL     1      -2.102  13.426  22.147  0.00  0.00    +0.000 N 
ATOM      3  C   UNL     1      -1.068  13.004  22.942  0.00  0.00    +0.000 A 
ATOM      4  N   UNL     1      -0.224  12.082  22.621  0.00  0.00    +0.000 NA
ATOM      5  C   UNL     1      -0.380  11.464  21.369  0.00  0.00    +0.000 A 
ATOM      6  C   UNL     1       0.537  10.484  21.009  0.00  0.00    +0.000 A 
ATOM      7  C   UNL     1       0.428   9.867  19.769  0.00  0.00    +0.000 A 
ATOM      8  N   UNL     1      -0.559  10.207  18.895  0.00  0.00    +0.000 NA
ATOM      9  C   UNL     1      -1.466  11.160  19.239  0.00  0.00    +0.000 A 
ATOM     10  N   UNL     1      -2.542  11.429  18.356  0.00  0.00    +0.000 N 
ATOM     11  C   UNL     1      -1.390  11.804  20.478  0.00  0.00    +0.000 A 
ATOM     12  C   UNL     1      -2.301  12.894  20.879  0.00  0.00    +0.000 A 
ATOM     13  O   UNL     1      -3.154  13.319  20.100  0.00  0.00    +0.000 OA
ATOM     14  H   UNL     1      -2.963  12.337  18.583  0.00  0.00    +0.000 HD
ENDROOT
BRANCH   7  15
ATOM     15  C   UNL     1       1.409   8.858  19.304  0.00  0.00    +0.000 A 
ATOM     16  C   UNL     1       2.003   8.918  18.029  0.00  0.00    +0.000 A 
ATOM     17  C   UNL     1       2.846   7.900  17.561  0.00  0.00    +0.000 A 
ATOM     18  C   UNL     1       3.143   6.795  18.366  0.00  0.00    +0.000 A 
ATOM     19  C   UNL     1       2.599   6.747  19.654  0.00  0.00    +0.000 A 
ATOM     20  C   UNL     1       1.752   7.763  20.114  0.00  0.00    +0.000 A 
BRANCH  18  21
ATOM     21  C   UNL     1       3.972   5.643  17.838  0.00  0.00    +0.000 C 
BRANCH  21  22
ATOM     22  C   UNL     1       4.423   4.615  18.869  0.00  0.00    +0.000 C 
ATOM     23  O   UNL     1       5.536   4.653  19.395  0.00  0.00    +0.000 OA
ATOM     24  N   UNL     1       3.508   3.621  19.198  0.00  0.00    +0.000 N 
ATOM     25  C   UNL     1       2.172   3.427  18.624  0.00  0.00    +0.000 C 
ATOM     26  C   UNL     1       1.124   3.286  19.738  0.00  0.00    +0.000 C 
ATOM     27  O   UNL     1       1.490   2.261  20.676  0.00  0.00    +0.000 OA
ATOM     28  C   UNL     1       2.767   2.546  21.274  0.00  0.00    +0.000 C 
ATOM     29  C   UNL     1       3.861   2.618  20.206  0.00  0.00    +0.000 C 
ENDBRANCH  21  22
ENDBRANCH  18  21
ENDBRANCH   7  15
BRANCH  10  30
ATOM     30  C   UNL     1      -2.402  11.131  16.931  0.00  0.00    +0.000 C 
ATOM     31  C   UNL     1      -2.937   9.834  16.383  0.00  0.00    +0.000 C 
ATOM     32  C   UNL     1      -3.595  11.132  16.017  0.00  0.00    +0.000 C 
ENDBRANCH  10  30
TORSDOF 4
ENDMDL
MODEL 2
REMARK VINA RESULT:      -8.8      2.446      9.666
REMARK  Name = 
REMARK  5 active torsions:
REMARK  status: ('A' for Active; 'I' for Inactive)
REMARK    1  A    between atoms: C_1  and  N_2
REMARK    2  A    between atoms: C_7  and  C_8
REMARK    3  A    between atoms: C_11  and  C_12
REMARK    4  A    between atoms: C_12  and  C_13
REMARK    5  A    between atoms: N_25  and  C_26
REMARK                            x       y       z     vdW  Elec       q    Type
REMARK                         _______ _______ _______ _____ _____    ______ ____
ROOT
ATOM      1  C   UNL     1       6.469   3.709  15.629  0.00  0.00    +0.000 C 
ATOM      2  N   UNL     1       5.585   4.719  16.172  0.00  0.00    +0.000 N 
ATOM      3  C   UNL     1       5.574   5.987  15.651  0.00  0.00    +0.000 A 
ATOM      4  N   UNL     1       4.840   6.953  16.086  0.00  0.00    +0.000 NA
ATOM      5  C   UNL     1       3.986   6.686  17.170  0.00  0.00    +0.000 A 
ATOM      6  C   UNL     1       3.206   7.727  17.657  0.00  0.00    +0.000 A 
ATOM      7  C   UNL     1       2.367   7.505  18.742  0.00  0.00    +0.000 A 
ATOM      8  N   UNL     1       2.297   6.286  19.342  0.00  0.00    +0.000 NA
ATOM      9  C   UNL     1       3.051   5.257  18.871  0.00  0.00    +0.000 A 
ATOM     10  N   UNL     1       2.890   3.971  19.448  0.00  0.00    +0.000 N 
ATOM     11  C   UNL     1       3.907   5.440  17.781  0.00  0.00    +0.000 A 
ATOM     12  C   UNL     1       4.801   4.383  17.269  0.00  0.00    +0.000 A 
ATOM     13  O   UNL     1       4.861   3.287  17.825  0.00  0.00    +0.000 OA
ATOM     14  H   UNL     1       3.696   3.381  19.216  0.00  0.00    +0.000 HD
ENDROOT
BRANCH   7  15
ATOM     15  C   UNL     1       1.556   8.590  19.343  0.00  0.00    +0.000 A 
ATOM     16  C   UNL     1       1.152   8.569  20.692  0.00  0.00    +0.000 A 
ATOM     17  C   UNL     1       0.296   9.545  21.219  0.00  0.00    +0.000 A 
ATOM     18  C   UNL     1      -0.169  10.593  20.418  0.00  0.00    +0.000 A 
ATOM     19  C   UNL     1       0.265  10.656  19.089  0.00  0.00    +0.000 A 
ATOM     20  C   UNL     1       1.115   9.673  18.565  0.00  0.00    +0.000 A 
BRANCH  18  21
ATOM     21  C   UNL     1      -1.169  11.599  20.947  0.00  0.00    +0.000 C 
BRANCH  21  22
ATOM     22  C   UNL     1      -0.622  12.641  21.916  0.00  0.00    +0.000 C 
ATOM     23  O   UNL     1      -0.528  12.432  23.126  0.00  0.00    +0.000 OA
ATOM     24  N   UNL     1      -0.226  13.855  21.365  0.00  0.00    +0.000 N 
ATOM     25  C   UNL     1      -0.321  14.257  19.958  0.00  0.00    +0.000 C 
ATOM     26  C   UNL     1       1.029  14.798  19.461  0.00  0.00    +0.000 C 
ATOM     27  O   UNL     1       1.522  15.843  20.315  0.00  0.00    +0.000 OA
ATOM     28  C   UNL     1       1.680  15.370  21.664  0.00  0.00    +0.000 C 
ATOM     29  C   UNL     1       0.341  14.892  22.231  0.00  0.00    +0.000 C 
ENDBRANCH  21  22
ENDBRANCH  18  21
ENDBRANCH   7  15
BRANCH  10  30
ATOM     30  C   UNL     1       2.381   3.849  20.813  0.00  0.00    +0.000 C 
ATOM     31  C   UNL     1       1.192   2.968  21.092  0.00  0.00    +0.000 C 
ATOM     32  C   UNL     1       2.550   2.576  21.593  0.00  0.00    +0.000 C 
ENDBRANCH  10  30
TORSDOF 4
ENDMDL
MODEL 3
REMARK VINA RESULT:      -8.8      2.412      9.633
REMARK  Name = 
REMARK  5 active torsions:
REMARK  status: ('A' for Active; 'I' for Inactive)
REMARK    1  A    between atoms: C_1  and  N_2
REMARK    2  A    between atoms: C_7  and  C_8
REMARK    3  A    between atoms: C_11  and  C_12
REMARK    4  A    between atoms: C_12  and  C_13
REMARK    5  A    between atoms: N_25  and  C_26
REMARK                            x       y       z     vdW  Elec       q    Type
REMARK                         _______ _______ _______ _____ _____    ______ ____
ROOT
ATOM      1  C   UNL     1       6.439   3.688  15.637  0.00  0.00    +0.000 C 
ATOM      2  N   UNL     1       5.588   4.740  16.153  0.00  0.00    +0.000 N 
ATOM      3  C   UNL     1       5.644   6.003  15.623  0.00  0.00    +0.000 A 
ATOM      4  N   UNL     1       4.942   7.003  16.036  0.00  0.00    +0.000 NA
ATOM      5  C   UNL     1       4.053   6.781  17.101  0.00  0.00    +0.000 A 
ATOM      6  C   UNL     1       3.307   7.859  17.563  0.00  0.00    +0.000 A 
ATOM      7  C   UNL     1       2.436   7.681  18.629  0.00  0.00    +0.000 A 
ATOM      8  N   UNL     1       2.299   6.470  19.236  0.00  0.00    +0.000 NA
ATOM      9  C   UNL     1       3.018   5.406  18.788  0.00  0.00    +0.000 A 
ATOM     10  N   UNL     1       2.789   4.133  19.370  0.00  0.00    +0.000 N 
ATOM     11  C   UNL     1       3.906   5.544  17.717  0.00  0.00    +0.000 A 
ATOM     12  C   UNL     1       4.765   4.446  17.233  0.00  0.00    +0.000 A 
ATOM     13  O   UNL     1       4.765   3.353  17.797  0.00  0.00    +0.000 OA
ATOM     14  H   UNL     1       3.574   3.506  19.161  0.00  0.00    +0.000 HD
ENDROOT
BRANCH   7  15
ATOM     15  C   UNL     1       1.658   8.804  19.205  0.00  0.00    +0.000 A 
ATOM     16  C   UNL     1       1.003   8.707  20.447  0.00  0.00    +0.000 A 
ATOM     17  C   UNL     1       0.183   9.737  20.929  0.00  0.00    +0.000 A 
ATOM     18  C   UNL     1       0.010  10.913  20.192  0.00  0.00    +0.000 A 
ATOM     19  C   UNL     1       0.695  11.044  18.979  0.00  0.00    +0.000 A 
ATOM     20  C   UNL     1       1.507  10.009  18.499  0.00  0.00    +0.000 A 
BRANCH  18  21
ATOM     21  C   UNL     1      -0.948  11.991  20.654  0.00  0.00    +0.000 C 
BRANCH  21  22
ATOM     22  C   UNL     1      -1.380  11.922  22.115  0.00  0.00    +0.000 C 
ATOM     23  O   UNL     1      -0.619  11.558  23.012  0.00  0.00    +0.000 OA
ATOM     24  N   UNL     1      -2.690  12.296  22.394  0.00  0.00    +0.000 N 
ATOM     25  C   UNL     1      -3.715  12.706  21.428  0.00  0.00    +0.000 C 
ATOM     26  C   UNL     1      -4.363  14.030  21.862  0.00  0.00    +0.000 C 
ATOM     27  O   UNL     1      -4.854  13.957  23.210  0.00  0.00    +0.000 OA
ATOM     28  C   UNL     1      -3.792  13.640  24.126  0.00  0.00    +0.000 C 
ATOM     29  C   UNL     1      -3.165  12.286  23.780  0.00  0.00    +0.000 C 
ENDBRANCH  21  22
ENDBRANCH  18  21
ENDBRANCH   7  15
BRANCH  10  30
ATOM     30  C   UNL     1       2.244   4.043  20.724  0.00  0.00    +0.000 C 
ATOM     31  C   UNL     1       1.050   3.164  20.993  0.00  0.00    +0.000 C 
ATOM     32  C   UNL     1       2.396   2.790  21.540  0.00  0.00    +0.000 C 
ENDBRANCH  10  30
TORSDOF 4
ENDMDL
MODEL 4
REMARK VINA RESULT:      -8.8      2.271      9.602
REMARK  Name = 
REMARK  5 active torsions:
REMARK  status: ('A' for Active; 'I' for Inactive)
REMARK    1  A    between atoms: C_1  and  N_2
REMARK    2  A    between atoms: C_7  and  C_8
REMARK    3  A    between atoms: C_11  and  C_12
REMARK    4  A    between atoms: C_12  and  C_13
REMARK    5  A    between atoms: N_25  and  C_26
REMARK                            x       y       z     vdW  Elec       q    Type
REMARK                         _______ _______ _______ _____ _____    ______ ____
ROOT
ATOM      1  C   UNL     1       6.238   3.595  15.690  0.00  0.00    +0.000 C 
ATOM      2  N   UNL     1       5.442   4.694  16.194  0.00  0.00    +0.000 N 
ATOM      3  C   UNL     1       5.714   5.982  15.812  0.00  0.00    +0.000 A 
ATOM      4  N   UNL     1       5.075   7.022  16.229  0.00  0.00    +0.000 NA
ATOM      5  C   UNL     1       4.022   6.819  17.137  0.00  0.00    +0.000 A 
ATOM      6  C   UNL     1       3.341   7.936  17.605  0.00  0.00    +0.000 A 
ATOM      7  C   UNL     1       2.310   7.775  18.521  0.00  0.00    +0.000 A 
ATOM      8  N   UNL     1       1.954   6.542  18.974  0.00  0.00    +0.000 NA
ATOM      9  C   UNL     1       2.608   5.441  18.519  0.00  0.00    +0.000 A 
ATOM     10  N   UNL     1       2.157   4.160  18.928  0.00  0.00    +0.000 N 
ATOM     11  C   UNL     1       3.651   5.561  17.596  0.00  0.00    +0.000 A 
ATOM     12  C   UNL     1       4.444   4.411  17.118  0.00  0.00    +0.000 A 
ATOM     13  O   UNL     1       4.241   3.281  17.561  0.00  0.00    +0.000 OA
ATOM     14  H   UNL     1       2.890   3.461  18.762  0.00  0.00    +0.000 HD
ENDROOT
BRANCH   7  15
ATOM     15  C   UNL     1       1.587   8.931  19.102  0.00  0.00    +0.000 A 
ATOM     16  C   UNL     1       0.999   8.886  20.380  0.00  0.00    +0.000 A 
ATOM     17  C   UNL     1       0.226   9.947  20.873  0.00  0.00    +0.000 A 
ATOM     18  C   UNL     1       0.035  11.104  20.109  0.00  0.00    +0.000 A 
ATOM     19  C   UNL     1       0.655  11.183  18.858  0.00  0.00    +0.000 A 
ATOM     20  C   UNL     1       1.420  10.117  18.367  0.00  0.00    +0.000 A 
BRANCH  18  21
ATOM     21  C   UNL     1      -0.875  12.215  20.588  0.00  0.00    +0.000 C 
BRANCH  21  22
ATOM     22  C   UNL     1      -2.253  12.279  19.939  0.00  0.00    +0.000 C 
ATOM     23  O   UNL     1      -2.477  11.817  18.819  0.00  0.00    +0.000 OA
ATOM     24  N   UNL     1      -3.262  12.885  20.679  0.00  0.00    +0.000 N 
ATOM     25  C   UNL     1      -3.132  13.513  21.999  0.00  0.00    +0.000 C 
ATOM     26  C   UNL     1      -4.204  12.974  22.958  0.00  0.00    +0.000 C 
ATOM     27  O   UNL     1      -5.521  13.102  22.399  0.00  0.00    +0.000 OA
ATOM     28  C   UNL     1      -5.619  12.395  21.150  0.00  0.00    +0.000 C 
ATOM     29  C   UNL     1      -4.620  12.952  20.133  0.00  0.00    +0.000 C 
ENDBRANCH  21  22
ENDBRANCH  18  21
ENDBRANCH   7  15
BRANCH  10  30
ATOM     30  C   UNL     1       1.415   4.020  20.181  0.00  0.00    +0.000 C 
ATOM     31  C   UNL     1       1.343   2.678  20.861  0.00  0.00    +0.000 C 
ATOM     32  C   UNL     1       2.129   3.794  21.484  0.00  0.00    +0.000 C 
ENDBRANCH  10  30
TORSDOF 4
ENDMDL
MODEL 5
REMARK VINA RESULT:      -8.8      1.623      2.862
REMARK  Name = 
REMARK  5 active torsions:
REMARK  status: ('A' for Active; 'I' for Inactive)
REMARK    1  A    between atoms: C_1  and  N_2
REMARK    2  A    between atoms: C_7  and  C_8
REMARK    3  A    between atoms: C_11  and  C_12
REMARK    4  A    between atoms: C_12  and  C_13
REMARK    5  A    between atoms: N_25  and  C_26
REMARK                            x       y       z     vdW  Elec       q    Type
REMARK                         _______ _______ _______ _____ _____    ______ ____
ROOT
ATOM      1  C   UNL     1      -2.795  14.733  22.269  0.00  0.00    +0.000 C 
ATOM      2  N   UNL     1      -1.998  13.546  22.037  0.00  0.00    +0.000 N 
ATOM      3  C   UNL     1      -1.128  13.094  22.995  0.00  0.00    +0.000 A 
ATOM      4  N   UNL     1      -0.363  12.064  22.865  0.00  0.00    +0.000 NA
ATOM      5  C   UNL     1      -0.431  11.351  21.656  0.00  0.00    +0.000 A 
ATOM      6  C   UNL     1       0.403  10.250  21.501  0.00  0.00    +0.000 A 
ATOM      7  C   UNL     1       0.379   9.536  20.310  0.00  0.00    +0.000 A 
ATOM      8  N   UNL     1      -0.444   9.894  19.287  0.00  0.00    +0.000 NA
ATOM      9  C   UNL     1      -1.270  10.965  19.429  0.00  0.00    +0.000 A 
ATOM     10  N   UNL     1      -2.188  11.262  18.390  0.00  0.00    +0.000 N 
ATOM     11  C   UNL     1      -1.276  11.710  20.613  0.00  0.00    +0.000 A 
ATOM     12  C   UNL     1      -2.097  12.922  20.800  0.00  0.00    +0.000 A 
ATOM     13  O   UNL     1      -2.790  13.360  19.882  0.00  0.00    +0.000 OA
ATOM     14  H   UNL     1      -2.525  12.226  18.487  0.00  0.00    +0.000 HD
ENDROOT
BRANCH   7  15
ATOM     15  C   UNL     1       1.287   8.391  20.063  0.00  0.00    +0.000 A 
ATOM     16  C   UNL     1       2.037   8.267  18.878  0.00  0.00    +0.000 A 
ATOM     17  C   UNL     1       2.807   7.127  18.610  0.00  0.00    +0.000 A 
ATOM     18  C   UNL     1       2.873   6.078  19.533  0.00  0.00    +0.000 A 
ATOM     19  C   UNL     1       2.173   6.209  20.738  0.00  0.00    +0.000 A 
ATOM     20  C   UNL     1       1.398   7.347  20.997  0.00  0.00    +0.000 A 
BRANCH  18  21
ATOM     21  C   UNL     1       3.622   4.801  19.215  0.00  0.00    +0.000 C 
BRANCH  21  22
ATOM     22  C   UNL     1       3.746   4.448  17.737  0.00  0.00    +0.000 C 
ATOM     23  O   UNL     1       2.778   4.106  17.057  0.00  0.00    +0.000 OA
ATOM     24  N   UNL     1       5.018   4.535  17.181  0.00  0.00    +0.000 N 
ATOM     25  C   UNL     1       6.262   4.884  17.876  0.00  0.00    +0.000 C 
ATOM     26  C   UNL     1       7.008   5.993  17.119  0.00  0.00    +0.000 C 
ATOM     27  O   UNL     1       7.210   5.642  15.740  0.00  0.00    +0.000 OA
ATOM     28  C   UNL     1       5.954   5.397  15.084  0.00  0.00    +0.000 C 
ATOM     29  C   UNL     1       5.207   4.243  15.758  0.00  0.00    +0.000 C 
ENDBRANCH  21  22
ENDBRANCH  18  21
ENDBRANCH   7  15
BRANCH  10  30
ATOM     30  C   UNL     1      -1.906  10.819  17.026  0.00  0.00    +0.000 C 
ATOM     31  C   UNL     1      -2.722   9.709  16.416  0.00  0.00    +0.000 C 
ATOM     32  C   UNL     1      -2.859  11.112  15.902  0.00  0.00    +0.000 C 
ENDBRANCH  10  30
TORSDOF 4
ENDMDL
MODEL 6
REMARK VINA RESULT:      -8.7      2.430      9.577
REMARK  Name = 
REMARK  5 active torsions:
REMARK  status: ('A' for Active; 'I' for Inactive)
REMARK    1  A    between atoms: C_1  and  N_2
REMARK    2  A    between atoms: C_7  and  C_8
REMARK    3  A    between atoms: C_11  and  C_12
REMARK    4  A    between atoms: C_12  and  C_13
REMARK    5  A    between atoms: N_25  and  C_26
REMARK                            x       y       z     vdW  Elec       q    Type
REMARK                         _______ _______ _______ _____ _____    ______ ____
ROOT
ATOM      1  C   UNL     1       6.314   3.637  15.220  0.00  0.00    +0.000 C 
ATOM      2  N   UNL     1       5.515   4.683  15.823  0.00  0.00    +0.000 N 
ATOM      3  C   UNL     1       5.627   5.979  15.390  0.00  0.00    +0.000 A 
ATOM      4  N   UNL     1       4.975   6.977  15.884  0.00  0.00    +0.000 NA
ATOM      5  C   UNL     1       4.082   6.714  16.938  0.00  0.00    +0.000 A 
ATOM      6  C   UNL     1       3.390   7.787  17.487  0.00  0.00    +0.000 A 
ATOM      7  C   UNL     1       2.517   7.568  18.545  0.00  0.00    +0.000 A 
ATOM      8  N   UNL     1       2.328   6.322  19.059  0.00  0.00    +0.000 NA
ATOM      9  C   UNL     1       2.994   5.263  18.525  0.00  0.00    +0.000 A 
ATOM     10  N   UNL     1       2.709   3.961  19.010  0.00  0.00    +0.000 N 
ATOM     11  C   UNL     1       3.881   5.442  17.459  0.00  0.00    +0.000 A 
ATOM     12  C   UNL     1       4.686   4.346  16.885  0.00  0.00    +0.000 A 
ATOM     13  O   UNL     1       4.638   3.214  17.364  0.00  0.00    +0.000 OA
ATOM     14  H   UNL     1       3.463   3.317  18.746  0.00  0.00    +0.000 HD
ENDROOT
BRANCH   7  15
ATOM     15  C   UNL     1       1.796   8.678  19.211  0.00  0.00    +0.000 A 
ATOM     16  C   UNL     1       1.445   9.861  18.534  0.00  0.00    +0.000 A 
ATOM     17  C   UNL     1       0.860  10.946  19.202  0.00  0.00    +0.000 A 
ATOM     18  C   UNL     1       0.584  10.874  20.572  0.00  0.00    +0.000 A 
ATOM     19  C   UNL     1       0.882   9.686  21.248  0.00  0.00    +0.000 A 
ATOM     20  C   UNL     1       1.473   8.607  20.576  0.00  0.00    +0.000 A 
BRANCH  18  21
ATOM     21  C   UNL     1       0.043  12.071  21.324  0.00  0.00    +0.000 C 
BRANCH  21  22
ATOM     22  C   UNL     1      -0.935  11.766  22.454  0.00  0.00    +0.000 C 
ATOM     23  O   UNL     1      -0.661  10.992  23.371  0.00  0.00    +0.000 OA
ATOM     24  N   UNL     1      -2.164  12.414  22.405  0.00  0.00    +0.000 N 
ATOM     25  C   UNL     1      -2.640  13.324  21.356  0.00  0.00    +0.000 C 
ATOM     26  C   UNL     1      -3.171  14.625  21.976  0.00  0.00    +0.000 C 
ATOM     27  O   UNL     1      -4.158  14.362  22.986  0.00  0.00    +0.000 OA
ATOM     28  C   UNL     1      -3.613  13.540  24.033  0.00  0.00    +0.000 C 
ATOM     29  C   UNL     1      -3.141  12.195  23.475  0.00  0.00    +0.000 C 
ENDBRANCH  21  22
ENDBRANCH  18  21
ENDBRANCH   7  15
BRANCH  10  30
ATOM     30  C   UNL     1       2.169   3.793  20.358  0.00  0.00    +0.000 C 
ATOM     31  C   UNL     1       0.760   3.293  20.541  0.00  0.00    +0.000 C 
ATOM     32  C   UNL     1       1.921   2.425  20.929  0.00  0.00    +0.000 C 
ENDBRANCH  10  30
TORSDOF 4
ENDMDL
MODEL 7
REMARK VINA RESULT:      -8.7      2.388      9.548
REMARK  Name = 
REMARK  5 active torsions:
REMARK  status: ('A' for Active; 'I' for Inactive)
REMARK    1  A    between atoms: C_1  and  N_2
REMARK    2  A    between atoms: C_7  and  C_8
REMARK    3  A    between atoms: C_11  and  C_12
REMARK    4  A    between atoms: C_12  and  C_13
REMARK    5  A    between atoms: N_25  and  C_26
REMARK                            x       y       z     vdW  Elec       q    Type
REMARK                         _______ _______ _______ _____ _____    ______ ____
ROOT
ATOM      1  C   UNL     1       6.157   3.558  15.674  0.00  0.00    +0.000 C 
ATOM      2  N   UNL     1       5.367   4.641  16.220  0.00  0.00    +0.000 N 
ATOM      3  C   UNL     1       5.603   5.936  15.836  0.00  0.00    +0.000 A 
ATOM      4  N   UNL     1       4.967   6.963  16.288  0.00  0.00    +0.000 NA
ATOM      5  C   UNL     1       3.957   6.738  17.238  0.00  0.00    +0.000 A 
ATOM      6  C   UNL     1       3.280   7.841  17.743  0.00  0.00    +0.000 A 
ATOM      7  C   UNL     1       2.290   7.658  18.700  0.00  0.00    +0.000 A 
ATOM      8  N   UNL     1       1.972   6.417  19.159  0.00  0.00    +0.000 NA
ATOM      9  C   UNL     1       2.622   5.329  18.667  0.00  0.00    +0.000 A 
ATOM     10  N   UNL     1       2.208   4.038  19.086  0.00  0.00    +0.000 N 
ATOM     11  C   UNL     1       3.624   5.471  17.702  0.00  0.00    +0.000 A 
ATOM     12  C   UNL     1       4.413   4.337  17.183  0.00  0.00    +0.000 A 
ATOM     13  O   UNL     1       4.246   3.201  17.625  0.00  0.00    +0.000 OA
ATOM     14  H   UNL     1       2.944   3.352  18.883  0.00  0.00    +0.000 HD
ENDROOT
BRANCH   7  15
ATOM     15  C   UNL     1       1.575   8.799  19.319  0.00  0.00    +0.000 A 
ATOM     16  C   UNL     1       1.373  10.017  18.643  0.00  0.00    +0.000 A 
ATOM     17  C   UNL     1       0.791  11.123  19.277  0.00  0.00    +0.000 A 
ATOM     18  C   UNL     1       0.368  11.040  20.609  0.00  0.00    +0.000 A 
ATOM     19  C   UNL     1       0.517   9.821  21.278  0.00  0.00    +0.000 A 
ATOM     20  C   UNL     1       1.106   8.720  20.641  0.00  0.00    +0.000 A 
BRANCH  18  21
ATOM     21  C   UNL     1      -0.172  12.254  21.335  0.00  0.00    +0.000 C 
BRANCH  21  22
ATOM     22  C   UNL     1      -1.485  12.821  20.806  0.00  0.00    +0.000 C 
ATOM     23  O   UNL     1      -1.700  12.976  19.603  0.00  0.00    +0.000 OA
ATOM     24  N   UNL     1      -2.445  13.156  21.755  0.00  0.00    +0.000 N 
ATOM     25  C   UNL     1      -2.312  13.067  23.213  0.00  0.00    +0.000 C 
ATOM     26  C   UNL     1      -3.506  12.312  23.816  0.00  0.00    +0.000 C 
ATOM     27  O   UNL     1      -4.755  12.884  23.397  0.00  0.00    +0.000 OA
ATOM     28  C   UNL     1      -4.872  12.866  21.963  0.00  0.00    +0.000 C 
ATOM     29  C   UNL     1      -3.744  13.675  21.318  0.00  0.00    +0.000 C 
ENDBRANCH  21  22
ENDBRANCH  18  21
ENDBRANCH   7  15
BRANCH  10  30
ATOM     30  C   UNL     1       1.522   3.878  20.367  0.00  0.00    +0.000 C 
ATOM     31  C   UNL     1       1.542   2.542  21.064  0.00  0.00    +0.000 C 
ATOM     32  C   UNL     1       2.295   3.703  21.644  0.00  0.00    +0.000 C 
ENDBRANCH  10  30
TORSDOF 4
ENDMDL
MODEL 8
REMARK VINA RESULT:      -8.7      2.516      9.849
REMARK  Name = 
REMARK  5 active torsions:
REMARK  status: ('A' for Active; 'I' for Inactive)
REMARK    1  A    between atoms: C_1  and  N_2
REMARK    2  A    between atoms: C_7  and  C_8
REMARK    3  A    between atoms: C_11  and  C_12
REMARK    4  A    between atoms: C_12  and  C_13
REMARK    5  A    between atoms: N_25  and  C_26
REMARK                            x       y       z     vdW  Elec       q    Type
REMARK                         _______ _______ _______ _____ _____    ______ ____
ROOT
ATOM      1  C   UNL     1       6.045   3.877  15.653  0.00  0.00    +0.000 C 
ATOM      2  N   UNL     1       5.220   4.847  16.341  0.00  0.00    +0.000 N 
ATOM      3  C   UNL     1       5.180   6.151  15.919  0.00  0.00    +0.000 A 
ATOM      4  N   UNL     1       4.494   7.085  16.484  0.00  0.00    +0.000 NA
ATOM      5  C   UNL     1       3.729   6.740  17.612  0.00  0.00    +0.000 A 
ATOM      6  C   UNL     1       3.003   7.746  18.238  0.00  0.00    +0.000 A 
ATOM      7  C   UNL     1       2.254   7.446  19.369  0.00  0.00    +0.000 A 
ATOM      8  N   UNL     1       2.220   6.186  19.880  0.00  0.00    +0.000 NA
ATOM      9  C   UNL     1       2.922   5.192  19.273  0.00  0.00    +0.000 A 
ATOM     10  N   UNL     1       2.796   3.867  19.764  0.00  0.00    +0.000 N 
ATOM     11  C   UNL     1       3.687   5.453  18.132  0.00  0.00    +0.000 A 
ATOM     12  C   UNL     1       4.525   4.433  17.471  0.00  0.00    +0.000 A 
ATOM     13  O   UNL     1       4.619   3.298  17.937  0.00  0.00    +0.000 OA
ATOM     14  H   UNL     1       3.574   3.292  19.423  0.00  0.00    +0.000 HD
ENDROOT
BRANCH   7  15
ATOM     15  C   UNL     1       1.506   8.486  20.114  0.00  0.00    +0.000 A 
ATOM     16  C   UNL     1       1.294   8.410  21.504  0.00  0.00    +0.000 A 
ATOM     17  C   UNL     1       0.495   9.342  22.179  0.00  0.00    +0.000 A 
ATOM     18  C   UNL     1      -0.103  10.401  21.487  0.00  0.00    +0.000 A 
ATOM     19  C   UNL     1       0.140  10.519  20.114  0.00  0.00    +0.000 A 
ATOM     20  C   UNL     1       0.934   9.580  19.444  0.00  0.00    +0.000 A 
BRANCH  18  21
ATOM     21  C   UNL     1      -1.046  11.359  22.185  0.00  0.00    +0.000 C 
BRANCH  21  22
ATOM     22  C   UNL     1      -0.617  12.821  22.213  0.00  0.00    +0.000 C 
ATOM     23  O   UNL     1       0.525  13.179  21.922  0.00  0.00    +0.000 OA
ATOM     24  N   UNL     1      -1.586  13.748  22.582  0.00  0.00    +0.000 N 
ATOM     25  C   UNL     1      -2.965  13.464  22.993  0.00  0.00    +0.000 C 
ATOM     26  C   UNL     1      -3.953  14.330  22.197  0.00  0.00    +0.000 C 
ATOM     27  O   UNL     1      -3.613  15.724  22.279  0.00  0.00    +0.000 OA
ATOM     28  C   UNL     1      -2.285  15.959  21.781  0.00  0.00    +0.000 C 
ATOM     29  C   UNL     1      -1.254  15.175  22.598  0.00  0.00    +0.000 C 
ENDBRANCH  21  22
ENDBRANCH  18  21
ENDBRANCH   7  15
BRANCH  10  30
ATOM     30  C   UNL     1       2.399   3.645  21.154  0.00  0.00    +0.000 C 
ATOM     31  C   UNL     1       1.122   2.907  21.458  0.00  0.00    +0.000 C 
ATOM     32  C   UNL     1       2.446   2.272  21.763  0.00  0.00    +0.000 C 
ENDBRANCH  10  30
TORSDOF 4
ENDMDL
MODEL 9
REMARK VINA RESULT:      -8.6      2.059      2.629
REMARK  Name = 
REMARK  5 active torsions:
REMARK  status: ('A' for Active; 'I' for Inactive)
REMARK    1  A    between atoms: C_1  and  N_2
REMARK    2  A    between atoms: C_7  and  C_8
REMARK    3  A    between atoms: C_11  and  C_12
REMARK    4  A    between atoms: C_12  and  C_13
REMARK    5  A    between atoms: N_25  and  C_26
REMARK                            x       y       z     vdW  Elec       q    Type
REMARK                         _______ _______ _______ _____ _____    ______ ____
ROOT
ATOM      1  C   UNL     1      -3.028  14.658  23.793  0.00  0.00    +0.000 C 
ATOM      2  N   UNL     1      -2.338  13.572  23.128  0.00  0.00    +0.000 N 
ATOM      3  C   UNL     1      -2.450  12.288  23.594  0.00  0.00    +0.000 A 
ATOM      4  N   UNL     1      -1.853  11.266  23.081  0.00  0.00    +0.000 NA
ATOM      5  C   UNL     1      -1.033  11.486  21.960  0.00  0.00    +0.000 A 
ATOM      6  C   UNL     1      -0.372  10.393  21.414  0.00  0.00    +0.000 A 
ATOM      7  C   UNL     1       0.465  10.576  20.320  0.00  0.00    +0.000 A 
ATOM      8  N   UNL     1       0.654  11.808  19.774  0.00  0.00    +0.000 NA
ATOM      9  C   UNL     1       0.008  12.884  20.296  0.00  0.00    +0.000 A 
ATOM     10  N   UNL     1       0.142  14.141  19.652  0.00  0.00    +0.000 N 
ATOM     11  C   UNL     1      -0.843  12.741  21.396  0.00  0.00    +0.000 A 
ATOM     12  C   UNL     1      -1.517  13.880  22.050  0.00  0.00    +0.000 A 
ATOM     13  O   UNL     1      -1.313  15.033  21.671  0.00  0.00    +0.000 OA
ATOM     14  H   UNL     1      -0.139  14.893  20.291  0.00  0.00    +0.000 HD
ENDROOT
BRANCH   7  15
ATOM     15  C   UNL     1       1.243   9.461  19.730  0.00  0.00    +0.000 A 
ATOM     16  C   UNL     1       1.703   9.485  18.400  0.00  0.00    +0.000 A 
ATOM     17  C   UNL     1       2.343   8.380  17.822  0.00  0.00    +0.000 A 
ATOM     18  C   UNL     1       2.566   7.217  18.566  0.00  0.00    +0.000 A 
ATOM     19  C   UNL     1       2.160   7.196  19.905  0.00  0.00    +0.000 A 
ATOM     20  C   UNL     1       1.514   8.301  20.475  0.00  0.00    +0.000 A 
BRANCH  18  21
ATOM     21  C   UNL     1       3.169   5.983  17.927  0.00  0.00    +0.000 C 
BRANCH  21  22
ATOM     22  C   UNL     1       3.841   4.997  18.877  0.00  0.00    +0.000 C 
ATOM     23  O   UNL     1       4.993   5.154  19.282  0.00  0.00    +0.000 OA
ATOM     24  N   UNL     1       3.083   3.901  19.273  0.00  0.00    +0.000 N 
ATOM     25  C   UNL     1       1.723   3.565  18.839  0.00  0.00    +0.000 C 
ATOM     26  C   UNL     1       0.824   3.289  20.054  0.00  0.00    +0.000 C 
ATOM     27  O   UNL     1       1.401   2.299  20.920  0.00  0.00    +0.000 OA
ATOM     28  C   UNL     1       2.695   2.718  21.387  0.00  0.00    +0.000 C 
ATOM     29  C   UNL     1       3.653   2.929  20.211  0.00  0.00    +0.000 C 
ENDBRANCH  21  22
ENDBRANCH  18  21
ENDBRANCH   7  15
BRANCH  10  30
ATOM     30  C   UNL     1       1.320  14.410  18.830  0.00  0.00    +0.000 C 
ATOM     31  C   UNL     1       1.783  15.830  18.627  0.00  0.00    +0.000 C 
ATOM     32  C   UNL     1       2.607  14.882  19.447  0.00  0.00    +0.000 C 
ENDBRANCH  10  30
TORSDOF 4
ENDMDL
