MODEL 1
REMARK VINA RESULT:      -6.7      0.000      0.000
REMARK  Name = 
REMARK  7 active torsions:
REMARK  status: ('A' for Active; 'I' for Inactive)
REMARK    1  A    between atoms: C_1  and  C_2
REMARK    2  A    between atoms: C_2  and  C_3
REMARK    3  A    between atoms: C_15  and  C_16
REMARK    4  A    between atoms: C_15  and  C_17
REMARK    5  A    between atoms: C_19  and  C_20
REMARK    6  A    between atoms: C_26  and  C_27
REMARK    7  A    between atoms: C_26  and  C_28
REMARK                            x       y       z     vdW  Elec       q    Type
REMARK                         _______ _______ _______ _____ _____    ______ ____
ROOT
ATOM      1  C   UNL     1       4.777  14.266  21.878  0.00  0.00    +0.000 C 
ATOM      2  C   UNL     1       5.405  15.587  22.370  0.00  0.00    +0.000 C 
ATOM      3  C   UNL     1       4.262  16.499  22.843  0.00  0.00    +0.000 C 
ATOM      4  C   UNL     1       6.334  15.160  23.502  0.00  0.00    +0.000 C 
ATOM      5  O   UNL     1       6.106  15.324  24.691  0.00  0.00    +0.000 OA
ATOM      6  C   UNL     1       7.630  14.593  23.036  0.00  0.00    +0.000 C 
ATOM      7  C   UNL     1       8.400  15.452  22.336  0.00  0.00    +0.000 C 
ATOM      8  O   UNL     1       9.551  15.002  21.645  0.00  0.00    +0.000 OA
ATOM      9  C   UNL     1       9.434  13.622  21.091  0.00  0.00    +0.000 C 
ATOM     10  C   UNL     1       8.445  13.779  19.903  0.00  0.00    +0.000 C 
ATOM     11  C   UNL     1       9.159  14.282  18.625  0.00  0.00    +0.000 C 
ATOM     12  C   UNL     1      10.560  13.677  18.475  0.00  0.00    +0.000 C 
ATOM     13  C   UNL     1      11.498  14.123  19.643  0.00  0.00    +0.000 C 
ATOM     14  C   UNL     1      10.771  13.036  20.473  0.00  0.00    +0.000 C 
ATOM     15  C   UNL     1      10.730  12.202  19.012  0.00  0.00    +0.000 C 
ATOM     16  C   UNL     1      12.023  11.561  18.440  0.00  0.00    +0.000 C 
ATOM     17  C   UNL     1       9.620  11.210  18.629  0.00  0.00    +0.000 C 
ATOM     18  C   UNL     1       9.075  12.698  22.285  0.00  0.00    +0.000 C 
ATOM     19  C   UNL     1       7.761  13.104  22.951  0.00  0.00    +0.000 C 
ATOM     20  C   UNL     1       7.754  16.808  21.906  0.00  0.00    +0.000 C 
ATOM     21  C   UNL     1       8.656  17.539  20.900  0.00  0.00    +0.000 C 
ATOM     22  C   UNL     1       7.469  17.859  23.014  0.00  0.00    +0.000 C 
ATOM     23  C   UNL     1       6.333  16.356  21.349  0.00  0.00    +0.000 C 
ATOM     24  O   UNL     1       5.968  16.561  20.191  0.00  0.00    +0.000 OA
ENDROOT
BRANCH  19  25
ATOM     25  C   UNL     1       7.377  12.354  24.207  0.00  0.00    +0.000 A 
ATOM     26  C   UNL     1       8.047  12.579  25.422  0.00  0.00    +0.000 A 
ATOM     27  C   UNL     1       7.496  12.107  26.612  0.00  0.00    +0.000 A 
ATOM     28  C   UNL     1       6.299  11.392  26.597  0.00  0.00    +0.000 A 
ATOM     29  C   UNL     1       5.664  11.118  25.393  0.00  0.00    +0.000 A 
ATOM     30  C   UNL     1       6.201  11.599  24.200  0.00  0.00    +0.000 A 
ENDBRANCH  19  25
TORSDOF 1
ENDMDL
MODEL 2
REMARK VINA RESULT:      -6.6      0.796      1.192
REMARK  Name = 
REMARK  7 active torsions:
REMARK  status: ('A' for Active; 'I' for Inactive)
REMARK    1  A    between atoms: C_1  and  C_2
REMARK    2  A    between atoms: C_2  and  C_3
REMARK    3  A    between atoms: C_15  and  C_16
REMARK    4  A    between atoms: C_15  and  C_17
REMARK    5  A    between atoms: C_19  and  C_20
REMARK    6  A    between atoms: C_26  and  C_27
REMARK    7  A    between atoms: C_26  and  C_28
REMARK                            x       y       z     vdW  Elec       q    Type
REMARK                         _______ _______ _______ _____ _____    ______ ____
ROOT
ATOM      1  C   UNL     1       4.562  14.510  21.104  0.00  0.00    +0.000 C 
ATOM      2  C   UNL     1       5.157  15.893  21.444  0.00  0.00    +0.000 C 
ATOM      3  C   UNL     1       3.987  16.840  21.757  0.00  0.00    +0.000 C 
ATOM      4  C   UNL     1       6.050  15.630  22.651  0.00  0.00    +0.000 C 
ATOM      5  O   UNL     1       5.779  15.942  23.801  0.00  0.00    +0.000 OA
ATOM      6  C   UNL     1       7.369  15.029  22.306  0.00  0.00    +0.000 C 
ATOM      7  C   UNL     1       8.152  15.804  21.527  0.00  0.00    +0.000 C 
ATOM      8  O   UNL     1       9.332  15.288  20.939  0.00  0.00    +0.000 OA
ATOM      9  C   UNL     1       9.252  13.847  20.563  0.00  0.00    +0.000 C 
ATOM     10  C   UNL     1       8.303  13.834  19.333  0.00  0.00    +0.000 C 
ATOM     11  C   UNL     1       9.056  14.180  18.025  0.00  0.00    +0.000 C 
ATOM     12  C   UNL     1      10.469  13.584  18.002  0.00  0.00    +0.000 C 
ATOM     13  C   UNL     1      11.359  14.192  19.133  0.00  0.00    +0.000 C 
ATOM     14  C   UNL     1      10.617  13.208  20.071  0.00  0.00    +0.000 C 
ATOM     15  C   UNL     1      10.637  12.194  18.729  0.00  0.00    +0.000 C 
ATOM     16  C   UNL     1      11.957  11.506  18.288  0.00  0.00    +0.000 C 
ATOM     17  C   UNL     1       9.553  11.142  18.440  0.00  0.00    +0.000 C 
ATOM     18  C   UNL     1       8.862  13.078  21.854  0.00  0.00    +0.000 C 
ATOM     19  C   UNL     1       7.521  13.544  22.417  0.00  0.00    +0.000 C 
ATOM     20  C   UNL     1       7.506  17.083  20.905  0.00  0.00    +0.000 C 
ATOM     21  C   UNL     1       8.434  17.694  19.844  0.00  0.00    +0.000 C 
ATOM     22  C   UNL     1       7.170  18.262  21.858  0.00  0.00    +0.000 C 
ATOM     23  C   UNL     1       6.111  16.541  20.363  0.00  0.00    +0.000 C 
ATOM     24  O   UNL     1       5.785  16.589  19.177  0.00  0.00    +0.000 OA
ENDROOT
BRANCH  19  25
ATOM     25  C   UNL     1       7.101  12.955  23.746  0.00  0.00    +0.000 A 
ATOM     26  C   UNL     1       6.120  11.950  23.818  0.00  0.00    +0.000 A 
ATOM     27  C   UNL     1       5.962  11.224  24.997  0.00  0.00    +0.000 A 
ATOM     28  C   UNL     1       6.754  11.507  26.109  0.00  0.00    +0.000 A 
ATOM     29  C   UNL     1       7.684  12.537  26.060  0.00  0.00    +0.000 A 
ATOM     30  C   UNL     1       7.858  13.258  24.879  0.00  0.00    +0.000 A 
ENDBRANCH  19  25
TORSDOF 1
ENDMDL
MODEL 3
REMARK VINA RESULT:      -6.6      7.938     12.042
REMARK  Name = 
REMARK  7 active torsions:
REMARK  status: ('A' for Active; 'I' for Inactive)
REMARK    1  A    between atoms: C_1  and  C_2
REMARK    2  A    between atoms: C_2  and  C_3
REMARK    3  A    between atoms: C_15  and  C_16
REMARK    4  A    between atoms: C_15  and  C_17
REMARK    5  A    between atoms: C_19  and  C_20
REMARK    6  A    between atoms: C_26  and  C_27
REMARK    7  A    between atoms: C_26  and  C_28
REMARK                            x       y       z     vdW  Elec       q    Type
REMARK                         _______ _______ _______ _____ _____    ______ ____
ROOT
ATOM      1  C   UNL     1       0.491  11.787  21.197  0.00  0.00    +0.000 C 
ATOM      2  C   UNL     1       0.793  13.156  20.553  0.00  0.00    +0.000 C 
ATOM      3  C   UNL     1       2.273  13.158  20.136  0.00  0.00    +0.000 C 
ATOM      4  C   UNL     1      -0.161  13.231  19.366  0.00  0.00    +0.000 C 
ATOM      5  O   UNL     1       0.166  13.091  18.198  0.00  0.00    +0.000 OA
ATOM      6  C   UNL     1      -1.557  13.595  19.738  0.00  0.00    +0.000 C 
ATOM      7  C   UNL     1      -1.690  14.816  20.296  0.00  0.00    +0.000 C 
ATOM      8  O   UNL     1      -2.908  15.214  20.897  0.00  0.00    +0.000 OA
ATOM      9  C   UNL     1      -3.659  14.105  21.555  0.00  0.00    +0.000 C 
ATOM     10  C   UNL     1      -2.820  13.785  22.822  0.00  0.00    +0.000 C 
ATOM     11  C   UNL     1      -3.143  14.756  23.984  0.00  0.00    +0.000 C 
ATOM     12  C   UNL     1      -4.633  15.115  24.033  0.00  0.00    +0.000 C 
ATOM     13  C   UNL     1      -5.073  15.889  22.749  0.00  0.00    +0.000 C 
ATOM     14  C   UNL     1      -5.106  14.496  22.074  0.00  0.00    +0.000 C 
ATOM     15  C   UNL     1      -5.627  13.973  23.586  0.00  0.00    +0.000 C 
ATOM     16  C   UNL     1      -7.069  14.289  24.068  0.00  0.00    +0.000 C 
ATOM     17  C   UNL     1      -5.344  12.570  24.146  0.00  0.00    +0.000 C 
ATOM     18  C   UNL     1      -3.875  13.017  20.469  0.00  0.00    +0.000 C 
ATOM     19  C   UNL     1      -2.553  12.491  19.913  0.00  0.00    +0.000 C 
ATOM     20  C   UNL     1      -0.380  15.570  20.693  0.00  0.00    +0.000 C 
ATOM     21  C   UNL     1      -0.708  16.802  21.551  0.00  0.00    +0.000 C 
ATOM     22  C   UNL     1       0.518  16.115  19.549  0.00  0.00    +0.000 C 
ATOM     23  C   UNL     1       0.468  14.436  21.421  0.00  0.00    +0.000 C 
ATOM     24  O   UNL     1       0.836  14.518  22.592  0.00  0.00    +0.000 OA
ENDROOT
BRANCH  19  25
ATOM     25  C   UNL     1      -2.643  11.519  18.756  0.00  0.00    +0.000 A 
ATOM     26  C   UNL     1      -3.531  11.739  17.689  0.00  0.00    +0.000 A 
ATOM     27  C   UNL     1      -3.391  11.005  16.512  0.00  0.00    +0.000 A 
ATOM     28  C   UNL     1      -2.392  10.039  16.401  0.00  0.00    +0.000 A 
ATOM     29  C   UNL     1      -1.549   9.779  17.474  0.00  0.00    +0.000 A 
ATOM     30  C   UNL     1      -1.674  10.519  18.649  0.00  0.00    +0.000 A 
ENDBRANCH  19  25
TORSDOF 1
ENDMDL
MODEL 4
REMARK VINA RESULT:      -6.5      1.642      6.036
REMARK  Name = 
REMARK  7 active torsions:
REMARK  status: ('A' for Active; 'I' for Inactive)
REMARK    1  A    between atoms: C_1  and  C_2
REMARK    2  A    between atoms: C_2  and  C_3
REMARK    3  A    between atoms: C_15  and  C_16
REMARK    4  A    between atoms: C_15  and  C_17
REMARK    5  A    between atoms: C_19  and  C_20
REMARK    6  A    between atoms: C_26  and  C_27
REMARK    7  A    between atoms: C_26  and  C_28
REMARK                            x       y       z     vdW  Elec       q    Type
REMARK                         _______ _______ _______ _____ _____    ______ ____
ROOT
ATOM      1  C   UNL     1      11.196  16.289  20.772  0.00  0.00    +0.000 C 
ATOM      2  C   UNL     1       9.984  16.750  19.934  0.00  0.00    +0.000 C 
ATOM      3  C   UNL     1      10.483  17.804  18.933  0.00  0.00    +0.000 C 
ATOM      4  C   UNL     1       9.489  15.475  19.260  0.00  0.00    +0.000 C 
ATOM      5  O   UNL     1       9.654  15.200  18.081  0.00  0.00    +0.000 OA
ATOM      6  C   UNL     1       8.676  14.599  20.149  0.00  0.00    +0.000 C 
ATOM      7  C   UNL     1       7.531  15.158  20.594  0.00  0.00    +0.000 C 
ATOM      8  O   UNL     1       6.766  14.540  21.612  0.00  0.00    +0.000 OA
ATOM      9  C   UNL     1       7.575  13.804  22.626  0.00  0.00    +0.000 C 
ATOM     10  C   UNL     1       8.263  14.931  23.445  0.00  0.00    +0.000 C 
ATOM     11  C   UNL     1       7.325  15.499  24.538  0.00  0.00    +0.000 C 
ATOM     12  C   UNL     1       6.461  14.406  25.177  0.00  0.00    +0.000 C 
ATOM     13  C   UNL     1       5.492  13.765  24.132  0.00  0.00    +0.000 C 
ATOM     14  C   UNL     1       6.730  12.959  23.668  0.00  0.00    +0.000 C 
ATOM     15  C   UNL     1       7.136  12.985  25.301  0.00  0.00    +0.000 C 
ATOM     16  C   UNL     1       6.359  12.101  26.314  0.00  0.00    +0.000 C 
ATOM     17  C   UNL     1       8.583  12.964  25.819  0.00  0.00    +0.000 C 
ATOM     18  C   UNL     1       8.435  12.777  21.841  0.00  0.00    +0.000 C 
ATOM     19  C   UNL     1       9.359  13.455  20.831  0.00  0.00    +0.000 C 
ATOM     20  C   UNL     1       7.326  16.684  20.328  0.00  0.00    +0.000 C 
ATOM     21  C   UNL     1       6.122  17.212  21.123  0.00  0.00    +0.000 C 
ATOM     22  C   UNL     1       7.061  17.136  18.866  0.00  0.00    +0.000 C 
ATOM     23  C   UNL     1       8.737  17.300  20.733  0.00  0.00    +0.000 C 
ATOM     24  O   UNL     1       8.875  18.136  21.627  0.00  0.00    +0.000 OA
ENDROOT
BRANCH  19  25
ATOM     25  C   UNL     1      10.150  12.544  19.918  0.00  0.00    +0.000 A 
ATOM     26  C   UNL     1       9.553  11.943  18.796  0.00  0.00    +0.000 A 
ATOM     27  C   UNL     1      10.356  11.357  17.818  0.00  0.00    +0.000 A 
ATOM     28  C   UNL     1      11.742  11.344  17.962  0.00  0.00    +0.000 A 
ATOM     29  C   UNL     1      12.332  11.886  19.097  0.00  0.00    +0.000 A 
ATOM     30  C   UNL     1      11.537  12.487  20.072  0.00  0.00    +0.000 A 
ENDBRANCH  19  25
TORSDOF 1
ENDMDL
MODEL 5
REMARK VINA RESULT:      -6.5      7.701     10.240
REMARK  Name = 
REMARK  7 active torsions:
REMARK  status: ('A' for Active; 'I' for Inactive)
REMARK    1  A    between atoms: C_1  and  C_2
REMARK    2  A    between atoms: C_2  and  C_3
REMARK    3  A    between atoms: C_15  and  C_16
REMARK    4  A    between atoms: C_15  and  C_17
REMARK    5  A    between atoms: C_19  and  C_20
REMARK    6  A    between atoms: C_26  and  C_27
REMARK    7  A    between atoms: C_26  and  C_28
REMARK                            x       y       z     vdW  Elec       q    Type
REMARK                         _______ _______ _______ _____ _____    ______ ____
ROOT
ATOM      1  C   UNL     1       1.033  16.093  22.451  0.00  0.00    +0.000 C 
ATOM      2  C   UNL     1      -0.488  16.164  22.699  0.00  0.00    +0.000 C 
ATOM      3  C   UNL     1      -0.732  17.196  23.812  0.00  0.00    +0.000 C 
ATOM      4  C   UNL     1      -1.067  16.591  21.354  0.00  0.00    +0.000 C 
ATOM      5  O   UNL     1      -1.490  17.708  21.099  0.00  0.00    +0.000 OA
ATOM      6  C   UNL     1      -1.173  15.482  20.365  0.00  0.00    +0.000 C 
ATOM      7  C   UNL     1      -1.997  14.478  20.732  0.00  0.00    +0.000 C 
ATOM      8  O   UNL     1      -2.033  13.263  20.006  0.00  0.00    +0.000 OA
ATOM      9  C   UNL     1      -0.722  12.857  19.422  0.00  0.00    +0.000 C 
ATOM     10  C   UNL     1       0.115  12.415  20.654  0.00  0.00    +0.000 C 
ATOM     11  C   UNL     1      -0.203  10.959  21.071  0.00  0.00    +0.000 C 
ATOM     12  C   UNL     1      -0.448  10.056  19.857  0.00  0.00    +0.000 C 
ATOM     13  C   UNL     1      -1.710  10.513  19.056  0.00  0.00    +0.000 C 
ATOM     14  C   UNL     1      -0.782  11.599  18.460  0.00  0.00    +0.000 C 
ATOM     15  C   UNL     1       0.394  10.399  18.567  0.00  0.00    +0.000 C 
ATOM     16  C   UNL     1       0.383   9.203  17.577  0.00  0.00    +0.000 C 
ATOM     17  C   UNL     1       1.887  10.688  18.790  0.00  0.00    +0.000 C 
ATOM     18  C   UNL     1      -0.246  14.045  18.544  0.00  0.00    +0.000 C 
ATOM     19  C   UNL     1      -0.079  15.328  19.355  0.00  0.00    +0.000 C 
ATOM     20  C   UNL     1      -2.528  14.486  22.201  0.00  0.00    +0.000 C 
ATOM     21  C   UNL     1      -3.218  13.154  22.531  0.00  0.00    +0.000 C 
ATOM     22  C   UNL     1      -3.567  15.573  22.590  0.00  0.00    +0.000 C 
ATOM     23  C   UNL     1      -1.216  14.805  23.045  0.00  0.00    +0.000 C 
ATOM     24  O   UNL     1      -0.764  14.044  23.900  0.00  0.00    +0.000 OA
ENDROOT
BRANCH  19  25
ATOM     25  C   UNL     1       0.257  16.583  18.578  0.00  0.00    +0.000 A 
ATOM     26  C   UNL     1       1.590  16.928  18.296  0.00  0.00    +0.000 A 
ATOM     27  C   UNL     1       1.863  17.909  17.344  0.00  0.00    +0.000 A 
ATOM     28  C   UNL     1       0.819  18.564  16.691  0.00  0.00    +0.000 A 
ATOM     29  C   UNL     1      -0.500  18.266  17.009  0.00  0.00    +0.000 A 
ATOM     30  C   UNL     1      -0.780  17.276  17.950  0.00  0.00    +0.000 A 
ENDBRANCH  19  25
TORSDOF 1
ENDMDL
MODEL 6
REMARK VINA RESULT:      -6.4      1.589      5.870
REMARK  Name = 
REMARK  7 active torsions:
REMARK  status: ('A' for Active; 'I' for Inactive)
REMARK    1  A    between atoms: C_1  and  C_2
REMARK    2  A    between atoms: C_2  and  C_3
REMARK    3  A    between atoms: C_15  and  C_16
REMARK    4  A    between atoms: C_15  and  C_17
REMARK    5  A    between atoms: C_19  and  C_20
REMARK    6  A    between atoms: C_26  and  C_27
REMARK    7  A    between atoms: C_26  and  C_28
REMARK                            x       y       z     vdW  Elec       q    Type
REMARK                         _______ _______ _______ _____ _____    ______ ____
ROOT
ATOM      1  C   UNL     1      10.151  17.111  20.371  0.00  0.00    +0.000 C 
ATOM      2  C   UNL     1       8.797  17.204  19.637  0.00  0.00    +0.000 C 
ATOM      3  C   UNL     1       8.912  18.320  18.586  0.00  0.00    +0.000 C 
ATOM      4  C   UNL     1       8.609  15.822  19.021  0.00  0.00    +0.000 C 
ATOM      5  O   UNL     1       8.746  15.562  17.835  0.00  0.00    +0.000 OA
ATOM      6  C   UNL     1       8.136  14.791  19.987  0.00  0.00    +0.000 C 
ATOM      7  C   UNL     1       6.923  15.039  20.523  0.00  0.00    +0.000 C 
ATOM      8  O   UNL     1       6.437  14.273  21.610  0.00  0.00    +0.000 OA
ATOM      9  C   UNL     1       7.493  13.813  22.558  0.00  0.00    +0.000 C 
ATOM     10  C   UNL     1       7.917  15.109  23.302  0.00  0.00    +0.000 C 
ATOM     11  C   UNL     1       6.953  15.443  24.466  0.00  0.00    +0.000 C 
ATOM     12  C   UNL     1       6.468  14.180  25.189  0.00  0.00    +0.000 C 
ATOM     13  C   UNL     1       5.626  13.270  24.239  0.00  0.00    +0.000 C 
ATOM     14  C   UNL     1       6.993  12.808  23.678  0.00  0.00    +0.000 C 
ATOM     15  C   UNL     1       7.508  12.996  25.269  0.00  0.00    +0.000 C 
ATOM     16  C   UNL     1       7.082  11.970  26.354  0.00  0.00    +0.000 C 
ATOM     17  C   UNL     1       8.945  13.379  25.659  0.00  0.00    +0.000 C 
ATOM     18  C   UNL     1       8.530  13.027  21.711  0.00  0.00    +0.000 C 
ATOM     19  C   UNL     1       9.153  13.893  20.618  0.00  0.00    +0.000 C 
ATOM     20  C   UNL     1       6.295  16.445  20.261  0.00  0.00    +0.000 C 
ATOM     21  C   UNL     1       5.062  16.659  21.152  0.00  0.00    +0.000 C 
ATOM     22  C   UNL     1       5.800  16.762  18.823  0.00  0.00    +0.000 C 
ATOM     23  C   UNL     1       7.517  17.428  20.535  0.00  0.00    +0.000 C 
ATOM     24  O   UNL     1       7.497  18.300  21.405  0.00  0.00    +0.000 OA
ENDROOT
BRANCH  19  25
ATOM     25  C   UNL     1      10.084  13.197  19.649  0.00  0.00    +0.000 A 
ATOM     26  C   UNL     1      11.479  13.307  19.775  0.00  0.00    +0.000 A 
ATOM     27  C   UNL     1      12.307  12.436  19.068  0.00  0.00    +0.000 A 
ATOM     28  C   UNL     1      11.756  11.477  18.219  0.00  0.00    +0.000 A 
ATOM     29  C   UNL     1      10.380  11.402  18.048  0.00  0.00    +0.000 A 
ATOM     30  C   UNL     1       9.545  12.260  18.764  0.00  0.00    +0.000 A 
ENDBRANCH  19  25
TORSDOF 1
ENDMDL
MODEL 7
REMARK VINA RESULT:      -6.3      6.757      9.621
REMARK  Name = 
REMARK  7 active torsions:
REMARK  status: ('A' for Active; 'I' for Inactive)
REMARK    1  A    between atoms: C_1  and  C_2
REMARK    2  A    between atoms: C_2  and  C_3
REMARK    3  A    between atoms: C_15  and  C_16
REMARK    4  A    between atoms: C_15  and  C_17
REMARK    5  A    between atoms: C_19  and  C_20
REMARK    6  A    between atoms: C_26  and  C_27
REMARK    7  A    between atoms: C_26  and  C_28
REMARK                            x       y       z     vdW  Elec       q    Type
REMARK                         _______ _______ _______ _____ _____    ______ ____
ROOT
ATOM      1  C   UNL     1      -3.924  13.470  20.970  0.00  0.00    +0.000 C 
ATOM      2  C   UNL     1      -3.992  13.760  22.484  0.00  0.00    +0.000 C 
ATOM      3  C   UNL     1      -5.420  13.443  22.956  0.00  0.00    +0.000 C 
ATOM      4  C   UNL     1      -2.944  12.833  23.090  0.00  0.00    +0.000 C 
ATOM      5  O   UNL     1      -3.192  11.811  23.711  0.00  0.00    +0.000 OA
ATOM      6  C   UNL     1      -1.546  13.330  22.950  0.00  0.00    +0.000 C 
ATOM      7  C   UNL     1      -1.300  14.499  23.577  0.00  0.00    +0.000 C 
ATOM      8  O   UNL     1      -0.091  15.203  23.357  0.00  0.00    +0.000 OA
ATOM      9  C   UNL     1       0.453  15.071  21.974  0.00  0.00    +0.000 C 
ATOM     10  C   UNL     1      -0.520  15.917  21.107  0.00  0.00    +0.000 C 
ATOM     11  C   UNL     1      -0.166  17.424  21.153  0.00  0.00    +0.000 C 
ATOM     12  C   UNL     1       1.349  17.656  21.182  0.00  0.00    +0.000 C 
ATOM     13  C   UNL     1       1.988  17.069  22.482  0.00  0.00    +0.000 C 
ATOM     14  C   UNL     1       1.891  15.702  21.761  0.00  0.00    +0.000 C 
ATOM     15  C   UNL     1       2.217  16.609  20.381  0.00  0.00    +0.000 C 
ATOM     16  C   UNL     1       3.645  17.165  20.131  0.00  0.00    +0.000 C 
ATOM     17  C   UNL     1       1.709  16.238  18.979  0.00  0.00    +0.000 C 
ATOM     18  C   UNL     1       0.610  13.550  21.707  0.00  0.00    +0.000 C 
ATOM     19  C   UNL     1      -0.721  12.808  21.816  0.00  0.00    +0.000 C 
ATOM     20  C   UNL     1      -2.527  15.281  24.147  0.00  0.00    +0.000 C 
ATOM     21  C   UNL     1      -2.110  16.695  24.578  0.00  0.00    +0.000 C 
ATOM     22  C   UNL     1      -3.251  14.689  25.387  0.00  0.00    +0.000 C 
ATOM     23  C   UNL     1      -3.571  15.211  22.948  0.00  0.00    +0.000 C 
ATOM     24  O   UNL     1      -4.018  16.211  22.386  0.00  0.00    +0.000 OA
ENDROOT
BRANCH  19  25
ATOM     25  C   UNL     1      -0.668  11.300  21.702  0.00  0.00    +0.000 A 
ATOM     26  C   UNL     1      -0.606  10.667  20.449  0.00  0.00    +0.000 A 
ATOM     27  C   UNL     1      -0.265   9.318  20.372  0.00  0.00    +0.000 A 
ATOM     28  C   UNL     1      -0.010   8.591  21.534  0.00  0.00    +0.000 A 
ATOM     29  C   UNL     1      -0.126   9.198  22.778  0.00  0.00    +0.000 A 
ATOM     30  C   UNL     1      -0.453  10.551  22.861  0.00  0.00    +0.000 A 
ENDBRANCH  19  25
TORSDOF 1
ENDMDL
MODEL 8
REMARK VINA RESULT:      -6.3      8.871     12.366
REMARK  Name = 
REMARK  7 active torsions:
REMARK  status: ('A' for Active; 'I' for Inactive)
REMARK    1  A    between atoms: C_1  and  C_2
REMARK    2  A    between atoms: C_2  and  C_3
REMARK    3  A    between atoms: C_15  and  C_16
REMARK    4  A    between atoms: C_15  and  C_17
REMARK    5  A    between atoms: C_19  and  C_20
REMARK    6  A    between atoms: C_26  and  C_27
REMARK    7  A    between atoms: C_26  and  C_28
REMARK                            x       y       z     vdW  Elec       q    Type
REMARK                         _______ _______ _______ _____ _____    ______ ____
ROOT
ATOM      1  C   UNL     1      -3.183  13.608  25.336  0.00  0.00    +0.000 C 
ATOM      2  C   UNL     1      -2.601  14.954  24.858  0.00  0.00    +0.000 C 
ATOM      3  C   UNL     1      -1.880  15.600  26.052  0.00  0.00    +0.000 C 
ATOM      4  C   UNL     1      -1.654  14.572  23.726  0.00  0.00    +0.000 C 
ATOM      5  O   UNL     1      -0.435  14.564  23.808  0.00  0.00    +0.000 OA
ATOM      6  C   UNL     1      -2.341  14.290  22.434  0.00  0.00    +0.000 C 
ATOM      7  C   UNL     1      -3.011  15.340  21.914  0.00  0.00    +0.000 C 
ATOM      8  O   UNL     1      -3.887  15.172  20.814  0.00  0.00    +0.000 OA
ATOM      9  C   UNL     1      -4.598  13.862  20.791  0.00  0.00    +0.000 C 
ATOM     10  C   UNL     1      -5.629  13.975  21.948  0.00  0.00    +0.000 C 
ATOM     11  C   UNL     1      -6.906  14.729  21.506  0.00  0.00    +0.000 C 
ATOM     12  C   UNL     1      -7.300  14.394  20.062  0.00  0.00    +0.000 C 
ATOM     13  C   UNL     1      -6.204  14.864  19.052  0.00  0.00    +0.000 C 
ATOM     14  C   UNL     1      -5.443  13.585  19.478  0.00  0.00    +0.000 C 
ATOM     15  C   UNL     1      -6.985  12.921  19.592  0.00  0.00    +0.000 C 
ATOM     16  C   UNL     1      -7.785  12.577  18.307  0.00  0.00    +0.000 C 
ATOM     17  C   UNL     1      -7.358  11.800  20.576  0.00  0.00    +0.000 C 
ATOM     18  C   UNL     1      -3.500  12.765  20.831  0.00  0.00    +0.000 C 
ATOM     19  C   UNL     1      -2.636  12.865  22.086  0.00  0.00    +0.000 C 
ATOM     20  C   UNL     1      -3.179  16.604  22.817  0.00  0.00    +0.000 C 
ATOM     21  C   UNL     1      -4.182  17.584  22.188  0.00  0.00    +0.000 C 
ATOM     22  C   UNL     1      -1.917  17.463  23.104  0.00  0.00    +0.000 C 
ATOM     23  C   UNL     1      -3.617  15.979  24.213  0.00  0.00    +0.000 C 
ATOM     24  O   UNL     1      -4.686  16.242  24.764  0.00  0.00    +0.000 OA
ENDROOT
BRANCH  19  25
ATOM     25  C   UNL     1      -1.451  11.927  22.170  0.00  0.00    +0.000 A 
ATOM     26  C   UNL     1      -1.380  10.933  23.161  0.00  0.00    +0.000 A 
ATOM     27  C   UNL     1      -0.444   9.907  23.045  0.00  0.00    +0.000 A 
ATOM     28  C   UNL     1       0.436   9.879  21.964  0.00  0.00    +0.000 A 
ATOM     29  C   UNL     1       0.408  10.890  21.013  0.00  0.00    +0.000 A 
ATOM     30  C   UNL     1      -0.536  11.912  21.115  0.00  0.00    +0.000 A 
ENDBRANCH  19  25
TORSDOF 1
ENDMDL
MODEL 9
REMARK VINA RESULT:      -6.3      0.988      1.091
REMARK  Name = 
REMARK  7 active torsions:
REMARK  status: ('A' for Active; 'I' for Inactive)
REMARK    1  A    between atoms: C_1  and  C_2
REMARK    2  A    between atoms: C_2  and  C_3
REMARK    3  A    between atoms: C_15  and  C_16
REMARK    4  A    between atoms: C_15  and  C_17
REMARK    5  A    between atoms: C_19  and  C_20
REMARK    6  A    between atoms: C_26  and  C_27
REMARK    7  A    between atoms: C_26  and  C_28
REMARK                            x       y       z     vdW  Elec       q    Type
REMARK                         _______ _______ _______ _____ _____    ______ ____
ROOT
ATOM      1  C   UNL     1       5.625  15.455  22.267  0.00  0.00    +0.000 C 
ATOM      2  C   UNL     1       6.631  16.411  22.942  0.00  0.00    +0.000 C 
ATOM      3  C   UNL     1       5.825  17.503  23.664  0.00  0.00    +0.000 C 
ATOM      4  C   UNL     1       7.413  15.517  23.898  0.00  0.00    +0.000 C 
ATOM      5  O   UNL     1       7.272  15.501  25.111  0.00  0.00    +0.000 OA
ATOM      6  C   UNL     1       8.470  14.704  23.234  0.00  0.00    +0.000 C 
ATOM      7  C   UNL     1       9.446  15.424  22.643  0.00  0.00    +0.000 C 
ATOM      8  O   UNL     1      10.394  14.807  21.792  0.00  0.00    +0.000 OA
ATOM      9  C   UNL     1       9.856  13.659  21.005  0.00  0.00    +0.000 C 
ATOM     10  C   UNL     1       8.934  14.328  19.949  0.00  0.00    +0.000 C 
ATOM     11  C   UNL     1       9.738  14.846  18.732  0.00  0.00    +0.000 C 
ATOM     12  C   UNL     1      10.890  13.903  18.363  0.00  0.00    +0.000 C 
ATOM     13  C   UNL     1      11.943  13.817  19.513  0.00  0.00    +0.000 C 
ATOM     14  C   UNL     1      10.943  12.845  20.185  0.00  0.00    +0.000 C 
ATOM     15  C   UNL     1      10.621  12.367  18.604  0.00  0.00    +0.000 C 
ATOM     16  C   UNL     1      11.650  11.506  17.824  0.00  0.00    +0.000 C 
ATOM     17  C   UNL     1       9.256  11.835  18.137  0.00  0.00    +0.000 C 
ATOM     18  C   UNL     1       9.263  12.660  22.035  0.00  0.00    +0.000 C 
ATOM     19  C   UNL     1       8.147  13.289  22.867  0.00  0.00    +0.000 C 
ATOM     20  C   UNL     1       9.227  16.966  22.522  0.00  0.00    +0.000 C 
ATOM     21  C   UNL     1      10.284  17.589  21.598  0.00  0.00    +0.000 C 
ATOM     22  C   UNL     1       9.295  17.812  23.823  0.00  0.00    +0.000 C 
ATOM     23  C   UNL     1       7.724  17.066  22.008  0.00  0.00    +0.000 C 
ATOM     24  O   UNL     1       7.412  17.593  20.940  0.00  0.00    +0.000 OA
ENDROOT
BRANCH  19  25
ATOM     25  C   UNL     1       7.582  12.448  23.991  0.00  0.00    +0.000 A 
ATOM     26  C   UNL     1       8.198  12.416  25.254  0.00  0.00    +0.000 A 
ATOM     27  C   UNL     1       7.512  11.881  26.343  0.00  0.00    +0.000 A 
ATOM     28  C   UNL     1       6.231  11.356  26.178  0.00  0.00    +0.000 A 
ATOM     29  C   UNL     1       5.642  11.333  24.920  0.00  0.00    +0.000 A 
ATOM     30  C   UNL     1       6.317  11.880  23.829  0.00  0.00    +0.000 A 
ENDBRANCH  19  25
TORSDOF 1
ENDMDL
