MODEL 1
REMARK VINA RESULT:      -8.4      0.000      0.000
REMARK  Name = 
REMARK  10 active torsions:
REMARK  status: ('A' for Active; 'I' for Inactive)
REMARK    1  A    between atoms: C_1  and  C_2
REMARK    2  A    between atoms: C_2  and  O_3
REMARK    3  A    between atoms: O_3  and  C_4
REMARK    4  A    between atoms: C_4  and  C_6
REMARK    5  A    between atoms: C_7  and  C_8
REMARK    6  A    between atoms: C_8  and  N_9
REMARK    7  A    between atoms: N_9  and  C_10
REMARK    8  A    between atoms: C_10  and  C_11
REMARK    9  A    between atoms: C_22  and  C_23
REMARK   10  A    between atoms: C_27  and  N_28
REMARK                            x       y       z     vdW  Elec       q    Type
REMARK                         _______ _______ _______ _____ _____    ______ ____
ROOT
ATOM      1  C   UNL     1       6.376   6.087  17.191  0.00  0.00    +0.000 C 
ATOM      2  C   UNL     1       7.279   6.932  17.738  0.00  0.00    +0.000 C 
ATOM      3  N   UNL     1       7.767   6.620  18.997  0.00  0.00    +0.000 N 
ATOM      4  C   UNL     1       7.580   5.423  19.629  0.00  0.00    +0.000 C 
ATOM      5  O   UNL     1       8.168   5.126  20.663  0.00  0.00    +0.000 OA
ATOM      6  N   UNL     1       6.687   4.581  19.044  0.00  0.00    +0.000 N 
ATOM      7  C   UNL     1       5.726   5.039  18.059  0.00  0.00    +0.000 C 
ATOM      8  H   UNL     1       8.444   7.227  19.447  0.00  0.00    +0.000 HD
ATOM      9  H   UNL     1       6.490   3.740  19.571  0.00  0.00    +0.000 HD
ENDROOT
BRANCH   7  10
ATOM     10  C   UNL     1       4.447   5.581  18.720  0.00  0.00    +0.000 A 
ATOM     11  C   UNL     1       3.786   4.823  19.704  0.00  0.00    +0.000 A 
ATOM     12  C   UNL     1       2.582   5.266  20.270  0.00  0.00    +0.000 A 
ATOM     13  C   UNL     1       2.006   6.468  19.862  0.00  0.00    +0.000 A 
ATOM     14  C   UNL     1       2.645   7.232  18.881  0.00  0.00    +0.000 A 
ATOM     15  C   UNL     1       3.852   6.795  18.319  0.00  0.00    +0.000 A 
BRANCH  14  16
ATOM     16  N   UNL     1       2.042   8.487  18.415  0.00  0.00    +0.000 N 
ATOM     17  O   UNL     1       2.322   8.867  17.265  0.00  0.00    +0.000 OA
ATOM     18  O   UNL     1       1.303   9.102  19.195  0.00  0.00    +0.000 OA
ENDBRANCH  14  16
ENDBRANCH   7  10
BRANCH   1  19
ATOM     19  C   UNL     1       5.979   6.167  15.763  0.00  0.00    +0.000 C 
ATOM     20  O   UNL     1       5.163   6.951  15.305  0.00  0.00    +0.000 OA
BRANCH  19  21
ATOM     21  O   UNL     1       6.716   5.290  15.033  0.00  0.00    +0.000 OA
BRANCH  21  23
ATOM     22  C   UNL     1       6.333   3.801  13.157  0.00  0.00    +0.000 C 
ATOM     23  C   UNL     1       6.052   4.083  14.622  0.00  0.00    +0.000 C 
ENDBRANCH  21  23
ENDBRANCH  19  21
ENDBRANCH   1  19
BRANCH   2  24
ATOM     24  C   UNL     1       7.832   8.206  17.124  0.00  0.00    +0.000 C 
BRANCH  24  25
ATOM     25  N   UNL     1       7.755   9.393  17.975  0.00  0.00    +0.000 NA
ATOM     26  H   UNL     1       6.986   9.269  18.641  0.00  0.00    +0.000 HD
BRANCH  25  27
ATOM     27  C   UNL     1       8.993   9.714  18.677  0.00  0.00    +0.000 C 
BRANCH  27  28
ATOM     28  C   UNL     1       9.541  11.058  18.242  0.00  0.00    +0.000 A 
ATOM     29  C   UNL     1      10.927  11.289  18.207  0.00  0.00    +0.000 A 
ATOM     30  C   UNL     1      11.430  12.529  17.809  0.00  0.00    +0.000 A 
ATOM     31  C   UNL     1      10.550  13.543  17.449  0.00  0.00    +0.000 A 
ATOM     32  F   UNL     1      11.033  14.737  17.079  0.00  0.00    +0.000 F 
ATOM     33  C   UNL     1       9.176  13.335  17.466  0.00  0.00    +0.000 A 
ATOM     34  C   UNL     1       8.672  12.093  17.858  0.00  0.00    +0.000 A 
ENDBRANCH  27  28
ENDBRANCH  25  27
ENDBRANCH  24  25
ENDBRANCH   2  24
TORSDOF 9
ENDMDL
MODEL 2
REMARK VINA RESULT:      -8.4      2.062      2.408
REMARK  Name = 
REMARK  10 active torsions:
REMARK  status: ('A' for Active; 'I' for Inactive)
REMARK    1  A    between atoms: C_1  and  C_2
REMARK    2  A    between atoms: C_2  and  O_3
REMARK    3  A    between atoms: O_3  and  C_4
REMARK    4  A    between atoms: C_4  and  C_6
REMARK    5  A    between atoms: C_7  and  C_8
REMARK    6  A    between atoms: C_8  and  N_9
REMARK    7  A    between atoms: N_9  and  C_10
REMARK    8  A    between atoms: C_10  and  C_11
REMARK    9  A    between atoms: C_22  and  C_23
REMARK   10  A    between atoms: C_27  and  N_28
REMARK                            x       y       z     vdW  Elec       q    Type
REMARK                         _______ _______ _______ _____ _____    ______ ____
ROOT
ATOM      1  C   UNL     1       6.621   5.852  17.193  0.00  0.00    +0.000 C 
ATOM      2  C   UNL     1       7.342   6.808  17.819  0.00  0.00    +0.000 C 
ATOM      3  N   UNL     1       7.745   6.558  19.121  0.00  0.00    +0.000 N 
ATOM      4  C   UNL     1       7.665   5.342  19.739  0.00  0.00    +0.000 C 
ATOM      5  O   UNL     1       8.187   5.121  20.827  0.00  0.00    +0.000 OA
ATOM      6  N   UNL     1       6.957   4.389  19.077  0.00  0.00    +0.000 N 
ATOM      7  C   UNL     1       6.040   4.718  18.002  0.00  0.00    +0.000 C 
ATOM      8  H   UNL     1       8.286   7.249  19.630  0.00  0.00    +0.000 HD
ATOM      9  H   UNL     1       6.828   3.525  19.588  0.00  0.00    +0.000 HD
ENDROOT
BRANCH   7  10
ATOM     10  C   UNL     1       4.641   5.074  18.534  0.00  0.00    +0.000 A 
ATOM     11  C   UNL     1       4.078   6.331  18.248  0.00  0.00    +0.000 A 
ATOM     12  C   UNL     1       2.834   6.703  18.779  0.00  0.00    +0.000 A 
ATOM     13  C   UNL     1       2.132   5.835  19.613  0.00  0.00    +0.000 A 
ATOM     14  C   UNL     1       2.678   4.585  19.913  0.00  0.00    +0.000 A 
ATOM     15  C   UNL     1       3.917   4.208  19.378  0.00  0.00    +0.000 A 
BRANCH  14  16
ATOM     16  N   UNL     1       1.969   3.666  20.813  0.00  0.00    +0.000 N 
ATOM     17  O   UNL     1       2.500   3.408  21.907  0.00  0.00    +0.000 OA
ATOM     18  O   UNL     1       0.894   3.189  20.427  0.00  0.00    +0.000 OA
ENDBRANCH  14  16
ENDBRANCH   7  10
BRANCH   1  19
ATOM     19  C   UNL     1       6.355   5.886  15.734  0.00  0.00    +0.000 C 
ATOM     20  O   UNL     1       5.412   6.453  15.205  0.00  0.00    +0.000 OA
BRANCH  19  21
ATOM     21  O   UNL     1       7.360   5.258  15.070  0.00  0.00    +0.000 OA
BRANCH  21  23
ATOM     22  C   UNL     1       7.583   5.150  12.657  0.00  0.00    +0.000 C 
ATOM     23  C   UNL     1       6.987   4.513  13.899  0.00  0.00    +0.000 C 
ENDBRANCH  21  23
ENDBRANCH  19  21
ENDBRANCH   1  19
BRANCH   2  24
ATOM     24  C   UNL     1       7.770   8.151  17.253  0.00  0.00    +0.000 C 
BRANCH  24  25
ATOM     25  N   UNL     1       8.341   9.085  18.224  0.00  0.00    +0.000 NA
ATOM     26  H   UNL     1       9.341   8.880  18.324  0.00  0.00    +0.000 HD
BRANCH  25  27
ATOM     27  C   UNL     1       8.137  10.493  17.901  0.00  0.00    +0.000 C 
BRANCH  27  28
ATOM     28  C   UNL     1       9.266  11.350  18.434  0.00  0.00    +0.000 A 
ATOM     29  C   UNL     1      10.045  10.913  19.520  0.00  0.00    +0.000 A 
ATOM     30  C   UNL     1      11.083  11.706  20.012  0.00  0.00    +0.000 A 
ATOM     31  C   UNL     1      11.343  12.939  19.425  0.00  0.00    +0.000 A 
ATOM     32  F   UNL     1      12.332  13.704  19.907  0.00  0.00    +0.000 F 
ATOM     33  C   UNL     1      10.594  13.387  18.345  0.00  0.00    +0.000 A 
ATOM     34  C   UNL     1       9.559  12.592  17.846  0.00  0.00    +0.000 A 
ENDBRANCH  27  28
ENDBRANCH  25  27
ENDBRANCH  24  25
ENDBRANCH   2  24
TORSDOF 9
ENDMDL
MODEL 3
REMARK VINA RESULT:      -8.3      1.841      2.258
REMARK  Name = 
REMARK  10 active torsions:
REMARK  status: ('A' for Active; 'I' for Inactive)
REMARK    1  A    between atoms: C_1  and  C_2
REMARK    2  A    between atoms: C_2  and  O_3
REMARK    3  A    between atoms: O_3  and  C_4
REMARK    4  A    between atoms: C_4  and  C_6
REMARK    5  A    between atoms: C_7  and  C_8
REMARK    6  A    between atoms: C_8  and  N_9
REMARK    7  A    between atoms: N_9  and  C_10
REMARK    8  A    between atoms: C_10  and  C_11
REMARK    9  A    between atoms: C_22  and  C_23
REMARK   10  A    between atoms: C_27  and  N_28
REMARK                            x       y       z     vdW  Elec       q    Type
REMARK                         _______ _______ _______ _____ _____    ______ ____
ROOT
ATOM      1  C   UNL     1       6.464   5.965  17.164  0.00  0.00    +0.000 C 
ATOM      2  C   UNL     1       7.266   6.886  17.746  0.00  0.00    +0.000 C 
ATOM      3  N   UNL     1       7.731   6.616  19.022  0.00  0.00    +0.000 N 
ATOM      4  C   UNL     1       7.628   5.405  19.647  0.00  0.00    +0.000 C 
ATOM      5  O   UNL     1       8.200   5.159  20.703  0.00  0.00    +0.000 OA
ATOM      6  N   UNL     1       6.837   4.487  19.029  0.00  0.00    +0.000 N 
ATOM      7  C   UNL     1       5.877   4.860  18.008  0.00  0.00    +0.000 C 
ATOM      8  H   UNL     1       8.332   7.280  19.497  0.00  0.00    +0.000 HD
ATOM      9  H   UNL     1       6.697   3.631  19.549  0.00  0.00    +0.000 HD
ENDROOT
BRANCH   7  10
ATOM     10  C   UNL     1       4.530   5.283  18.619  0.00  0.00    +0.000 A 
ATOM     11  C   UNL     1       4.044   6.588  18.416  0.00  0.00    +0.000 A 
ATOM     12  C   UNL     1       2.852   7.016  19.020  0.00  0.00    +0.000 A 
ATOM     13  C   UNL     1       2.128   6.158  19.846  0.00  0.00    +0.000 A 
ATOM     14  C   UNL     1       2.599   4.861  20.064  0.00  0.00    +0.000 A 
ATOM     15  C   UNL     1       3.785   4.428  19.456  0.00  0.00    +0.000 A 
BRANCH  14  16
ATOM     16  N   UNL     1       1.867   3.950  20.953  0.00  0.00    +0.000 N 
ATOM     17  O   UNL     1       0.777   3.508  20.552  0.00  0.00    +0.000 OA
ATOM     18  O   UNL     1       2.366   3.686  22.054  0.00  0.00    +0.000 OA
ENDBRANCH  14  16
ENDBRANCH   7  10
BRANCH   1  19
ATOM     19  C   UNL     1       6.116   6.013  15.723  0.00  0.00    +0.000 C 
ATOM     20  O   UNL     1       5.243   6.712  15.234  0.00  0.00    +0.000 OA
BRANCH  19  21
ATOM     21  O   UNL     1       6.966   5.220  15.020  0.00  0.00    +0.000 OA
BRANCH  21  23
ATOM     22  C   UNL     1       6.067   3.832  13.245  0.00  0.00    +0.000 C 
ATOM     23  C   UNL     1       6.493   3.900  14.700  0.00  0.00    +0.000 C 
ENDBRANCH  21  23
ENDBRANCH  19  21
ENDBRANCH   1  19
BRANCH   2  24
ATOM     24  C   UNL     1       7.724   8.206  17.152  0.00  0.00    +0.000 C 
BRANCH  24  25
ATOM     25  N   UNL     1       7.747   9.335  18.083  0.00  0.00    +0.000 NA
ATOM     26  H   UNL     1       6.985   9.216  18.758  0.00  0.00    +0.000 HD
BRANCH  25  27
ATOM     27  C   UNL     1       9.019   9.523  18.773  0.00  0.00    +0.000 C 
BRANCH  27  28
ATOM     28  C   UNL     1       9.521  10.944  18.626  0.00  0.00    +0.000 A 
ATOM     29  C   UNL     1       8.807  11.879  17.856  0.00  0.00    +0.000 A 
ATOM     30  C   UNL     1       9.274  13.188  17.719  0.00  0.00    +0.000 A 
ATOM     31  C   UNL     1      10.456  13.565  18.346  0.00  0.00    +0.000 A 
ATOM     32  F   UNL     1      10.908  14.818  18.203  0.00  0.00    +0.000 F 
ATOM     33  C   UNL     1      11.173  12.662  19.120  0.00  0.00    +0.000 A 
ATOM     34  C   UNL     1      10.704  11.354  19.263  0.00  0.00    +0.000 A 
ENDBRANCH  27  28
ENDBRANCH  25  27
ENDBRANCH  24  25
ENDBRANCH   2  24
TORSDOF 9
ENDMDL
MODEL 4
REMARK VINA RESULT:      -8.3      2.338      2.737
REMARK  Name = 
REMARK  10 active torsions:
REMARK  status: ('A' for Active; 'I' for Inactive)
REMARK    1  A    between atoms: C_1  and  C_2
REMARK    2  A    between atoms: C_2  and  O_3
REMARK    3  A    between atoms: O_3  and  C_4
REMARK    4  A    between atoms: C_4  and  C_6
REMARK    5  A    between atoms: C_7  and  C_8
REMARK    6  A    between atoms: C_8  and  N_9
REMARK    7  A    between atoms: N_9  and  C_10
REMARK    8  A    between atoms: C_10  and  C_11
REMARK    9  A    between atoms: C_22  and  C_23
REMARK   10  A    between atoms: C_27  and  N_28
REMARK                            x       y       z     vdW  Elec       q    Type
REMARK                         _______ _______ _______ _____ _____    ______ ____
ROOT
ATOM      1  C   UNL     1       6.664   5.903  17.241  0.00  0.00    +0.000 C 
ATOM      2  C   UNL     1       7.358   6.867  17.888  0.00  0.00    +0.000 C 
ATOM      3  N   UNL     1       7.786   6.593  19.177  0.00  0.00    +0.000 N 
ATOM      4  C   UNL     1       7.758   5.356  19.759  0.00  0.00    +0.000 C 
ATOM      5  O   UNL     1       8.300   5.123  20.833  0.00  0.00    +0.000 OA
ATOM      6  N   UNL     1       7.077   4.398  19.076  0.00  0.00    +0.000 N 
ATOM      7  C   UNL     1       6.136   4.725  18.021  0.00  0.00    +0.000 C 
ATOM      8  H   UNL     1       8.307   7.288  19.700  0.00  0.00    +0.000 HD
ATOM      9  H   UNL     1       6.986   3.516  19.562  0.00  0.00    +0.000 HD
ENDROOT
BRANCH   7  10
ATOM     10  C   UNL     1       4.731   5.013  18.579  0.00  0.00    +0.000 A 
ATOM     11  C   UNL     1       4.119   6.256  18.338  0.00  0.00    +0.000 A 
ATOM     12  C   UNL     1       2.869   6.566  18.893  0.00  0.00    +0.000 A 
ATOM     13  C   UNL     1       2.209   5.648  19.708  0.00  0.00    +0.000 A 
ATOM     14  C   UNL     1       2.804   4.411  19.965  0.00  0.00    +0.000 A 
ATOM     15  C   UNL     1       4.050   4.096  19.404  0.00  0.00    +0.000 A 
BRANCH  14  16
ATOM     16  N   UNL     1       2.140   3.440  20.844  0.00  0.00    +0.000 N 
ATOM     17  O   UNL     1       2.336   3.543  22.067  0.00  0.00    +0.000 OA
ATOM     18  O   UNL     1       1.438   2.566  20.319  0.00  0.00    +0.000 OA
ENDBRANCH  14  16
ENDBRANCH   7  10
BRANCH   1  19
ATOM     19  C   UNL     1       6.380   5.971  15.786  0.00  0.00    +0.000 C 
ATOM     20  O   UNL     1       5.480   6.620  15.276  0.00  0.00    +0.000 OA
BRANCH  19  21
ATOM     21  O   UNL     1       7.318   5.265  15.102  0.00  0.00    +0.000 OA
BRANCH  21  23
ATOM     22  C   UNL     1       6.230   3.748  13.553  0.00  0.00    +0.000 C 
ATOM     23  C   UNL     1       7.046   5.017  13.713  0.00  0.00    +0.000 C 
ENDBRANCH  21  23
ENDBRANCH  19  21
ENDBRANCH   1  19
BRANCH   2  24
ATOM     24  C   UNL     1       7.730   8.240  17.357  0.00  0.00    +0.000 C 
BRANCH  24  25
ATOM     25  N   UNL     1       8.237   9.179  18.357  0.00  0.00    +0.000 NA
ATOM     26  H   UNL     1       8.787   8.657  19.046  0.00  0.00    +0.000 HD
BRANCH  25  27
ATOM     27  C   UNL     1       9.018  10.283  17.809  0.00  0.00    +0.000 C 
BRANCH  27  28
ATOM     28  C   UNL     1       9.279  11.346  18.856  0.00  0.00    +0.000 A 
ATOM     29  C   UNL     1       9.025  12.701  18.579  0.00  0.00    +0.000 A 
ATOM     30  C   UNL     1       9.270  13.680  19.545  0.00  0.00    +0.000 A 
ATOM     31  C   UNL     1       9.771  13.309  20.787  0.00  0.00    +0.000 A 
ATOM     32  F   UNL     1      10.017  14.251  21.708  0.00  0.00    +0.000 F 
ATOM     33  C   UNL     1      10.019  11.976  21.087  0.00  0.00    +0.000 A 
ATOM     34  C   UNL     1       9.769  10.995  20.125  0.00  0.00    +0.000 A 
ENDBRANCH  27  28
ENDBRANCH  25  27
ENDBRANCH  24  25
ENDBRANCH   2  24
TORSDOF 9
ENDMDL
MODEL 5
REMARK VINA RESULT:      -8.2      1.982      2.577
REMARK  Name = 
REMARK  10 active torsions:
REMARK  status: ('A' for Active; 'I' for Inactive)
REMARK    1  A    between atoms: C_1  and  C_2
REMARK    2  A    between atoms: C_2  and  O_3
REMARK    3  A    between atoms: O_3  and  C_4
REMARK    4  A    between atoms: C_4  and  C_6
REMARK    5  A    between atoms: C_7  and  C_8
REMARK    6  A    between atoms: C_8  and  N_9
REMARK    7  A    between atoms: N_9  and  C_10
REMARK    8  A    between atoms: C_10  and  C_11
REMARK    9  A    between atoms: C_22  and  C_23
REMARK   10  A    between atoms: C_27  and  N_28
REMARK                            x       y       z     vdW  Elec       q    Type
REMARK                         _______ _______ _______ _____ _____    ______ ____
ROOT
ATOM      1  C   UNL     1       6.664   5.861  17.198  0.00  0.00    +0.000 C 
ATOM      2  C   UNL     1       7.318   6.851  17.847  0.00  0.00    +0.000 C 
ATOM      3  N   UNL     1       7.815   6.569  19.110  0.00  0.00    +0.000 N 
ATOM      4  C   UNL     1       7.892   5.318  19.654  0.00  0.00    +0.000 C 
ATOM      5  O   UNL     1       8.492   5.091  20.699  0.00  0.00    +0.000 OA
ATOM      6  N   UNL     1       7.249   4.336  18.968  0.00  0.00    +0.000 N 
ATOM      7  C   UNL     1       6.247   4.628  17.961  0.00  0.00    +0.000 C 
ATOM      8  H   UNL     1       8.309   7.283  19.634  0.00  0.00    +0.000 HD
ATOM      9  H   UNL     1       7.237   3.436  19.430  0.00  0.00    +0.000 HD
ENDROOT
BRANCH   7  10
ATOM     10  C   UNL     1       4.850   4.805  18.581  0.00  0.00    +0.000 A 
ATOM     11  C   UNL     1       4.193   6.046  18.494  0.00  0.00    +0.000 A 
ATOM     12  C   UNL     1       2.950   6.250  19.110  0.00  0.00    +0.000 A 
ATOM     13  C   UNL     1       2.341   5.226  19.834  0.00  0.00    +0.000 A 
ATOM     14  C   UNL     1       2.982   3.989  19.938  0.00  0.00    +0.000 A 
ATOM     15  C   UNL     1       4.221   3.780  19.317  0.00  0.00    +0.000 A 
BRANCH  14  16
ATOM     16  N   UNL     1       2.374   2.906  20.720  0.00  0.00    +0.000 N 
ATOM     17  O   UNL     1       2.851   2.668  21.843  0.00  0.00    +0.000 OA
ATOM     18  O   UNL     1       1.433   2.281  20.214  0.00  0.00    +0.000 OA
ENDBRANCH  14  16
ENDBRANCH   7  10
BRANCH   1  19
ATOM     19  C   UNL     1       6.318   5.951  15.758  0.00  0.00    +0.000 C 
ATOM     20  O   UNL     1       5.309   6.473  15.310  0.00  0.00    +0.000 OA
BRANCH  19  21
ATOM     21  O   UNL     1       7.327   5.434  15.011  0.00  0.00    +0.000 OA
BRANCH  21  23
ATOM     22  C   UNL     1       7.562   4.968  12.642  0.00  0.00    +0.000 C 
ATOM     23  C   UNL     1       6.948   4.531  13.959  0.00  0.00    +0.000 C 
ENDBRANCH  21  23
ENDBRANCH  19  21
ENDBRANCH   1  19
BRANCH   2  24
ATOM     24  C   UNL     1       7.576   8.260  17.346  0.00  0.00    +0.000 C 
BRANCH  24  25
ATOM     25  N   UNL     1       8.833   8.862  17.794  0.00  0.00    +0.000 NA
ATOM     26  H   UNL     1       9.359   9.170  16.970  0.00  0.00    +0.000 HD
BRANCH  25  27
ATOM     27  C   UNL     1       8.673   9.961  18.740  0.00  0.00    +0.000 C 
BRANCH  27  28
ATOM     28  C   UNL     1       9.422  11.195  18.283  0.00  0.00    +0.000 A 
ATOM     29  C   UNL     1       8.726  12.356  17.904  0.00  0.00    +0.000 A 
ATOM     30  C   UNL     1       9.418  13.491  17.480  0.00  0.00    +0.000 A 
ATOM     31  C   UNL     1      10.807  13.470  17.429  0.00  0.00    +0.000 A 
ATOM     32  F   UNL     1      11.470  14.556  17.009  0.00  0.00    +0.000 F 
ATOM     33  C   UNL     1      11.518  12.338  17.808  0.00  0.00    +0.000 A 
ATOM     34  C   UNL     1      10.827  11.203  18.239  0.00  0.00    +0.000 A 
ENDBRANCH  27  28
ENDBRANCH  25  27
ENDBRANCH  24  25
ENDBRANCH   2  24
TORSDOF 9
ENDMDL
MODEL 6
REMARK VINA RESULT:      -8.1      1.166      1.484
REMARK  Name = 
REMARK  10 active torsions:
REMARK  status: ('A' for Active; 'I' for Inactive)
REMARK    1  A    between atoms: C_1  and  C_2
REMARK    2  A    between atoms: C_2  and  O_3
REMARK    3  A    between atoms: O_3  and  C_4
REMARK    4  A    between atoms: C_4  and  C_6
REMARK    5  A    between atoms: C_7  and  C_8
REMARK    6  A    between atoms: C_8  and  N_9
REMARK    7  A    between atoms: N_9  and  C_10
REMARK    8  A    between atoms: C_10  and  C_11
REMARK    9  A    between atoms: C_22  and  C_23
REMARK   10  A    between atoms: C_27  and  N_28
REMARK                            x       y       z     vdW  Elec       q    Type
REMARK                         _______ _______ _______ _____ _____    ______ ____
ROOT
ATOM      1  C   UNL     1       6.465   6.015  17.141  0.00  0.00    +0.000 C 
ATOM      2  C   UNL     1       7.192   6.962  17.776  0.00  0.00    +0.000 C 
ATOM      3  N   UNL     1       7.899   6.578  18.904  0.00  0.00    +0.000 N 
ATOM      4  C   UNL     1       8.098   5.284  19.294  0.00  0.00    +0.000 C 
ATOM      5  O   UNL     1       8.869   4.980  20.197  0.00  0.00    +0.000 OA
ATOM      6  N   UNL     1       7.375   4.348  18.622  0.00  0.00    +0.000 N 
ATOM      7  C   UNL     1       6.213   4.696  17.828  0.00  0.00    +0.000 C 
ATOM      8  H   UNL     1       8.455   7.257  19.413  0.00  0.00    +0.000 HD
ATOM      9  H   UNL     1       7.464   3.407  18.983  0.00  0.00    +0.000 HD
ENDROOT
BRANCH   7  10
ATOM     10  C   UNL     1       4.934   4.750  18.682  0.00  0.00    +0.000 A 
ATOM     11  C   UNL     1       4.423   3.574  19.261  0.00  0.00    +0.000 A 
ATOM     12  C   UNL     1       3.222   3.589  19.986  0.00  0.00    +0.000 A 
ATOM     13  C   UNL     1       2.502   4.771  20.141  0.00  0.00    +0.000 A 
ATOM     14  C   UNL     1       2.991   5.948  19.568  0.00  0.00    +0.000 A 
ATOM     15  C   UNL     1       4.194   5.938  18.849  0.00  0.00    +0.000 A 
BRANCH  14  16
ATOM     16  N   UNL     1       2.234   7.200  19.694  0.00  0.00    +0.000 N 
ATOM     17  O   UNL     1       1.560   7.363  20.726  0.00  0.00    +0.000 OA
ATOM     18  O   UNL     1       2.296   8.013  18.763  0.00  0.00    +0.000 OA
ENDBRANCH  14  16
ENDBRANCH   7  10
BRANCH   1  19
ATOM     19  C   UNL     1       5.882   6.233  15.795  0.00  0.00    +0.000 C 
ATOM     20  O   UNL     1       5.013   7.049  15.530  0.00  0.00    +0.000 OA
BRANCH  19  21
ATOM     21  O   UNL     1       6.512   5.442  14.888  0.00  0.00    +0.000 OA
BRANCH  21  23
ATOM     22  C   UNL     1       6.393   3.825  13.084  0.00  0.00    +0.000 C 
ATOM     23  C   UNL     1       5.753   4.342  14.360  0.00  0.00    +0.000 C 
ENDBRANCH  21  23
ENDBRANCH  19  21
ENDBRANCH   1  19
BRANCH   2  24
ATOM     24  C   UNL     1       7.327   8.425  17.390  0.00  0.00    +0.000 C 
BRANCH  24  25
ATOM     25  N   UNL     1       8.620   9.035  17.700  0.00  0.00    +0.000 NA
ATOM     26  H   UNL     1       8.830   9.737  16.983  0.00  0.00    +0.000 HD
BRANCH  25  27
ATOM     27  C   UNL     1       8.706   9.624  19.033  0.00  0.00    +0.000 C 
BRANCH  27  28
ATOM     28  C   UNL     1       9.684  10.781  19.061  0.00  0.00    +0.000 A 
ATOM     29  C   UNL     1      10.089  11.346  20.283  0.00  0.00    +0.000 A 
ATOM     30  C   UNL     1      10.988  12.414  20.306  0.00  0.00    +0.000 A 
ATOM     31  C   UNL     1      11.481  12.923  19.111  0.00  0.00    +0.000 A 
ATOM     32  F   UNL     1      12.333  13.957  19.135  0.00  0.00    +0.000 F 
ATOM     33  C   UNL     1      11.102  12.376  17.892  0.00  0.00    +0.000 A 
ATOM     34  C   UNL     1      10.209  11.302  17.866  0.00  0.00    +0.000 A 
ENDBRANCH  27  28
ENDBRANCH  25  27
ENDBRANCH  24  25
ENDBRANCH   2  24
TORSDOF 9
ENDMDL
MODEL 7
REMARK VINA RESULT:      -8.1      1.477      1.676
REMARK  Name = 
REMARK  10 active torsions:
REMARK  status: ('A' for Active; 'I' for Inactive)
REMARK    1  A    between atoms: C_1  and  C_2
REMARK    2  A    between atoms: C_2  and  O_3
REMARK    3  A    between atoms: O_3  and  C_4
REMARK    4  A    between atoms: C_4  and  C_6
REMARK    5  A    between atoms: C_7  and  C_8
REMARK    6  A    between atoms: C_8  and  N_9
REMARK    7  A    between atoms: N_9  and  C_10
REMARK    8  A    between atoms: C_10  and  C_11
REMARK    9  A    between atoms: C_22  and  C_23
REMARK   10  A    between atoms: C_27  and  N_28
REMARK                            x       y       z     vdW  Elec       q    Type
REMARK                         _______ _______ _______ _____ _____    ______ ____
ROOT
ATOM      1  C   UNL     1       6.718   6.081  17.188  0.00  0.00    +0.000 C 
ATOM      2  C   UNL     1       7.453   7.005  17.847  0.00  0.00    +0.000 C 
ATOM      3  N   UNL     1       7.874   6.693  19.130  0.00  0.00    +0.000 N 
ATOM      4  C   UNL     1       7.798   5.450  19.692  0.00  0.00    +0.000 C 
ATOM      5  O   UNL     1       8.334   5.177  20.760  0.00  0.00    +0.000 OA
ATOM      6  N   UNL     1       7.076   4.531  18.997  0.00  0.00    +0.000 N 
ATOM      7  C   UNL     1       6.145   4.912  17.952  0.00  0.00    +0.000 C 
ATOM      8  H   UNL     1       8.425   7.358  19.662  0.00  0.00    +0.000 HD
ATOM      9  H   UNL     1       6.952   3.645  19.470  0.00  0.00    +0.000 HD
ENDROOT
BRANCH   7  10
ATOM     10  C   UNL     1       4.756   5.248  18.521  0.00  0.00    +0.000 A 
ATOM     11  C   UNL     1       4.023   4.268  19.215  0.00  0.00    +0.000 A 
ATOM     12  C   UNL     1       2.727   4.532  19.682  0.00  0.00    +0.000 A 
ATOM     13  C   UNL     1       2.131   5.771  19.458  0.00  0.00    +0.000 A 
ATOM     14  C   UNL     1       2.841   6.755  18.765  0.00  0.00    +0.000 A 
ATOM     15  C   UNL     1       4.139   6.497  18.303  0.00  0.00    +0.000 A 
BRANCH  14  16
ATOM     16  N   UNL     1       2.222   8.058  18.492  0.00  0.00    +0.000 N 
ATOM     17  O   UNL     1       2.352   8.530  17.350  0.00  0.00    +0.000 OA
ATOM     18  O   UNL     1       1.620   8.621  19.417  0.00  0.00    +0.000 OA
ENDBRANCH  14  16
ENDBRANCH   7  10
BRANCH   1  19
ATOM     19  C   UNL     1       6.432   6.184  15.736  0.00  0.00    +0.000 C 
ATOM     20  O   UNL     1       5.497   6.799  15.247  0.00  0.00    +0.000 OA
BRANCH  19  21
ATOM     21  O   UNL     1       7.407   5.555  15.031  0.00  0.00    +0.000 OA
BRANCH  21  23
ATOM     22  C   UNL     1       6.051   3.776  14.092  0.00  0.00    +0.000 C 
ATOM     23  C   UNL     1       7.004   4.921  13.805  0.00  0.00    +0.000 C 
ENDBRANCH  21  23
ENDBRANCH  19  21
ENDBRANCH   1  19
BRANCH   2  24
ATOM     24  C   UNL     1       7.878   8.370  17.337  0.00  0.00    +0.000 C 
BRANCH  24  25
ATOM     25  N   UNL     1       8.291   9.322  18.369  0.00  0.00    +0.000 NA
ATOM     26  H   UNL     1       8.725   8.801  19.138  0.00  0.00    +0.000 HD
BRANCH  25  27
ATOM     27  C   UNL     1       9.183  10.376  17.898  0.00  0.00    +0.000 C 
BRANCH  27  28
ATOM     28  C   UNL     1       9.425  11.414  18.974  0.00  0.00    +0.000 A 
ATOM     29  C   UNL     1       9.259  12.783  18.699  0.00  0.00    +0.000 A 
ATOM     30  C   UNL     1       9.486  13.738  19.691  0.00  0.00    +0.000 A 
ATOM     31  C   UNL     1       9.882  13.330  20.960  0.00  0.00    +0.000 A 
ATOM     32  F   UNL     1      10.112  14.250  21.907  0.00  0.00    +0.000 F 
ATOM     33  C   UNL     1      10.042  11.983  21.258  0.00  0.00    +0.000 A 
ATOM     34  C   UNL     1       9.809  11.026  20.268  0.00  0.00    +0.000 A 
ENDBRANCH  27  28
ENDBRANCH  25  27
ENDBRANCH  24  25
ENDBRANCH   2  24
TORSDOF 9
ENDMDL
MODEL 8
REMARK VINA RESULT:      -8.1      1.579      2.188
REMARK  Name = 
REMARK  10 active torsions:
REMARK  status: ('A' for Active; 'I' for Inactive)
REMARK    1  A    between atoms: C_1  and  C_2
REMARK    2  A    between atoms: C_2  and  O_3
REMARK    3  A    between atoms: O_3  and  C_4
REMARK    4  A    between atoms: C_4  and  C_6
REMARK    5  A    between atoms: C_7  and  C_8
REMARK    6  A    between atoms: C_8  and  N_9
REMARK    7  A    between atoms: N_9  and  C_10
REMARK    8  A    between atoms: C_10  and  C_11
REMARK    9  A    between atoms: C_22  and  C_23
REMARK   10  A    between atoms: C_27  and  N_28
REMARK                            x       y       z     vdW  Elec       q    Type
REMARK                         _______ _______ _______ _____ _____    ______ ____
ROOT
ATOM      1  C   UNL     1       5.173   5.470  17.234  0.00  0.00    +0.000 C 
ATOM      2  C   UNL     1       6.231   5.186  18.026  0.00  0.00    +0.000 C 
ATOM      3  N   UNL     1       6.047   4.250  19.031  0.00  0.00    +0.000 N 
ATOM      4  C   UNL     1       4.956   3.434  19.143  0.00  0.00    +0.000 C 
ATOM      5  O   UNL     1       4.908   2.506  19.942  0.00  0.00    +0.000 OA
ATOM      6  N   UNL     1       3.916   3.724  18.316  0.00  0.00    +0.000 N 
ATOM      7  C   UNL     1       3.798   5.004  17.644  0.00  0.00    +0.000 C 
ATOM      8  H   UNL     1       6.812   4.009  19.651  0.00  0.00    +0.000 HD
ATOM      9  H   UNL     1       3.083   3.171  18.475  0.00  0.00    +0.000 HD
ENDROOT
BRANCH   7  10
ATOM     10  C   UNL     1       3.099   6.050  18.529  0.00  0.00    +0.000 A 
ATOM     11  C   UNL     1       2.709   5.718  19.840  0.00  0.00    +0.000 A 
ATOM     12  C   UNL     1       2.010   6.633  20.639  0.00  0.00    +0.000 A 
ATOM     13  C   UNL     1       1.675   7.894  20.148  0.00  0.00    +0.000 A 
ATOM     14  C   UNL     1       2.048   8.239  18.846  0.00  0.00    +0.000 A 
ATOM     15  C   UNL     1       2.754   7.329  18.047  0.00  0.00    +0.000 A 
BRANCH  14  16
ATOM     16  N   UNL     1       1.681   9.551  18.297  0.00  0.00    +0.000 N 
ATOM     17  O   UNL     1       0.622  10.066  18.696  0.00  0.00    +0.000 OA
ATOM     18  O   UNL     1       2.435  10.062  17.459  0.00  0.00    +0.000 OA
ENDBRANCH  14  16
ENDBRANCH   7  10
BRANCH   1  19
ATOM     19  C   UNL     1       5.309   6.248  15.978  0.00  0.00    +0.000 C 
ATOM     20  O   UNL     1       4.869   7.372  15.797  0.00  0.00    +0.000 OA
BRANCH  19  21
ATOM     21  O   UNL     1       6.062   5.552  15.087  0.00  0.00    +0.000 OA
BRANCH  21  23
ATOM     22  C   UNL     1       6.375   3.732  13.514  0.00  0.00    +0.000 C 
ATOM     23  C   UNL     1       5.379   4.550  14.315  0.00  0.00    +0.000 C 
ENDBRANCH  21  23
ENDBRANCH  19  21
ENDBRANCH   1  19
BRANCH   2  24
ATOM     24  C   UNL     1       7.624   5.785  17.943  0.00  0.00    +0.000 C 
BRANCH  24  25
ATOM     25  N   UNL     1       7.765   7.122  18.520  0.00  0.00    +0.000 NA
ATOM     26  H   UNL     1       8.597   7.134  19.117  0.00  0.00    +0.000 HD
BRANCH  25  27
ATOM     27  C   UNL     1       7.824   8.201  17.539  0.00  0.00    +0.000 C 
BRANCH  27  28
ATOM     28  C   UNL     1       8.400   9.464  18.143  0.00  0.00    +0.000 A 
ATOM     29  C   UNL     1       9.078   9.424  19.374  0.00  0.00    +0.000 A 
ATOM     30  C   UNL     1       9.606  10.591  19.931  0.00  0.00    +0.000 A 
ATOM     31  C   UNL     1       9.455  11.800  19.262  0.00  0.00    +0.000 A 
ATOM     32  F   UNL     1       9.951  12.921  19.804  0.00  0.00    +0.000 F 
ATOM     33  C   UNL     1       8.798  11.863  18.040  0.00  0.00    +0.000 A 
ATOM     34  C   UNL     1       8.275  10.696  17.478  0.00  0.00    +0.000 A 
ENDBRANCH  27  28
ENDBRANCH  25  27
ENDBRANCH  24  25
ENDBRANCH   2  24
TORSDOF 9
ENDMDL
MODEL 9
REMARK VINA RESULT:      -8.1      1.047      1.133
REMARK  Name = 
REMARK  10 active torsions:
REMARK  status: ('A' for Active; 'I' for Inactive)
REMARK    1  A    between atoms: C_1  and  C_2
REMARK    2  A    between atoms: C_2  and  O_3
REMARK    3  A    between atoms: O_3  and  C_4
REMARK    4  A    between atoms: C_4  and  C_6
REMARK    5  A    between atoms: C_7  and  C_8
REMARK    6  A    between atoms: C_8  and  N_9
REMARK    7  A    between atoms: N_9  and  C_10
REMARK    8  A    between atoms: C_10  and  C_11
REMARK    9  A    between atoms: C_22  and  C_23
REMARK   10  A    between atoms: C_27  and  N_28
REMARK                            x       y       z     vdW  Elec       q    Type
REMARK                         _______ _______ _______ _____ _____    ______ ____
ROOT
ATOM      1  C   UNL     1       6.375   6.051  17.240  0.00  0.00    +0.000 C 
ATOM      2  C   UNL     1       7.270   6.907  17.783  0.00  0.00    +0.000 C 
ATOM      3  N   UNL     1       7.760   6.608  19.043  0.00  0.00    +0.000 N 
ATOM      4  C   UNL     1       7.585   5.412  19.682  0.00  0.00    +0.000 C 
ATOM      5  O   UNL     1       8.175   5.127  20.718  0.00  0.00    +0.000 OA
ATOM      6  N   UNL     1       6.700   4.558  19.101  0.00  0.00    +0.000 N 
ATOM      7  C   UNL     1       5.735   5.001  18.114  0.00  0.00    +0.000 C 
ATOM      8  H   UNL     1       8.430   7.224  19.490  0.00  0.00    +0.000 HD
ATOM      9  H   UNL     1       6.512   3.718  19.634  0.00  0.00    +0.000 HD
ENDROOT
BRANCH   7  10
ATOM     10  C   UNL     1       4.450   5.534  18.771  0.00  0.00    +0.000 A 
ATOM     11  C   UNL     1       3.794   4.772  19.755  0.00  0.00    +0.000 A 
ATOM     12  C   UNL     1       2.585   5.207  20.318  0.00  0.00    +0.000 A 
ATOM     13  C   UNL     1       2.001   6.403  19.906  0.00  0.00    +0.000 A 
ATOM     14  C   UNL     1       2.634   7.170  18.925  0.00  0.00    +0.000 A 
ATOM     15  C   UNL     1       3.846   6.742  18.366  0.00  0.00    +0.000 A 
BRANCH  14  16
ATOM     16  N   UNL     1       2.022   8.419  18.455  0.00  0.00    +0.000 N 
ATOM     17  O   UNL     1       2.253   8.768  17.285  0.00  0.00    +0.000 OA
ATOM     18  O   UNL     1       1.326   9.061  19.252  0.00  0.00    +0.000 OA
ENDBRANCH  14  16
ENDBRANCH   7  10
BRANCH   1  19
ATOM     19  C   UNL     1       5.978   6.119  15.812  0.00  0.00    +0.000 C 
ATOM     20  O   UNL     1       5.104   6.842  15.360  0.00  0.00    +0.000 OA
BRANCH  19  21
ATOM     21  O   UNL     1       6.784   5.312  15.073  0.00  0.00    +0.000 OA
BRANCH  21  23
ATOM     22  C   UNL     1       6.222   3.830  13.237  0.00  0.00    +0.000 C 
ATOM     23  C   UNL     1       6.262   4.014  14.743  0.00  0.00    +0.000 C 
ENDBRANCH  21  23
ENDBRANCH  19  21
ENDBRANCH   1  19
BRANCH   2  24
ATOM     24  C   UNL     1       7.809   8.183  17.161  0.00  0.00    +0.000 C 
BRANCH  24  25
ATOM     25  N   UNL     1       7.845   9.345  18.051  0.00  0.00    +0.000 NA
ATOM     26  H   UNL     1       7.140   9.215  18.784  0.00  0.00    +0.000 HD
BRANCH  25  27
ATOM     27  C   UNL     1       9.152   9.616  18.639  0.00  0.00    +0.000 C 
BRANCH  27  28
ATOM     28  C   UNL     1       9.279  11.067  19.053  0.00  0.00    +0.000 A 
ATOM     29  C   UNL     1       9.509  11.412  20.396  0.00  0.00    +0.000 A 
ATOM     30  C   UNL     1       9.623  12.750  20.775  0.00  0.00    +0.000 A 
ATOM     31  C   UNL     1       9.504  13.749  19.816  0.00  0.00    +0.000 A 
ATOM     32  F   UNL     1       9.601  15.033  20.184  0.00  0.00    +0.000 F 
ATOM     33  C   UNL     1       9.287  13.433  18.481  0.00  0.00    +0.000 A 
ATOM     34  C   UNL     1       9.179  12.094  18.098  0.00  0.00    +0.000 A 
ENDBRANCH  27  28
ENDBRANCH  25  27
ENDBRANCH  24  25
ENDBRANCH   2  24
TORSDOF 9
ENDMDL
