MODEL 1
REMARK VINA RESULT:      -9.2      0.000      0.000
REMARK  Name = 
REMARK  6 active torsions:
REMARK  status: ('A' for Active; 'I' for Inactive)
REMARK    1  A    between atoms: C_2  and  C_3
REMARK    2  A    between atoms: C_4  and  C_5
REMARK    3  A    between atoms: C_8  and  N_9
REMARK    4  A    between atoms: N_17  and  C_18
REMARK    5  A    between atoms: C_23  and  C_24
REMARK    6  A    between atoms: C_24  and  O_26
REMARK                            x       y       z     vdW  Elec       q    Type
REMARK                         _______ _______ _______ _____ _____    ______ ____
ROOT
ATOM      1  O   UNL     1       7.952   6.716  18.551  0.00  0.00    +0.000 OA
ATOM      2  C   UNL     1       7.427   7.534  17.803  0.00  0.00    +0.000 C 
ATOM      3  N   UNL     1       6.278   7.346  17.059  0.00  0.00    +0.000 N 
ATOM      4  H   UNL     1       6.083   8.015  16.313  0.00  0.00    +0.000 HD
ENDROOT
BRANCH   3   5
ATOM      5  C   UNL     1       5.409   6.218  17.116  0.00  0.00    +0.000 A 
ATOM      6  C   UNL     1       4.119   6.324  17.658  0.00  0.00    +0.000 A 
ATOM      7  C   UNL     1       3.256   5.228  17.713  0.00  0.00    +0.000 A 
ATOM      8  C   UNL     1       3.662   3.995  17.223  0.00  0.00    +0.000 A 
ATOM      9  C   UNL     1       4.937   3.857  16.676  0.00  0.00    +0.000 A 
ATOM     10  C   UNL     1       5.808   4.963  16.597  0.00  0.00    +0.000 A 
BRANCH  10  11
ATOM     11  C   UNL     1       7.170   4.781  16.023  0.00  0.00    +0.000 C 
ATOM     12  O   UNL     1       7.467   5.149  14.898  0.00  0.00    +0.000 OA
BRANCH  11  13
ATOM     13  O   UNL     1       8.038   4.119  16.819  0.00  0.00    +0.000 OA
ATOM     14  H   UNL     1       7.976   4.309  17.773  0.00  0.00    +0.000 HD
ENDBRANCH  11  13
ENDBRANCH  10  11
ENDBRANCH   3   5
BRANCH   2  15
ATOM     15  C   UNL     1       8.040   8.878  17.617  0.00  0.00    +0.000 C 
ATOM     16  C   UNL     1       8.694   9.445  18.649  0.00  0.00    +0.000 C 
BRANCH  16  17
ATOM     17  C   UNL     1       9.324  10.771  18.623  0.00  0.00    +0.000 A 
ATOM     18  C   UNL     1       8.767  11.786  17.845  0.00  0.00    +0.000 A 
ATOM     19  C   UNL     1       9.313  13.081  17.845  0.00  0.00    +0.000 A 
ATOM     20  C   UNL     1      10.433  13.400  18.621  0.00  0.00    +0.000 A 
ATOM     21  C   UNL     1      10.976  12.373  19.404  0.00  0.00    +0.000 A 
ATOM     22  C   UNL     1      10.429  11.081  19.418  0.00  0.00    +0.000 A 
BRANCH  20  23
ATOM     23  N   UNL     1      10.983  14.669  18.682  0.00  0.00    +0.000 N 
ATOM     24  C   UNL     1      10.345  15.774  19.410  0.00  0.00    +0.000 C 
ATOM     25  C   UNL     1       9.720  16.789  18.443  0.00  0.00    +0.000 C 
ATOM     26  O   UNL     1      10.676  17.253  17.475  0.00  0.00    +0.000 OA
ATOM     27  C   UNL     1      11.176  16.147  16.705  0.00  0.00    +0.000 C 
ATOM     28  C   UNL     1      11.879  15.107  17.593  0.00  0.00    +0.000 C 
ENDBRANCH  20  23
ENDBRANCH  16  17
ENDBRANCH   2  15
TORSDOF 6
ENDMDL
MODEL 2
REMARK VINA RESULT:      -8.2      1.112      1.340
REMARK  Name = 
REMARK  6 active torsions:
REMARK  status: ('A' for Active; 'I' for Inactive)
REMARK    1  A    between atoms: C_2  and  C_3
REMARK    2  A    between atoms: C_4  and  C_5
REMARK    3  A    between atoms: C_8  and  N_9
REMARK    4  A    between atoms: N_17  and  C_18
REMARK    5  A    between atoms: C_23  and  C_24
REMARK    6  A    between atoms: C_24  and  O_26
REMARK                            x       y       z     vdW  Elec       q    Type
REMARK                         _______ _______ _______ _____ _____    ______ ____
ROOT
ATOM      1  O   UNL     1       8.370   6.505  18.859  0.00  0.00    +0.000 OA
ATOM      2  C   UNL     1       7.696   7.292  18.204  0.00  0.00    +0.000 C 
ATOM      3  N   UNL     1       6.484   7.024  17.594  0.00  0.00    +0.000 N 
ATOM      4  H   UNL     1       6.148   7.690  16.897  0.00  0.00    +0.000 HD
ENDROOT
BRANCH   3   5
ATOM      5  C   UNL     1       5.722   5.826  17.719  0.00  0.00    +0.000 A 
ATOM      6  C   UNL     1       5.387   5.308  18.980  0.00  0.00    +0.000 A 
ATOM      7  C   UNL     1       4.635   4.141  19.115  0.00  0.00    +0.000 A 
ATOM      8  C   UNL     1       4.195   3.460  17.990  0.00  0.00    +0.000 A 
ATOM      9  C   UNL     1       4.509   3.949  16.722  0.00  0.00    +0.000 A 
ATOM     10  C   UNL     1       5.250   5.139  16.575  0.00  0.00    +0.000 A 
BRANCH  10  11
ATOM     11  C   UNL     1       5.585   5.628  15.209  0.00  0.00    +0.000 C 
ATOM     12  O   UNL     1       6.223   4.965  14.407  0.00  0.00    +0.000 OA
BRANCH  11  13
ATOM     13  O   UNL     1       5.184   6.891  14.944  0.00  0.00    +0.000 OA
ATOM     14  H   UNL     1       5.876   7.504  14.637  0.00  0.00    +0.000 HD
ENDBRANCH  11  13
ENDBRANCH  10  11
ENDBRANCH   3   5
BRANCH   2  15
ATOM     15  C   UNL     1       8.171   8.686  17.988  0.00  0.00    +0.000 C 
ATOM     16  C   UNL     1       8.870   9.294  18.964  0.00  0.00    +0.000 C 
BRANCH  16  17
ATOM     17  C   UNL     1       9.381  10.671  18.906  0.00  0.00    +0.000 A 
ATOM     18  C   UNL     1       8.940  11.529  17.898  0.00  0.00    +0.000 A 
ATOM     19  C   UNL     1       9.364  12.868  17.850  0.00  0.00    +0.000 A 
ATOM     20  C   UNL     1      10.244  13.388  18.806  0.00  0.00    +0.000 A 
ATOM     21  C   UNL     1      10.671  12.516  19.817  0.00  0.00    +0.000 A 
ATOM     22  C   UNL     1      10.242  11.183  19.878  0.00  0.00    +0.000 A 
BRANCH  20  23
ATOM     23  N   UNL     1      10.661  14.708  18.821  0.00  0.00    +0.000 N 
ATOM     24  C   UNL     1       9.771  15.824  18.470  0.00  0.00    +0.000 C 
ATOM     25  C   UNL     1      10.119  16.400  17.091  0.00  0.00    +0.000 C 
ATOM     26  O   UNL     1      11.507  16.762  17.006  0.00  0.00    +0.000 OA
ATOM     27  C   UNL     1      12.333  15.608  17.233  0.00  0.00    +0.000 C 
ATOM     28  C   UNL     1      12.095  15.002  18.626  0.00  0.00    +0.000 C 
ENDBRANCH  20  23
ENDBRANCH  16  17
ENDBRANCH   2  15
TORSDOF 6
ENDMDL
MODEL 3
REMARK VINA RESULT:      -8.1      1.389      2.291
REMARK  Name = 
REMARK  6 active torsions:
REMARK  status: ('A' for Active; 'I' for Inactive)
REMARK    1  A    between atoms: C_2  and  C_3
REMARK    2  A    between atoms: C_4  and  C_5
REMARK    3  A    between atoms: C_8  and  N_9
REMARK    4  A    between atoms: N_17  and  C_18
REMARK    5  A    between atoms: C_23  and  C_24
REMARK    6  A    between atoms: C_24  and  O_26
REMARK                            x       y       z     vdW  Elec       q    Type
REMARK                         _______ _______ _______ _____ _____    ______ ____
ROOT
ATOM      1  O   UNL     1       8.094   6.724  18.513  0.00  0.00    +0.000 OA
ATOM      2  C   UNL     1       7.527   7.508  17.760  0.00  0.00    +0.000 C 
ATOM      3  N   UNL     1       6.576   7.189  16.809  0.00  0.00    +0.000 N 
ATOM      4  H   UNL     1       6.359   7.892  16.102  0.00  0.00    +0.000 HD
ENDROOT
BRANCH   3   5
ATOM      5  C   UNL     1       5.974   5.912  16.611  0.00  0.00    +0.000 A 
ATOM      6  C   UNL     1       6.619   4.915  15.863  0.00  0.00    +0.000 A 
ATOM      7  C   UNL     1       6.043   3.658  15.669  0.00  0.00    +0.000 A 
ATOM      8  C   UNL     1       4.805   3.365  16.222  0.00  0.00    +0.000 A 
ATOM      9  C   UNL     1       4.140   4.333  16.973  0.00  0.00    +0.000 A 
ATOM     10  C   UNL     1       4.722   5.598  17.192  0.00  0.00    +0.000 A 
BRANCH  10  11
ATOM     11  C   UNL     1       3.980   6.617  17.984  0.00  0.00    +0.000 C 
ATOM     12  O   UNL     1       3.705   7.722  17.546  0.00  0.00    +0.000 OA
BRANCH  11  13
ATOM     13  O   UNL     1       3.689   6.251  19.252  0.00  0.00    +0.000 OA
ATOM     14  H   UNL     1       2.811   6.512  19.583  0.00  0.00    +0.000 HD
ENDBRANCH  11  13
ENDBRANCH  10  11
ENDBRANCH   3   5
BRANCH   2  15
ATOM     15  C   UNL     1       7.855   8.959  17.805  0.00  0.00    +0.000 C 
ATOM     16  C   UNL     1       8.867   9.375  18.588  0.00  0.00    +0.000 C 
BRANCH  16  17
ATOM     17  C   UNL     1       9.289  10.772  18.754  0.00  0.00    +0.000 A 
ATOM     18  C   UNL     1      10.154  11.114  19.794  0.00  0.00    +0.000 A 
ATOM     19  C   UNL     1      10.621  12.430  19.944  0.00  0.00    +0.000 A 
ATOM     20  C   UNL     1      10.237  13.446  19.062  0.00  0.00    +0.000 A 
ATOM     21  C   UNL     1       9.374  13.085  18.017  0.00  0.00    +0.000 A 
ATOM     22  C   UNL     1       8.913  11.771  17.854  0.00  0.00    +0.000 A 
BRANCH  20  23
ATOM     23  N   UNL     1      10.699  14.748  19.148  0.00  0.00    +0.000 N 
ATOM     24  C   UNL     1       9.824  15.912  18.951  0.00  0.00    +0.000 C 
ATOM     25  C   UNL     1      10.091  16.587  17.599  0.00  0.00    +0.000 C 
ATOM     26  O   UNL     1      11.481  16.915  17.439  0.00  0.00    +0.000 OA
ATOM     27  C   UNL     1      12.282  15.724  17.514  0.00  0.00    +0.000 C 
ATOM     28  C   UNL     1      12.124  15.016  18.870  0.00  0.00    +0.000 C 
ENDBRANCH  20  23
ENDBRANCH  16  17
ENDBRANCH   2  15
TORSDOF 6
ENDMDL
MODEL 4
REMARK VINA RESULT:      -8.1      1.436      2.172
REMARK  Name = 
REMARK  6 active torsions:
REMARK  status: ('A' for Active; 'I' for Inactive)
REMARK    1  A    between atoms: C_2  and  C_3
REMARK    2  A    between atoms: C_4  and  C_5
REMARK    3  A    between atoms: C_8  and  N_9
REMARK    4  A    between atoms: N_17  and  C_18
REMARK    5  A    between atoms: C_23  and  C_24
REMARK    6  A    between atoms: C_24  and  O_26
REMARK                            x       y       z     vdW  Elec       q    Type
REMARK                         _______ _______ _______ _____ _____    ______ ____
ROOT
ATOM      1  O   UNL     1       8.032   6.661  18.591  0.00  0.00    +0.000 OA
ATOM      2  C   UNL     1       7.624   7.466  17.762  0.00  0.00    +0.000 C 
ATOM      3  N   UNL     1       6.861   7.178  16.646  0.00  0.00    +0.000 N 
ATOM      4  H   UNL     1       6.786   7.897  15.925  0.00  0.00    +0.000 HD
ENDROOT
BRANCH   3   5
ATOM      5  C   UNL     1       6.291   5.914  16.315  0.00  0.00    +0.000 A 
ATOM      6  C   UNL     1       6.921   5.051  15.405  0.00  0.00    +0.000 A 
ATOM      7  C   UNL     1       6.377   3.808  15.079  0.00  0.00    +0.000 A 
ATOM      8  C   UNL     1       5.186   3.393  15.658  0.00  0.00    +0.000 A 
ATOM      9  C   UNL     1       4.536   4.227  16.568  0.00  0.00    +0.000 A 
ATOM     10  C   UNL     1       5.088   5.475  16.920  0.00  0.00    +0.000 A 
BRANCH  10  11
ATOM     11  C   UNL     1       4.363   6.351  17.881  0.00  0.00    +0.000 C 
ATOM     12  O   UNL     1       3.907   7.439  17.569  0.00  0.00    +0.000 OA
BRANCH  11  13
ATOM     13  O   UNL     1       4.304   5.879  19.146  0.00  0.00    +0.000 OA
ATOM     14  H   UNL     1       4.986   5.229  19.393  0.00  0.00    +0.000 HD
ENDBRANCH  11  13
ENDBRANCH  10  11
ENDBRANCH   3   5
BRANCH   2  15
ATOM     15  C   UNL     1       7.954   8.911  17.896  0.00  0.00    +0.000 C 
ATOM     16  C   UNL     1       8.895   9.285  18.783  0.00  0.00    +0.000 C 
BRANCH  16  17
ATOM     17  C   UNL     1       9.308  10.670  19.043  0.00  0.00    +0.000 A 
ATOM     18  C   UNL     1       9.303  11.600  18.003  0.00  0.00    +0.000 A 
ATOM     19  C   UNL     1       9.637  12.945  18.233  0.00  0.00    +0.000 A 
ATOM     20  C   UNL     1       9.988  13.402  19.508  0.00  0.00    +0.000 A 
ATOM     21  C   UNL     1       9.980  12.458  20.544  0.00  0.00    +0.000 A 
ATOM     22  C   UNL     1       9.637  11.117  20.325  0.00  0.00    +0.000 A 
BRANCH  20  23
ATOM     23  N   UNL     1      10.289  14.724  19.790  0.00  0.00    +0.000 N 
ATOM     24  C   UNL     1       9.375  15.829  19.469  0.00  0.00    +0.000 C 
ATOM     25  C   UNL     1       9.882  16.639  18.269  0.00  0.00    +0.000 C 
ATOM     26  O   UNL     1      11.233  17.088  18.469  0.00  0.00    +0.000 OA
ATOM     27  C   UNL     1      12.106  15.961  18.653  0.00  0.00    +0.000 C 
ATOM     28  C   UNL     1      11.706  15.126  19.880  0.00  0.00    +0.000 C 
ENDBRANCH  20  23
ENDBRANCH  16  17
ENDBRANCH   2  15
TORSDOF 6
ENDMDL
MODEL 5
REMARK VINA RESULT:      -8.0      1.142      1.649
REMARK  Name = 
REMARK  6 active torsions:
REMARK  status: ('A' for Active; 'I' for Inactive)
REMARK    1  A    between atoms: C_2  and  C_3
REMARK    2  A    between atoms: C_4  and  C_5
REMARK    3  A    between atoms: C_8  and  N_9
REMARK    4  A    between atoms: N_17  and  C_18
REMARK    5  A    between atoms: C_23  and  C_24
REMARK    6  A    between atoms: C_24  and  O_26
REMARK                            x       y       z     vdW  Elec       q    Type
REMARK                         _______ _______ _______ _____ _____    ______ ____
ROOT
ATOM      1  O   UNL     1       8.385   6.581  18.880  0.00  0.00    +0.000 OA
ATOM      2  C   UNL     1       7.715   7.351  18.201  0.00  0.00    +0.000 C 
ATOM      3  N   UNL     1       6.502   7.072  17.600  0.00  0.00    +0.000 N 
ATOM      4  H   UNL     1       6.170   7.717  16.882  0.00  0.00    +0.000 HD
ENDROOT
BRANCH   3   5
ATOM      5  C   UNL     1       5.732   5.883  17.762  0.00  0.00    +0.000 A 
ATOM      6  C   UNL     1       5.466   5.361  19.037  0.00  0.00    +0.000 A 
ATOM      7  C   UNL     1       4.707   4.202  19.209  0.00  0.00    +0.000 A 
ATOM      8  C   UNL     1       4.193   3.535  18.107  0.00  0.00    +0.000 A 
ATOM      9  C   UNL     1       4.438   4.029  16.827  0.00  0.00    +0.000 A 
ATOM     10  C   UNL     1       5.185   5.210  16.643  0.00  0.00    +0.000 A 
BRANCH  10  11
ATOM     11  C   UNL     1       5.446   5.704  15.263  0.00  0.00    +0.000 C 
ATOM     12  O   UNL     1       5.241   6.859  14.925  0.00  0.00    +0.000 OA
BRANCH  11  13
ATOM     13  O   UNL     1       5.866   4.761  14.392  0.00  0.00    +0.000 OA
ATOM     14  H   UNL     1       6.770   4.870  14.046  0.00  0.00    +0.000 HD
ENDBRANCH  11  13
ENDBRANCH  10  11
ENDBRANCH   3   5
BRANCH   2  15
ATOM     15  C   UNL     1       8.199   8.734  17.941  0.00  0.00    +0.000 C 
ATOM     16  C   UNL     1       8.881   9.378  18.907  0.00  0.00    +0.000 C 
BRANCH  16  17
ATOM     17  C   UNL     1       9.397  10.750  18.807  0.00  0.00    +0.000 A 
ATOM     18  C   UNL     1      10.428  11.163  19.651  0.00  0.00    +0.000 A 
ATOM     19  C   UNL     1      10.983  12.450  19.540  0.00  0.00    +0.000 A 
ATOM     20  C   UNL     1      10.522  13.363  18.585  0.00  0.00    +0.000 A 
ATOM     21  C   UNL     1       9.491  12.930  17.739  0.00  0.00    +0.000 A 
ATOM     22  C   UNL     1       8.941  11.644  17.836  0.00  0.00    +0.000 A 
BRANCH  20  23
ATOM     23  N   UNL     1      11.060  14.626  18.414  0.00  0.00    +0.000 N 
ATOM     24  C   UNL     1      11.526  15.447  19.541  0.00  0.00    +0.000 C 
ATOM     25  C   UNL     1      10.555  16.600  19.828  0.00  0.00    +0.000 C 
ATOM     26  O   UNL     1      10.304  17.383  18.650  0.00  0.00    +0.000 OA
ATOM     27  C   UNL     1       9.731  16.559  17.621  0.00  0.00    +0.000 C 
ATOM     28  C   UNL     1      10.672  15.409  17.224  0.00  0.00    +0.000 C 
ENDBRANCH  20  23
ENDBRANCH  16  17
ENDBRANCH   2  15
TORSDOF 6
ENDMDL
MODEL 6
REMARK VINA RESULT:      -8.0      0.951      1.434
REMARK  Name = 
REMARK  6 active torsions:
REMARK  status: ('A' for Active; 'I' for Inactive)
REMARK    1  A    between atoms: C_2  and  C_3
REMARK    2  A    between atoms: C_4  and  C_5
REMARK    3  A    between atoms: C_8  and  N_9
REMARK    4  A    between atoms: N_17  and  C_18
REMARK    5  A    between atoms: C_23  and  C_24
REMARK    6  A    between atoms: C_24  and  O_26
REMARK                            x       y       z     vdW  Elec       q    Type
REMARK                         _______ _______ _______ _____ _____    ______ ____
ROOT
ATOM      1  O   UNL     1       7.862   6.602  18.389  0.00  0.00    +0.000 OA
ATOM      2  C   UNL     1       7.212   7.385  17.706  0.00  0.00    +0.000 C 
ATOM      3  N   UNL     1       6.046   7.103  17.019  0.00  0.00    +0.000 N 
ATOM      4  H   UNL     1       5.739   7.773  16.313  0.00  0.00    +0.000 HD
ENDROOT
BRANCH   3   5
ATOM      5  C   UNL     1       5.303   5.888  17.079  0.00  0.00    +0.000 A 
ATOM      6  C   UNL     1       4.195   5.757  17.930  0.00  0.00    +0.000 A 
ATOM      7  C   UNL     1       3.455   4.576  17.992  0.00  0.00    +0.000 A 
ATOM      8  C   UNL     1       3.804   3.491  17.200  0.00  0.00    +0.000 A 
ATOM      9  C   UNL     1       4.899   3.590  16.342  0.00  0.00    +0.000 A 
ATOM     10  C   UNL     1       5.640   4.786  16.257  0.00  0.00    +0.000 A 
BRANCH  10  11
ATOM     11  C   UNL     1       6.814   4.856  15.344  0.00  0.00    +0.000 C 
ATOM     12  O   UNL     1       6.715   5.142  14.161  0.00  0.00    +0.000 OA
BRANCH  11  13
ATOM     13  O   UNL     1       7.994   4.516  15.908  0.00  0.00    +0.000 OA
ATOM     14  H   UNL     1       8.029   3.639  16.331  0.00  0.00    +0.000 HD
ENDBRANCH  11  13
ENDBRANCH  10  11
ENDBRANCH   3   5
BRANCH   2  15
ATOM     15  C   UNL     1       7.670   8.792  17.541  0.00  0.00    +0.000 C 
ATOM     16  C   UNL     1       8.548   9.300  18.426  0.00  0.00    +0.000 C 
BRANCH  16  17
ATOM     17  C   UNL     1       9.068  10.673  18.407  0.00  0.00    +0.000 A 
ATOM     18  C   UNL     1       8.520  11.608  17.528  0.00  0.00    +0.000 A 
ATOM     19  C   UNL     1       8.957  12.944  17.527  0.00  0.00    +0.000 A 
ATOM     20  C   UNL     1       9.955  13.385  18.402  0.00  0.00    +0.000 A 
ATOM     21  C   UNL     1      10.490  12.437  19.285  0.00  0.00    +0.000 A 
ATOM     22  C   UNL     1      10.051  11.105  19.300  0.00  0.00    +0.000 A 
BRANCH  20  23
ATOM     23  N   UNL     1      10.392  14.698  18.462  0.00  0.00    +0.000 N 
ATOM     24  C   UNL     1      11.814  15.062  18.404  0.00  0.00    +0.000 C 
ATOM     25  C   UNL     1      12.333  15.500  19.780  0.00  0.00    +0.000 C 
ATOM     26  O   UNL     1      11.524  16.548  20.338  0.00  0.00    +0.000 OA
ATOM     27  C   UNL     1      10.168  16.097  20.492  0.00  0.00    +0.000 C 
ATOM     28  C   UNL     1       9.545  15.697  19.144  0.00  0.00    +0.000 C 
ENDBRANCH  20  23
ENDBRANCH  16  17
ENDBRANCH   2  15
TORSDOF 6
ENDMDL
MODEL 7
REMARK VINA RESULT:      -7.9      1.245      1.681
REMARK  Name = 
REMARK  6 active torsions:
REMARK  status: ('A' for Active; 'I' for Inactive)
REMARK    1  A    between atoms: C_2  and  C_3
REMARK    2  A    between atoms: C_4  and  C_5
REMARK    3  A    between atoms: C_8  and  N_9
REMARK    4  A    between atoms: N_17  and  C_18
REMARK    5  A    between atoms: C_23  and  C_24
REMARK    6  A    between atoms: C_24  and  O_26
REMARK                            x       y       z     vdW  Elec       q    Type
REMARK                         _______ _______ _______ _____ _____    ______ ____
ROOT
ATOM      1  O   UNL     1       8.084   6.121  17.540  0.00  0.00    +0.000 OA
ATOM      2  C   UNL     1       7.340   7.089  17.640  0.00  0.00    +0.000 C 
ATOM      3  N   UNL     1       5.960   7.059  17.720  0.00  0.00    +0.000 N 
ATOM      4  H   UNL     1       5.458   7.934  17.568  0.00  0.00    +0.000 HD
ENDROOT
BRANCH   3   5
ATOM      5  C   UNL     1       5.146   5.894  17.836  0.00  0.00    +0.000 A 
ATOM      6  C   UNL     1       4.633   5.490  19.078  0.00  0.00    +0.000 A 
ATOM      7  C   UNL     1       3.829   4.356  19.203  0.00  0.00    +0.000 A 
ATOM      8  C   UNL     1       3.514   3.596  18.085  0.00  0.00    +0.000 A 
ATOM      9  C   UNL     1       4.007   3.973  16.836  0.00  0.00    +0.000 A 
ATOM     10  C   UNL     1       4.803   5.128  16.696  0.00  0.00    +0.000 A 
BRANCH  10  11
ATOM     11  C   UNL     1       5.329   5.496  15.353  0.00  0.00    +0.000 C 
ATOM     12  O   UNL     1       5.905   4.701  14.628  0.00  0.00    +0.000 OA
BRANCH  11  13
ATOM     13  O   UNL     1       5.177   6.797  15.020  0.00  0.00    +0.000 OA
ATOM     14  H   UNL     1       5.105   7.423  15.762  0.00  0.00    +0.000 HD
ENDBRANCH  11  13
ENDBRANCH  10  11
ENDBRANCH   3   5
BRANCH   2  15
ATOM     15  C   UNL     1       7.903   8.467  17.669  0.00  0.00    +0.000 C 
ATOM     16  C   UNL     1       8.588   8.868  18.756  0.00  0.00    +0.000 C 
BRANCH  16  17
ATOM     17  C   UNL     1       9.178  10.201  18.939  0.00  0.00    +0.000 A 
ATOM     18  C   UNL     1       9.505  10.642  20.221  0.00  0.00    +0.000 A 
ATOM     19  C   UNL     1      10.124  11.887  20.423  0.00  0.00    +0.000 A 
ATOM     20  C   UNL     1      10.432  12.731  19.350  0.00  0.00    +0.000 A 
ATOM     21  C   UNL     1      10.105  12.271  18.067  0.00  0.00    +0.000 A 
ATOM     22  C   UNL     1       9.498  11.024  17.857  0.00  0.00    +0.000 A 
BRANCH  20  23
ATOM     23  N   UNL     1      11.073  13.949  19.497  0.00  0.00    +0.000 N 
ATOM     24  C   UNL     1      10.756  14.885  20.585  0.00  0.00    +0.000 C 
ATOM     25  C   UNL     1       9.962  16.091  20.066  0.00  0.00    +0.000 C 
ATOM     26  O   UNL     1      10.636  16.735  18.972  0.00  0.00    +0.000 OA
ATOM     27  C   UNL     1      10.809  15.810  17.886  0.00  0.00    +0.000 C 
ATOM     28  C   UNL     1      11.654  14.594  18.302  0.00  0.00    +0.000 C 
ENDBRANCH  20  23
ENDBRANCH  16  17
ENDBRANCH   2  15
TORSDOF 6
ENDMDL
MODEL 8
REMARK VINA RESULT:      -7.9      1.590      2.469
REMARK  Name = 
REMARK  6 active torsions:
REMARK  status: ('A' for Active; 'I' for Inactive)
REMARK    1  A    between atoms: C_2  and  C_3
REMARK    2  A    between atoms: C_4  and  C_5
REMARK    3  A    between atoms: C_8  and  N_9
REMARK    4  A    between atoms: N_17  and  C_18
REMARK    5  A    between atoms: C_23  and  C_24
REMARK    6  A    between atoms: C_24  and  O_26
REMARK                            x       y       z     vdW  Elec       q    Type
REMARK                         _______ _______ _______ _____ _____    ______ ____
ROOT
ATOM      1  O   UNL     1       8.075   6.638  18.554  0.00  0.00    +0.000 OA
ATOM      2  C   UNL     1       7.638   7.454  17.749  0.00  0.00    +0.000 C 
ATOM      3  N   UNL     1       6.847   7.178  16.649  0.00  0.00    +0.000 N 
ATOM      4  H   UNL     1       6.748   7.908  15.943  0.00  0.00    +0.000 HD
ENDROOT
BRANCH   3   5
ATOM      5  C   UNL     1       6.277   5.915  16.313  0.00  0.00    +0.000 A 
ATOM      6  C   UNL     1       6.908   5.056  15.401  0.00  0.00    +0.000 A 
ATOM      7  C   UNL     1       6.364   3.814  15.070  0.00  0.00    +0.000 A 
ATOM      8  C   UNL     1       5.173   3.397  15.646  0.00  0.00    +0.000 A 
ATOM      9  C   UNL     1       4.523   4.227  16.559  0.00  0.00    +0.000 A 
ATOM     10  C   UNL     1       5.074   5.474  16.915  0.00  0.00    +0.000 A 
BRANCH  10  11
ATOM     11  C   UNL     1       4.349   6.347  17.879  0.00  0.00    +0.000 C 
ATOM     12  O   UNL     1       3.939   7.458  17.586  0.00  0.00    +0.000 OA
BRANCH  11  13
ATOM     13  O   UNL     1       4.234   5.841  19.128  0.00  0.00    +0.000 OA
ATOM     14  H   UNL     1       3.359   5.934  19.548  0.00  0.00    +0.000 HD
ENDBRANCH  11  13
ENDBRANCH  10  11
ENDBRANCH   3   5
BRANCH   2  15
ATOM     15  C   UNL     1       7.962   8.899  17.897  0.00  0.00    +0.000 C 
ATOM     16  C   UNL     1       8.902   9.268  18.787  0.00  0.00    +0.000 C 
BRANCH  16  17
ATOM     17  C   UNL     1       9.309  10.653  19.062  0.00  0.00    +0.000 A 
ATOM     18  C   UNL     1       9.521  11.062  20.378  0.00  0.00    +0.000 A 
ATOM     19  C   UNL     1       9.967  12.363  20.669  0.00  0.00    +0.000 A 
ATOM     20  C   UNL     1      10.212  13.294  19.654  0.00  0.00    +0.000 A 
ATOM     21  C   UNL     1      10.002  12.865  18.336  0.00  0.00    +0.000 A 
ATOM     22  C   UNL     1       9.569  11.565  18.037  0.00  0.00    +0.000 A 
BRANCH  20  23
ATOM     23  N   UNL     1      10.686  14.573  19.888  0.00  0.00    +0.000 N 
ATOM     24  C   UNL     1      10.624  15.209  21.212  0.00  0.00    +0.000 C 
ATOM     25  C   UNL     1       9.540  16.294  21.257  0.00  0.00    +0.000 C 
ATOM     26  O   UNL     1       9.709  17.252  20.199  0.00  0.00    +0.000 OA
ATOM     27  C   UNL     1       9.635  16.595  18.922  0.00  0.00    +0.000 C 
ATOM     28  C   UNL     1      10.733  15.530  18.766  0.00  0.00    +0.000 C 
ENDBRANCH  20  23
ENDBRANCH  16  17
ENDBRANCH   2  15
TORSDOF 6
ENDMDL
MODEL 9
REMARK VINA RESULT:      -7.9      1.360      1.767
REMARK  Name = 
REMARK  6 active torsions:
REMARK  status: ('A' for Active; 'I' for Inactive)
REMARK    1  A    between atoms: C_2  and  C_3
REMARK    2  A    between atoms: C_4  and  C_5
REMARK    3  A    between atoms: C_8  and  N_9
REMARK    4  A    between atoms: N_17  and  C_18
REMARK    5  A    between atoms: C_23  and  C_24
REMARK    6  A    between atoms: C_24  and  O_26
REMARK                            x       y       z     vdW  Elec       q    Type
REMARK                         _______ _______ _______ _____ _____    ______ ____
ROOT
ATOM      1  O   UNL     1       8.074   5.155  17.561  0.00  0.00    +0.000 OA
ATOM      2  C   UNL     1       7.456   6.088  18.062  0.00  0.00    +0.000 C 
ATOM      3  N   UNL     1       6.090   6.153  18.265  0.00  0.00    +0.000 N 
ATOM      4  H   UNL     1       5.686   7.067  18.475  0.00  0.00    +0.000 HD
ENDROOT
BRANCH   3   5
ATOM      5  C   UNL     1       5.153   5.100  18.054  0.00  0.00    +0.000 A 
ATOM      6  C   UNL     1       4.610   4.386  19.133  0.00  0.00    +0.000 A 
ATOM      7  C   UNL     1       3.686   3.358  18.940  0.00  0.00    +0.000 A 
ATOM      8  C   UNL     1       3.280   3.018  17.658  0.00  0.00    +0.000 A 
ATOM      9  C   UNL     1       3.799   3.709  16.564  0.00  0.00    +0.000 A 
ATOM     10  C   UNL     1       4.717   4.763  16.750  0.00  0.00    +0.000 A 
BRANCH  10  11
ATOM     11  C   UNL     1       5.268   5.471  15.562  0.00  0.00    +0.000 C 
ATOM     12  O   UNL     1       5.881   4.898  14.677  0.00  0.00    +0.000 OA
BRANCH  11  13
ATOM     13  O   UNL     1       5.094   6.812  15.569  0.00  0.00    +0.000 OA
ATOM     14  H   UNL     1       4.685   7.186  16.370  0.00  0.00    +0.000 HD
ENDBRANCH  11  13
ENDBRANCH  10  11
ENDBRANCH   3   5
BRANCH   2  15
ATOM     15  C   UNL     1       8.179   7.311  18.507  0.00  0.00    +0.000 C 
ATOM     16  C   UNL     1       7.893   8.487  17.918  0.00  0.00    +0.000 C 
BRANCH  16  17
ATOM     17  C   UNL     1       8.540   9.768  18.231  0.00  0.00    +0.000 A 
ATOM     18  C   UNL     1       8.216  10.905  17.490  0.00  0.00    +0.000 A 
ATOM     19  C   UNL     1       8.773  12.157  17.803  0.00  0.00    +0.000 A 
ATOM     20  C   UNL     1       9.673  12.310  18.864  0.00  0.00    +0.000 A 
ATOM     21  C   UNL     1       9.981  11.160  19.605  0.00  0.00    +0.000 A 
ATOM     22  C   UNL     1       9.420   9.911  19.306  0.00  0.00    +0.000 A 
BRANCH  20  23
ATOM     23  N   UNL     1      10.219  13.527  19.233  0.00  0.00    +0.000 N 
ATOM     24  C   UNL     1       9.414  14.751  19.356  0.00  0.00    +0.000 C 
ATOM     25  C   UNL     1       9.681  15.711  18.189  0.00  0.00    +0.000 C 
ATOM     26  O   UNL     1      11.083  15.992  18.048  0.00  0.00    +0.000 OA
ATOM     27  C   UNL     1      11.808  14.776  17.804  0.00  0.00    +0.000 C 
ATOM     28  C   UNL     1      11.649  13.776  18.961  0.00  0.00    +0.000 C 
ENDBRANCH  20  23
ENDBRANCH  16  17
ENDBRANCH   2  15
TORSDOF 6
ENDMDL
