MODEL 1
REMARK VINA RESULT:      -5.7      0.000      0.000
REMARK  Name = 
REMARK  3 active torsions:
REMARK  status: ('A' for Active; 'I' for Inactive)
REMARK    1  A    between atoms: C_7  and  O_8
REMARK    2  A    between atoms: O_8  and  C_9
REMARK    3  A    between atoms: C_9  and  C_10
REMARK                            x       y       z     vdW  Elec       q    Type
REMARK                         _______ _______ _______ _____ _____    ______ ____
ROOT
ATOM      1  C   UNL     1       7.620   7.235  17.780  0.00  0.00    +0.000 C 
ATOM      2  C   UNL     1       6.985   6.063  17.909  0.00  0.00    +0.000 C 
ATOM      3  C   UNL     1       6.946   5.307  19.177  0.00  0.00    +0.000 C 
ATOM      4  O   UNL     1       7.624   5.521  20.164  0.00  0.00    +0.000 OA
ATOM      5  O   UNL     1       6.011   4.326  19.053  0.00  0.00    +0.000 OA
ATOM      6  C   UNL     1       5.278   4.512  17.831  0.00  0.00    +0.000 C 
ATOM      7  C   UNL     1       6.168   5.331  16.913  0.00  0.00    +0.000 C 
ENDROOT
BRANCH   7   8
ATOM      8  O   UNL     1       7.044   4.491  16.146  0.00  0.00    +0.000 OA
BRANCH   8   9
ATOM      9  C   UNL     1       7.059   4.768  14.814  0.00  0.00    +0.000 C 
ATOM     10  C   UNL     1       5.946   4.058  14.108  0.00  0.00    +0.000 C 
ATOM     11  O   UNL     1       7.838   5.540  14.272  0.00  0.00    +0.000 OA
ENDBRANCH   8   9
ENDBRANCH   7   8
TORSDOF 2
ENDMDL
MODEL 2
REMARK VINA RESULT:      -5.3      2.142      3.772
REMARK  Name = 
REMARK  3 active torsions:
REMARK  status: ('A' for Active; 'I' for Inactive)
REMARK    1  A    between atoms: C_7  and  O_8
REMARK    2  A    between atoms: O_8  and  C_9
REMARK    3  A    between atoms: C_9  and  C_10
REMARK                            x       y       z     vdW  Elec       q    Type
REMARK                         _______ _______ _______ _____ _____    ______ ____
ROOT
ATOM      1  C   UNL     1       5.419   5.651  15.638  0.00  0.00    +0.000 C 
ATOM      2  C   UNL     1       5.683   5.174  16.861  0.00  0.00    +0.000 C 
ATOM      3  C   UNL     1       7.017   4.683  17.259  0.00  0.00    +0.000 C 
ATOM      4  O   UNL     1       7.952   4.455  16.516  0.00  0.00    +0.000 OA
ATOM      5  O   UNL     1       7.022   4.533  18.612  0.00  0.00    +0.000 OA
ATOM      6  C   UNL     1       5.819   5.089  19.163  0.00  0.00    +0.000 C 
ATOM      7  C   UNL     1       4.793   5.096  18.044  0.00  0.00    +0.000 C 
ENDROOT
BRANCH   7   8
ATOM      8  O   UNL     1       4.075   3.854  17.982  0.00  0.00    +0.000 OA
BRANCH   8   9
ATOM      9  C   UNL     1       2.774   3.979  17.606  0.00  0.00    +0.000 C 
ATOM     10  C   UNL     1       2.204   5.281  18.076  0.00  0.00    +0.000 C 
ATOM     11  O   UNL     1       2.165   3.166  16.926  0.00  0.00    +0.000 OA
ENDBRANCH   8   9
ENDBRANCH   7   8
TORSDOF 2
ENDMDL
MODEL 3
REMARK VINA RESULT:      -5.3      1.757      4.166
REMARK  Name = 
REMARK  3 active torsions:
REMARK  status: ('A' for Active; 'I' for Inactive)
REMARK    1  A    between atoms: C_7  and  O_8
REMARK    2  A    between atoms: O_8  and  C_9
REMARK    3  A    between atoms: C_9  and  C_10
REMARK                            x       y       z     vdW  Elec       q    Type
REMARK                         _______ _______ _______ _____ _____    ______ ____
ROOT
ATOM      1  C   UNL     1       5.046   6.544  15.916  0.00  0.00    +0.000 C 
ATOM      2  C   UNL     1       5.928   5.660  16.400  0.00  0.00    +0.000 C 
ATOM      3  C   UNL     1       7.024   5.095  15.588  0.00  0.00    +0.000 C 
ATOM      4  O   UNL     1       7.145   5.180  14.381  0.00  0.00    +0.000 OA
ATOM      5  O   UNL     1       7.885   4.460  16.429  0.00  0.00    +0.000 OA
ATOM      6  C   UNL     1       7.525   4.743  17.791  0.00  0.00    +0.000 C 
ATOM      7  C   UNL     1       6.057   5.131  17.778  0.00  0.00    +0.000 C 
ENDROOT
BRANCH   7   8
ATOM      8  O   UNL     1       5.209   3.977  17.895  0.00  0.00    +0.000 OA
BRANCH   8   9
ATOM      9  C   UNL     1       4.712   3.774  19.145  0.00  0.00    +0.000 C 
ATOM     10  C   UNL     1       3.800   4.893  19.546  0.00  0.00    +0.000 C 
ATOM     11  O   UNL     1       4.930   2.785  19.829  0.00  0.00    +0.000 OA
ENDBRANCH   8   9
ENDBRANCH   7   8
TORSDOF 2
ENDMDL
MODEL 4
REMARK VINA RESULT:      -5.2      2.358      3.952
REMARK  Name = 
REMARK  3 active torsions:
REMARK  status: ('A' for Active; 'I' for Inactive)
REMARK    1  A    between atoms: C_7  and  O_8
REMARK    2  A    between atoms: O_8  and  C_9
REMARK    3  A    between atoms: C_9  and  C_10
REMARK                            x       y       z     vdW  Elec       q    Type
REMARK                         _______ _______ _______ _____ _____    ______ ____
ROOT
ATOM      1  C   UNL     1       5.416   4.960  15.501  0.00  0.00    +0.000 C 
ATOM      2  C   UNL     1       5.592   4.640  16.790  0.00  0.00    +0.000 C 
ATOM      3  C   UNL     1       6.926   4.508  17.408  0.00  0.00    +0.000 C 
ATOM      4  O   UNL     1       7.991   4.463  16.822  0.00  0.00    +0.000 OA
ATOM      5  O   UNL     1       6.759   4.452  18.757  0.00  0.00    +0.000 OA
ATOM      6  C   UNL     1       5.391   4.740  19.086  0.00  0.00    +0.000 C 
ATOM      7  C   UNL     1       4.573   4.429  17.845  0.00  0.00    +0.000 C 
ENDROOT
BRANCH   7   8
ATOM      8  O   UNL     1       4.174   3.050  17.812  0.00  0.00    +0.000 OA
BRANCH   8   9
ATOM      9  C   UNL     1       2.828   2.859  17.770  0.00  0.00    +0.000 C 
ATOM     10  C   UNL     1       2.360   2.079  18.959  0.00  0.00    +0.000 C 
ATOM     11  O   UNL     1       2.087   3.313  16.908  0.00  0.00    +0.000 OA
ENDBRANCH   8   9
ENDBRANCH   7   8
TORSDOF 2
ENDMDL
MODEL 5
REMARK VINA RESULT:      -5.2      3.460      5.227
REMARK  Name = 
REMARK  3 active torsions:
REMARK  status: ('A' for Active; 'I' for Inactive)
REMARK    1  A    between atoms: C_7  and  O_8
REMARK    2  A    between atoms: O_8  and  C_9
REMARK    3  A    between atoms: C_9  and  C_10
REMARK                            x       y       z     vdW  Elec       q    Type
REMARK                         _______ _______ _______ _____ _____    ______ ____
ROOT
ATOM      1  C   UNL     1       1.084   3.825  19.643  0.00  0.00    +0.000 C 
ATOM      2  C   UNL     1       2.283   3.417  20.079  0.00  0.00    +0.000 C 
ATOM      3  C   UNL     1       2.475   2.728  21.370  0.00  0.00    +0.000 C 
ATOM      4  O   UNL     1       1.655   2.631  22.264  0.00  0.00    +0.000 OA
ATOM      5  O   UNL     1       3.733   2.211  21.387  0.00  0.00    +0.000 OA
ATOM      6  C   UNL     1       4.329   2.349  20.088  0.00  0.00    +0.000 C 
ATOM      7  C   UNL     1       3.596   3.484  19.394  0.00  0.00    +0.000 C 
ENDROOT
BRANCH   7   8
ATOM      8  O   UNL     1       4.192   4.755  19.696  0.00  0.00    +0.000 OA
BRANCH   8   9
ATOM      9  C   UNL     1       5.400   4.960  19.103  0.00  0.00    +0.000 C 
ATOM     10  C   UNL     1       5.271   4.952  17.612  0.00  0.00    +0.000 C 
ATOM     11  O   UNL     1       6.442   5.179  19.705  0.00  0.00    +0.000 OA
ENDBRANCH   8   9
ENDBRANCH   7   8
TORSDOF 2
ENDMDL
MODEL 6
REMARK VINA RESULT:      -5.1      1.995      4.313
REMARK  Name = 
REMARK  3 active torsions:
REMARK  status: ('A' for Active; 'I' for Inactive)
REMARK    1  A    between atoms: C_7  and  O_8
REMARK    2  A    between atoms: O_8  and  C_9
REMARK    3  A    between atoms: C_9  and  C_10
REMARK                            x       y       z     vdW  Elec       q    Type
REMARK                         _______ _______ _______ _____ _____    ______ ____
ROOT
ATOM      1  C   UNL     1       5.013   4.168  16.332  0.00  0.00    +0.000 C 
ATOM      2  C   UNL     1       5.727   4.395  17.443  0.00  0.00    +0.000 C 
ATOM      3  C   UNL     1       7.190   4.595  17.428  0.00  0.00    +0.000 C 
ATOM      4  O   UNL     1       7.937   4.382  16.492  0.00  0.00    +0.000 OA
ATOM      5  O   UNL     1       7.561   5.068  18.649  0.00  0.00    +0.000 OA
ATOM      6  C   UNL     1       6.390   5.384  19.419  0.00  0.00    +0.000 C 
ATOM      7  C   UNL     1       5.254   4.562  18.837  0.00  0.00    +0.000 C 
ENDROOT
BRANCH   7   8
ATOM      8  O   UNL     1       5.185   3.262  19.443  0.00  0.00    +0.000 OA
BRANCH   8   9
ATOM      9  C   UNL     1       3.945   2.702  19.423  0.00  0.00    +0.000 C 
ATOM     10  C   UNL     1       2.990   3.486  20.270  0.00  0.00    +0.000 C 
ATOM     11  O   UNL     1       3.632   1.725  18.757  0.00  0.00    +0.000 OA
ENDBRANCH   8   9
ENDBRANCH   7   8
TORSDOF 2
ENDMDL
MODEL 7
REMARK VINA RESULT:      -5.1      2.122      4.086
REMARK  Name = 
REMARK  3 active torsions:
REMARK  status: ('A' for Active; 'I' for Inactive)
REMARK    1  A    between atoms: C_7  and  O_8
REMARK    2  A    between atoms: O_8  and  C_9
REMARK    3  A    between atoms: C_9  and  C_10
REMARK                            x       y       z     vdW  Elec       q    Type
REMARK                         _______ _______ _______ _____ _____    ______ ____
ROOT
ATOM      1  C   UNL     1       5.497   4.931  15.546  0.00  0.00    +0.000 C 
ATOM      2  C   UNL     1       5.639   4.768  16.867  0.00  0.00    +0.000 C 
ATOM      3  C   UNL     1       6.952   4.585  17.515  0.00  0.00    +0.000 C 
ATOM      4  O   UNL     1       8.007   4.355  16.955  0.00  0.00    +0.000 OA
ATOM      5  O   UNL     1       6.781   4.724  18.858  0.00  0.00    +0.000 OA
ATOM      6  C   UNL     1       5.449   5.189  19.128  0.00  0.00    +0.000 C 
ATOM      7  C   UNL     1       4.604   4.802  17.927  0.00  0.00    +0.000 C 
ENDROOT
BRANCH   7   8
ATOM      8  O   UNL     1       4.067   3.477  18.069  0.00  0.00    +0.000 OA
BRANCH   8   9
ATOM      9  C   UNL     1       2.829   3.435  18.633  0.00  0.00    +0.000 C 
ATOM     10  C   UNL     1       1.819   4.112  17.760  0.00  0.00    +0.000 C 
ATOM     11  O   UNL     1       2.563   2.870  19.685  0.00  0.00    +0.000 OA
ENDBRANCH   8   9
ENDBRANCH   7   8
TORSDOF 2
ENDMDL
MODEL 8
REMARK VINA RESULT:      -5.1      1.803      3.872
REMARK  Name = 
REMARK  3 active torsions:
REMARK  status: ('A' for Active; 'I' for Inactive)
REMARK    1  A    between atoms: C_7  and  O_8
REMARK    2  A    between atoms: O_8  and  C_9
REMARK    3  A    between atoms: C_9  and  C_10
REMARK                            x       y       z     vdW  Elec       q    Type
REMARK                         _______ _______ _______ _____ _____    ______ ____
ROOT
ATOM      1  C   UNL     1       5.127   6.551  15.878  0.00  0.00    +0.000 C 
ATOM      2  C   UNL     1       5.946   5.648  16.433  0.00  0.00    +0.000 C 
ATOM      3  C   UNL     1       7.151   5.134  15.754  0.00  0.00    +0.000 C 
ATOM      4  O   UNL     1       7.437   5.285  14.581  0.00  0.00    +0.000 OA
ATOM      5  O   UNL     1       7.896   4.461  16.672  0.00  0.00    +0.000 OA
ATOM      6  C   UNL     1       7.346   4.668  17.983  0.00  0.00    +0.000 C 
ATOM      7  C   UNL     1       5.889   5.046  17.786  0.00  0.00    +0.000 C 
ENDROOT
BRANCH   7   8
ATOM      8  O   UNL     1       5.049   3.883  17.723  0.00  0.00    +0.000 OA
BRANCH   8   9
ATOM      9  C   UNL     1       3.781   4.085  18.172  0.00  0.00    +0.000 C 
ATOM     10  C   UNL     1       2.787   3.379  17.303  0.00  0.00    +0.000 C 
ATOM     11  O   UNL     1       3.492   4.710  19.183  0.00  0.00    +0.000 OA
ENDBRANCH   8   9
ENDBRANCH   7   8
TORSDOF 2
ENDMDL
MODEL 9
REMARK VINA RESULT:      -5.1      1.723      3.549
REMARK  Name = 
REMARK  3 active torsions:
REMARK  status: ('A' for Active; 'I' for Inactive)
REMARK    1  A    between atoms: C_7  and  O_8
REMARK    2  A    between atoms: O_8  and  C_9
REMARK    3  A    between atoms: C_9  and  C_10
REMARK                            x       y       z     vdW  Elec       q    Type
REMARK                         _______ _______ _______ _____ _____    ______ ____
ROOT
ATOM      1  C   UNL     1       7.892   5.868  19.325  0.00  0.00    +0.000 C 
ATOM      2  C   UNL     1       7.271   5.690  18.152  0.00  0.00    +0.000 C 
ATOM      3  C   UNL     1       7.317   6.685  17.062  0.00  0.00    +0.000 C 
ATOM      4  O   UNL     1       7.720   7.830  17.148  0.00  0.00    +0.000 OA
ATOM      5  O   UNL     1       6.833   6.096  15.935  0.00  0.00    +0.000 OA
ATOM      6  C   UNL     1       6.649   4.691  16.168  0.00  0.00    +0.000 C 
ATOM      7  C   UNL     1       6.508   4.515  17.670  0.00  0.00    +0.000 C 
ENDROOT
BRANCH   7   8
ATOM      8  O   UNL     1       5.143   4.665  18.089  0.00  0.00    +0.000 OA
BRANCH   8   9
ATOM      9  C   UNL     1       4.599   3.542  18.630  0.00  0.00    +0.000 C 
ATOM     10  C   UNL     1       3.543   2.974  17.733  0.00  0.00    +0.000 C 
ATOM     11  O   UNL     1       4.961   3.028  19.679  0.00  0.00    +0.000 OA
ENDBRANCH   8   9
ENDBRANCH   7   8
TORSDOF 2
ENDMDL
