MODEL 1
REMARK VINA RESULT:      -8.3      0.000      0.000
REMARK  Name = 
REMARK  10 active torsions:
REMARK  status: ('A' for Active; 'I' for Inactive)
REMARK    1  A    between atoms: C_1  and  C_2
REMARK    2  A    between atoms: C_2  and  C_3
REMARK    3  A    between atoms: C_2  and  C_4
REMARK    4  A    between atoms: C_4  and  C_5
REMARK    5  A    between atoms: C_8  and  C_9
REMARK    6  A    between atoms: C_9  and  C_10
REMARK    7  A    between atoms: C_9  and  N_11
REMARK    8  A    between atoms: C_12  and  C_14
REMARK    9  A    between atoms: C_17  and  C_18
REMARK   10  A    between atoms: C_18  and  N_19
REMARK                            x       y       z     vdW  Elec       q    Type
REMARK                         _______ _______ _______ _____ _____    ______ ____
ROOT
ATOM      1  N   UNL     1       4.819   6.349  18.305  0.00  0.00    +0.000 N 
ATOM      2  C   UNL     1       3.480   6.161  18.609  0.00  0.00    +0.000 C 
ATOM      3  O   UNL     1       2.980   5.057  18.783  0.00  0.00    +0.000 OA
ATOM      4  H   UNL     1       5.216   7.274  18.376  0.00  0.00    +0.000 HD
ENDROOT
BRANCH   2   5
ATOM      5  C   UNL     1       2.650   7.390  18.781  0.00  0.00    +0.000 A 
ATOM      6  C   UNL     1       1.977   7.684  19.972  0.00  0.00    +0.000 A 
ATOM      7  C   UNL     1       1.145   8.810  20.054  0.00  0.00    +0.000 A 
ATOM      8  C   UNL     1       0.973   9.662  18.951  0.00  0.00    +0.000 A 
ATOM      9  C   UNL     1       1.708   9.396  17.786  0.00  0.00    +0.000 A 
ATOM     10  C   UNL     1       2.540   8.274  17.702  0.00  0.00    +0.000 A 
BRANCH   8  11
ATOM     11  C   UNL     1      -0.067  10.769  18.963  0.00  0.00    +0.000 C 
BRANCH  11  12
ATOM     12  N   UNL     1      -1.483  10.438  18.810  0.00  0.00    +0.000 NA
ATOM     13  C   UNL     1      -1.859   9.737  17.587  0.00  0.00    +0.000 C 
ATOM     14  C   UNL     1      -2.444  10.810  16.691  0.00  0.00    +0.000 C 
ATOM     15  C   UNL     1      -3.121  11.760  17.662  0.00  0.00    +0.000 C 
ATOM     16  C   UNL     1      -2.422  11.540  18.997  0.00  0.00    +0.000 C 
ENDBRANCH  11  12
ENDBRANCH   8  11
ENDBRANCH   2   5
BRANCH   1  17
ATOM     17  C   UNL     1       5.741   5.224  18.243  0.00  0.00    +0.000 C 
ATOM     18  C   UNL     1       7.080   5.562  18.909  0.00  0.00    +0.000 C 
BRANCH  17  22
ATOM     19  C   UNL     1       6.277   4.066  14.082  0.00  0.00    +0.000 A 
ATOM     20  C   UNL     1       7.160   4.951  14.709  0.00  0.00    +0.000 A 
ATOM     21  C   UNL     1       7.002   5.281  16.059  0.00  0.00    +0.000 A 
ATOM     22  C   UNL     1       5.944   4.749  16.813  0.00  0.00    +0.000 A 
ATOM     23  C   UNL     1       5.078   3.839  16.190  0.00  0.00    +0.000 A 
ATOM     24  C   UNL     1       5.242   3.504  14.840  0.00  0.00    +0.000 A 
BRANCH  19  25
ATOM     25  C   UNL     1       6.414   3.754  12.608  0.00  0.00    +0.000 C 
BRANCH  25  27
ATOM     26  C   UNL     1       4.289   3.262  11.299  0.00  0.00    +0.000 C 
ATOM     27  C   UNL     1       5.455   2.664  12.088  0.00  0.00    +0.000 C 
ATOM     28  C   UNL     1       6.215   1.668  11.209  0.00  0.00    +0.000 C 
ENDBRANCH  25  27
ENDBRANCH  19  25
ENDBRANCH  17  22
ENDBRANCH   1  17
TORSDOF 7
ENDMDL
MODEL 2
REMARK VINA RESULT:      -8.1      1.227      1.767
REMARK  Name = 
REMARK  10 active torsions:
REMARK  status: ('A' for Active; 'I' for Inactive)
REMARK    1  A    between atoms: C_1  and  C_2
REMARK    2  A    between atoms: C_2  and  C_3
REMARK    3  A    between atoms: C_2  and  C_4
REMARK    4  A    between atoms: C_4  and  C_5
REMARK    5  A    between atoms: C_8  and  C_9
REMARK    6  A    between atoms: C_9  and  C_10
REMARK    7  A    between atoms: C_9  and  N_11
REMARK    8  A    between atoms: C_12  and  C_14
REMARK    9  A    between atoms: C_17  and  C_18
REMARK   10  A    between atoms: C_18  and  N_19
REMARK                            x       y       z     vdW  Elec       q    Type
REMARK                         _______ _______ _______ _____ _____    ______ ____
ROOT
ATOM      1  N   UNL     1       4.630   6.335  18.333  0.00  0.00    +0.000 N 
ATOM      2  C   UNL     1       3.351   6.181  18.843  0.00  0.00    +0.000 C 
ATOM      3  O   UNL     1       2.906   5.107  19.227  0.00  0.00    +0.000 OA
ATOM      4  H   UNL     1       5.011   7.264  18.227  0.00  0.00    +0.000 HD
ENDROOT
BRANCH   2   5
ATOM      5  C   UNL     1       2.524   7.417  18.970  0.00  0.00    +0.000 A 
ATOM      6  C   UNL     1       1.873   7.771  20.158  0.00  0.00    +0.000 A 
ATOM      7  C   UNL     1       1.043   8.900  20.200  0.00  0.00    +0.000 A 
ATOM      8  C   UNL     1       0.849   9.696  19.060  0.00  0.00    +0.000 A 
ATOM      9  C   UNL     1       1.562   9.373  17.895  0.00  0.00    +0.000 A 
ATOM     10  C   UNL     1       2.393   8.247  17.851  0.00  0.00    +0.000 A 
BRANCH   8  11
ATOM     11  C   UNL     1      -0.191  10.803  19.037  0.00  0.00    +0.000 C 
BRANCH  11  12
ATOM     12  N   UNL     1       0.040  12.033  19.792  0.00  0.00    +0.000 NA
ATOM     13  C   UNL     1      -0.904  13.122  19.569  0.00  0.00    +0.000 C 
ATOM     14  C   UNL     1      -0.191  14.065  18.622  0.00  0.00    +0.000 C 
ATOM     15  C   UNL     1       1.267  13.945  19.025  0.00  0.00    +0.000 C 
ATOM     16  C   UNL     1       1.388  12.590  19.710  0.00  0.00    +0.000 C 
ENDBRANCH  11  12
ENDBRANCH   8  11
ENDBRANCH   2   5
BRANCH   1  17
ATOM     17  C   UNL     1       5.561   5.217  18.287  0.00  0.00    +0.000 C 
ATOM     18  C   UNL     1       6.883   5.562  18.982  0.00  0.00    +0.000 C 
BRANCH  17  22
ATOM     19  C   UNL     1       6.205   4.077  14.137  0.00  0.00    +0.000 A 
ATOM     20  C   UNL     1       7.102   4.913  14.808  0.00  0.00    +0.000 A 
ATOM     21  C   UNL     1       6.907   5.236  16.154  0.00  0.00    +0.000 A 
ATOM     22  C   UNL     1       5.798   4.747  16.861  0.00  0.00    +0.000 A 
ATOM     23  C   UNL     1       4.915   3.885  16.194  0.00  0.00    +0.000 A 
ATOM     24  C   UNL     1       5.116   3.555  14.847  0.00  0.00    +0.000 A 
BRANCH  19  25
ATOM     25  C   UNL     1       6.384   3.773  12.666  0.00  0.00    +0.000 C 
BRANCH  25  27
ATOM     26  C   UNL     1       4.317   3.332  11.249  0.00  0.00    +0.000 C 
ATOM     27  C   UNL     1       5.420   2.707  12.105  0.00  0.00    +0.000 C 
ATOM     28  C   UNL     1       6.195   1.679  11.276  0.00  0.00    +0.000 C 
ENDBRANCH  25  27
ENDBRANCH  19  25
ENDBRANCH  17  22
ENDBRANCH   1  17
TORSDOF 7
ENDMDL
MODEL 3
REMARK VINA RESULT:      -8.0      3.483      9.905
REMARK  Name = 
REMARK  10 active torsions:
REMARK  status: ('A' for Active; 'I' for Inactive)
REMARK    1  A    between atoms: C_1  and  C_2
REMARK    2  A    between atoms: C_2  and  C_3
REMARK    3  A    between atoms: C_2  and  C_4
REMARK    4  A    between atoms: C_4  and  C_5
REMARK    5  A    between atoms: C_8  and  C_9
REMARK    6  A    between atoms: C_9  and  C_10
REMARK    7  A    between atoms: C_9  and  N_11
REMARK    8  A    between atoms: C_12  and  C_14
REMARK    9  A    between atoms: C_17  and  C_18
REMARK   10  A    between atoms: C_18  and  N_19
REMARK                            x       y       z     vdW  Elec       q    Type
REMARK                         _______ _______ _______ _____ _____    ______ ____
ROOT
ATOM      1  N   UNL     1       0.909   9.681  19.254  0.00  0.00    +0.000 N 
ATOM      2  C   UNL     1       1.842   9.261  18.319  0.00  0.00    +0.000 C 
ATOM      3  O   UNL     1       2.219   9.959  17.387  0.00  0.00    +0.000 OA
ATOM      4  H   UNL     1       0.791   9.152  20.105  0.00  0.00    +0.000 HD
ENDROOT
BRANCH   2   5
ATOM      5  C   UNL     1       2.435   7.907  18.523  0.00  0.00    +0.000 A 
ATOM      6  C   UNL     1       2.171   7.132  19.659  0.00  0.00    +0.000 A 
ATOM      7  C   UNL     1       2.818   5.901  19.840  0.00  0.00    +0.000 A 
ATOM      8  C   UNL     1       3.737   5.421  18.892  0.00  0.00    +0.000 A 
ATOM      9  C   UNL     1       3.939   6.173  17.724  0.00  0.00    +0.000 A 
ATOM     10  C   UNL     1       3.293   7.401  17.540  0.00  0.00    +0.000 A 
BRANCH   8  11
ATOM     11  C   UNL     1       4.584   4.191  19.166  0.00  0.00    +0.000 C 
BRANCH  11  12
ATOM     12  N   UNL     1       3.979   2.862  19.093  0.00  0.00    +0.000 NA
ATOM     13  C   UNL     1       3.311   2.518  17.843  0.00  0.00    +0.000 C 
ATOM     14  C   UNL     1       1.836   2.714  18.125  0.00  0.00    +0.000 C 
ATOM     15  C   UNL     1       1.695   2.327  19.586  0.00  0.00    +0.000 C 
ATOM     16  C   UNL     1       3.082   2.506  20.189  0.00  0.00    +0.000 C 
ENDBRANCH  11  12
ENDBRANCH   8  11
ENDBRANCH   2   5
BRANCH   1  17
ATOM     17  C   UNL     1       0.366  11.032  19.220  0.00  0.00    +0.000 C 
ATOM     18  C   UNL     1       0.478  11.713  20.588  0.00  0.00    +0.000 C 
BRANCH  17  22
ATOM     19  C   UNL     1      -3.804  10.997  17.976  0.00  0.00    +0.000 A 
ATOM     20  C   UNL     1      -3.337  11.912  18.925  0.00  0.00    +0.000 A 
ATOM     21  C   UNL     1      -1.986  11.941  19.283  0.00  0.00    +0.000 A 
ATOM     22  C   UNL     1      -1.068  11.043  18.717  0.00  0.00    +0.000 A 
ATOM     23  C   UNL     1      -1.533  10.146  17.744  0.00  0.00    +0.000 A 
ATOM     24  C   UNL     1      -2.886  10.123  17.380  0.00  0.00    +0.000 A 
BRANCH  19  25
ATOM     25  C   UNL     1      -5.275  10.926  17.630  0.00  0.00    +0.000 C 
BRANCH  25  27
ATOM     26  C   UNL     1      -6.815  12.886  17.118  0.00  0.00    +0.000 C 
ATOM     27  C   UNL     1      -6.131  12.068  18.215  0.00  0.00    +0.000 C 
ATOM     28  C   UNL     1      -7.187  11.500  19.168  0.00  0.00    +0.000 C 
ENDBRANCH  25  27
ENDBRANCH  19  25
ENDBRANCH  17  22
ENDBRANCH   1  17
TORSDOF 7
ENDMDL
MODEL 4
REMARK VINA RESULT:      -8.0      0.856      1.662
REMARK  Name = 
REMARK  10 active torsions:
REMARK  status: ('A' for Active; 'I' for Inactive)
REMARK    1  A    between atoms: C_1  and  C_2
REMARK    2  A    between atoms: C_2  and  C_3
REMARK    3  A    between atoms: C_2  and  C_4
REMARK    4  A    between atoms: C_4  and  C_5
REMARK    5  A    between atoms: C_8  and  C_9
REMARK    6  A    between atoms: C_9  and  C_10
REMARK    7  A    between atoms: C_9  and  N_11
REMARK    8  A    between atoms: C_12  and  C_14
REMARK    9  A    between atoms: C_17  and  C_18
REMARK   10  A    between atoms: C_18  and  N_19
REMARK                            x       y       z     vdW  Elec       q    Type
REMARK                         _______ _______ _______ _____ _____    ______ ____
ROOT
ATOM      1  N   UNL     1       4.803   6.195  18.312  0.00  0.00    +0.000 N 
ATOM      2  C   UNL     1       3.469   5.934  18.584  0.00  0.00    +0.000 C 
ATOM      3  O   UNL     1       2.993   4.807  18.587  0.00  0.00    +0.000 OA
ATOM      4  H   UNL     1       5.180   7.107  18.524  0.00  0.00    +0.000 HD
ENDROOT
BRANCH   2   5
ATOM      5  C   UNL     1       2.615   7.104  18.943  0.00  0.00    +0.000 A 
ATOM      6  C   UNL     1       2.308   8.121  18.031  0.00  0.00    +0.000 A 
ATOM      7  C   UNL     1       1.569   9.240  18.442  0.00  0.00    +0.000 A 
ATOM      8  C   UNL     1       1.122   9.362  19.768  0.00  0.00    +0.000 A 
ATOM      9  C   UNL     1       1.374   8.303  20.654  0.00  0.00    +0.000 A 
ATOM     10  C   UNL     1       2.110   7.185  20.246  0.00  0.00    +0.000 A 
BRANCH   8  11
ATOM     11  C   UNL     1       0.490  10.648  20.273  0.00  0.00    +0.000 C 
BRANCH  11  12
ATOM     12  N   UNL     1      -0.961  10.811  20.227  0.00  0.00    +0.000 NA
ATOM     13  C   UNL     1      -1.579  10.781  18.905  0.00  0.00    +0.000 C 
ATOM     14  C   UNL     1      -1.825  12.236  18.560  0.00  0.00    +0.000 C 
ATOM     15  C   UNL     1      -2.135  12.876  19.900  0.00  0.00    +0.000 C 
ATOM     16  C   UNL     1      -1.499  11.965  20.942  0.00  0.00    +0.000 C 
ENDBRANCH  11  12
ENDBRANCH   8  11
ENDBRANCH   2   5
BRANCH   1  17
ATOM     17  C   UNL     1       5.749   5.113  18.078  0.00  0.00    +0.000 C 
ATOM     18  C   UNL     1       7.101   5.400  18.740  0.00  0.00    +0.000 C 
BRANCH  17  22
ATOM     19  C   UNL     1       6.259   4.092  13.879  0.00  0.00    +0.000 A 
ATOM     20  C   UNL     1       5.182   3.597  14.620  0.00  0.00    +0.000 A 
ATOM     21  C   UNL     1       5.006   3.968  15.957  0.00  0.00    +0.000 A 
ATOM     22  C   UNL     1       5.913   4.829  16.594  0.00  0.00    +0.000 A 
ATOM     23  C   UNL     1       6.976   5.347  15.839  0.00  0.00    +0.000 A 
ATOM     24  C   UNL     1       7.148   4.981  14.498  0.00  0.00    +0.000 A 
BRANCH  19  25
ATOM     25  C   UNL     1       6.483   3.646  12.450  0.00  0.00    +0.000 C 
BRANCH  25  27
ATOM     26  C   UNL     1       4.358   3.115  11.157  0.00  0.00    +0.000 C 
ATOM     27  C   UNL     1       5.525   2.541  11.961  0.00  0.00    +0.000 C 
ATOM     28  C   UNL     1       6.287   1.522  11.109  0.00  0.00    +0.000 C 
ENDBRANCH  25  27
ENDBRANCH  19  25
ENDBRANCH  17  22
ENDBRANCH   1  17
TORSDOF 7
ENDMDL
MODEL 5
REMARK VINA RESULT:      -7.9      1.372      2.291
REMARK  Name = 
REMARK  10 active torsions:
REMARK  status: ('A' for Active; 'I' for Inactive)
REMARK    1  A    between atoms: C_1  and  C_2
REMARK    2  A    between atoms: C_2  and  C_3
REMARK    3  A    between atoms: C_2  and  C_4
REMARK    4  A    between atoms: C_4  and  C_5
REMARK    5  A    between atoms: C_8  and  C_9
REMARK    6  A    between atoms: C_9  and  C_10
REMARK    7  A    between atoms: C_9  and  N_11
REMARK    8  A    between atoms: C_12  and  C_14
REMARK    9  A    between atoms: C_17  and  C_18
REMARK   10  A    between atoms: C_18  and  N_19
REMARK                            x       y       z     vdW  Elec       q    Type
REMARK                         _______ _______ _______ _____ _____    ______ ____
ROOT
ATOM      1  N   UNL     1       4.648   6.292  18.291  0.00  0.00    +0.000 N 
ATOM      2  C   UNL     1       3.325   6.063  18.638  0.00  0.00    +0.000 C 
ATOM      3  O   UNL     1       2.845   4.943  18.747  0.00  0.00    +0.000 OA
ATOM      4  H   UNL     1       5.038   7.214  18.416  0.00  0.00    +0.000 HD
ENDROOT
BRANCH   2   5
ATOM      5  C   UNL     1       2.493   7.264  18.941  0.00  0.00    +0.000 A 
ATOM      6  C   UNL     1       2.148   8.207  17.966  0.00  0.00    +0.000 A 
ATOM      7  C   UNL     1       1.432   9.360  18.321  0.00  0.00    +0.000 A 
ATOM      8  C   UNL     1       1.047   9.590  19.651  0.00  0.00    +0.000 A 
ATOM      9  C   UNL     1       1.336   8.603  20.606  0.00  0.00    +0.000 A 
ATOM     10  C   UNL     1       2.049   7.452  20.255  0.00  0.00    +0.000 A 
BRANCH   8  11
ATOM     11  C   UNL     1       0.444  10.917  20.080  0.00  0.00    +0.000 C 
BRANCH  11  12
ATOM     12  N   UNL     1      -0.784  10.934  20.873  0.00  0.00    +0.000 NA
ATOM     13  C   UNL     1      -1.777  11.941  20.515  0.00  0.00    +0.000 C 
ATOM     14  C   UNL     1      -1.598  13.043  21.539  0.00  0.00    +0.000 C 
ATOM     15  C   UNL     1      -1.196  12.300  22.800  0.00  0.00    +0.000 C 
ATOM     16  C   UNL     1      -0.610  10.978  22.323  0.00  0.00    +0.000 C 
ENDBRANCH  11  12
ENDBRANCH   8  11
ENDBRANCH   2   5
BRANCH   1  17
ATOM     17  C   UNL     1       5.577   5.188  18.102  0.00  0.00    +0.000 C 
ATOM     18  C   UNL     1       6.887   5.423  18.862  0.00  0.00    +0.000 C 
BRANCH  17  22
ATOM     19  C   UNL     1       6.282   4.228  13.916  0.00  0.00    +0.000 A 
ATOM     20  C   UNL     1       5.010   4.109  14.484  0.00  0.00    +0.000 A 
ATOM     21  C   UNL     1       4.789   4.463  15.818  0.00  0.00    +0.000 A 
ATOM     22  C   UNL     1       5.838   4.926  16.627  0.00  0.00    +0.000 A 
ATOM     23  C   UNL     1       7.106   5.072  16.047  0.00  0.00    +0.000 A 
ATOM     24  C   UNL     1       7.326   4.725  14.707  0.00  0.00    +0.000 A 
BRANCH  19  25
ATOM     25  C   UNL     1       6.535   3.792  12.490  0.00  0.00    +0.000 C 
BRANCH  25  27
ATOM     26  C   UNL     1       4.469   3.076  11.189  0.00  0.00    +0.000 C 
ATOM     27  C   UNL     1       5.670   2.607  12.013  0.00  0.00    +0.000 C 
ATOM     28  C   UNL     1       6.515   1.635  11.187  0.00  0.00    +0.000 C 
ENDBRANCH  25  27
ENDBRANCH  19  25
ENDBRANCH  17  22
ENDBRANCH   1  17
TORSDOF 7
ENDMDL
MODEL 6
REMARK VINA RESULT:      -7.8      3.613      9.676
REMARK  Name = 
REMARK  10 active torsions:
REMARK  status: ('A' for Active; 'I' for Inactive)
REMARK    1  A    between atoms: C_1  and  C_2
REMARK    2  A    between atoms: C_2  and  C_3
REMARK    3  A    between atoms: C_2  and  C_4
REMARK    4  A    between atoms: C_4  and  C_5
REMARK    5  A    between atoms: C_8  and  C_9
REMARK    6  A    between atoms: C_9  and  C_10
REMARK    7  A    between atoms: C_9  and  N_11
REMARK    8  A    between atoms: C_12  and  C_14
REMARK    9  A    between atoms: C_17  and  C_18
REMARK   10  A    between atoms: C_18  and  N_19
REMARK                            x       y       z     vdW  Elec       q    Type
REMARK                         _______ _______ _______ _____ _____    ______ ____
ROOT
ATOM      1  N   UNL     1       1.139   9.701  19.220  0.00  0.00    +0.000 N 
ATOM      2  C   UNL     1       1.960   9.161  18.243  0.00  0.00    +0.000 C 
ATOM      3  O   UNL     1       2.204   9.725  17.185  0.00  0.00    +0.000 OA
ATOM      4  H   UNL     1       1.138   9.294  20.144  0.00  0.00    +0.000 HD
ENDROOT
BRANCH   2   5
ATOM      5  C   UNL     1       2.606   7.852  18.555  0.00  0.00    +0.000 A 
ATOM      6  C   UNL     1       3.556   7.261  17.715  0.00  0.00    +0.000 A 
ATOM      7  C   UNL     1       4.072   5.991  18.014  0.00  0.00    +0.000 A 
ATOM      8  C   UNL     1       3.650   5.292  19.156  0.00  0.00    +0.000 A 
ATOM      9  C   UNL     1       2.750   5.925  20.028  0.00  0.00    +0.000 A 
ATOM     10  C   UNL     1       2.236   7.192  19.733  0.00  0.00    +0.000 A 
BRANCH   8  11
ATOM     11  C   UNL     1       4.051   3.846  19.389  0.00  0.00    +0.000 C 
BRANCH  11  12
ATOM     12  N   UNL     1       3.104   2.772  19.094  0.00  0.00    +0.000 NA
ATOM     13  C   UNL     1       2.422   2.841  17.806  0.00  0.00    +0.000 C 
ATOM     14  C   UNL     1       1.048   3.396  18.126  0.00  0.00    +0.000 C 
ATOM     15  C   UNL     1       0.742   2.829  19.499  0.00  0.00    +0.000 C 
ATOM     16  C   UNL     1       2.096   2.508  20.117  0.00  0.00    +0.000 C 
ENDBRANCH  11  12
ENDBRANCH   8  11
ENDBRANCH   2   5
BRANCH   1  17
ATOM     17  C   UNL     1       0.564  11.030  19.069  0.00  0.00    +0.000 C 
ATOM     18  C   UNL     1       0.690  11.843  20.362  0.00  0.00    +0.000 C 
BRANCH  17  22
ATOM     19  C   UNL     1      -3.628  10.766  17.931  0.00  0.00    +0.000 A 
ATOM     20  C   UNL     1      -3.187  11.711  18.863  0.00  0.00    +0.000 A 
ATOM     21  C   UNL     1      -1.831  11.814  19.187  0.00  0.00    +0.000 A 
ATOM     22  C   UNL     1      -0.881  10.962  18.602  0.00  0.00    +0.000 A 
ATOM     23  C   UNL     1      -1.322  10.035  17.646  0.00  0.00    +0.000 A 
ATOM     24  C   UNL     1      -2.681   9.938  17.316  0.00  0.00    +0.000 A 
BRANCH  19  25
ATOM     25  C   UNL     1      -5.102  10.616  17.623  0.00  0.00    +0.000 C 
BRANCH  25  27
ATOM     26  C   UNL     1      -6.963  12.351  17.607  0.00  0.00    +0.000 C 
ATOM     27  C   UNL     1      -6.034  11.501  18.476  0.00  0.00    +0.000 C 
ATOM     28  C   UNL     1      -6.865  10.632  19.422  0.00  0.00    +0.000 C 
ENDBRANCH  25  27
ENDBRANCH  19  25
ENDBRANCH  17  22
ENDBRANCH   1  17
TORSDOF 7
ENDMDL
MODEL 7
REMARK VINA RESULT:      -7.7      1.603      2.618
REMARK  Name = 
REMARK  10 active torsions:
REMARK  status: ('A' for Active; 'I' for Inactive)
REMARK    1  A    between atoms: C_1  and  C_2
REMARK    2  A    between atoms: C_2  and  C_3
REMARK    3  A    between atoms: C_2  and  C_4
REMARK    4  A    between atoms: C_4  and  C_5
REMARK    5  A    between atoms: C_8  and  C_9
REMARK    6  A    between atoms: C_9  and  C_10
REMARK    7  A    between atoms: C_9  and  N_11
REMARK    8  A    between atoms: C_12  and  C_14
REMARK    9  A    between atoms: C_17  and  C_18
REMARK   10  A    between atoms: C_18  and  N_19
REMARK                            x       y       z     vdW  Elec       q    Type
REMARK                         _______ _______ _______ _____ _____    ______ ____
ROOT
ATOM      1  N   UNL     1       4.659   6.514  18.265  0.00  0.00    +0.000 N 
ATOM      2  C   UNL     1       3.310   6.267  18.461  0.00  0.00    +0.000 C 
ATOM      3  O   UNL     1       2.826   5.143  18.460  0.00  0.00    +0.000 OA
ATOM      4  H   UNL     1       5.030   7.428  18.479  0.00  0.00    +0.000 HD
ENDROOT
BRANCH   2   5
ATOM      5  C   UNL     1       2.444   7.450  18.742  0.00  0.00    +0.000 A 
ATOM      6  C   UNL     1       2.132   8.405  17.767  0.00  0.00    +0.000 A 
ATOM      7  C   UNL     1       1.382   9.540  18.104  0.00  0.00    +0.000 A 
ATOM      8  C   UNL     1       0.928   9.742  19.417  0.00  0.00    +0.000 A 
ATOM      9  C   UNL     1       1.186   8.743  20.370  0.00  0.00    +0.000 A 
ATOM     10  C   UNL     1       1.933   7.608  20.035  0.00  0.00    +0.000 A 
BRANCH   8  11
ATOM     11  C   UNL     1       0.284  11.051  19.838  0.00  0.00    +0.000 C 
BRANCH  11  12
ATOM     12  N   UNL     1       0.884  11.846  20.908  0.00  0.00    +0.000 NA
ATOM     13  C   UNL     1      -0.038  12.502  21.828  0.00  0.00    +0.000 C 
ATOM     14  C   UNL     1      -0.091  13.943  21.360  0.00  0.00    +0.000 C 
ATOM     15  C   UNL     1       1.310  14.204  20.840  0.00  0.00    +0.000 C 
ATOM     16  C   UNL     1       1.876  12.834  20.493  0.00  0.00    +0.000 C 
ENDBRANCH  11  12
ENDBRANCH   8  11
ENDBRANCH   2   5
BRANCH   1  17
ATOM     17  C   UNL     1       5.609   5.422  18.112  0.00  0.00    +0.000 C 
ATOM     18  C   UNL     1       6.939   5.736  18.806  0.00  0.00    +0.000 C 
BRANCH  17  22
ATOM     19  C   UNL     1       6.262   4.213  13.983  0.00  0.00    +0.000 A 
ATOM     20  C   UNL     1       5.165   3.744  14.711  0.00  0.00    +0.000 A 
ATOM     21  C   UNL     1       4.943   4.175  16.023  0.00  0.00    +0.000 A 
ATOM     22  C   UNL     1       5.824   5.071  16.648  0.00  0.00    +0.000 A 
ATOM     23  C   UNL     1       6.907   5.562  15.905  0.00  0.00    +0.000 A 
ATOM     24  C   UNL     1       7.124   5.136  14.588  0.00  0.00    +0.000 A 
BRANCH  19  25
ATOM     25  C   UNL     1       6.535   3.704  12.584  0.00  0.00    +0.000 C 
BRANCH  25  27
ATOM     26  C   UNL     1       4.392   3.247  11.291  0.00  0.00    +0.000 C 
ATOM     27  C   UNL     1       5.547   2.631  12.083  0.00  0.00    +0.000 C 
ATOM     28  C   UNL     1       6.278   1.604  11.215  0.00  0.00    +0.000 C 
ENDBRANCH  25  27
ENDBRANCH  19  25
ENDBRANCH  17  22
ENDBRANCH   1  17
TORSDOF 7
ENDMDL
MODEL 8
REMARK VINA RESULT:      -7.7      1.407      1.968
REMARK  Name = 
REMARK  10 active torsions:
REMARK  status: ('A' for Active; 'I' for Inactive)
REMARK    1  A    between atoms: C_1  and  C_2
REMARK    2  A    between atoms: C_2  and  C_3
REMARK    3  A    between atoms: C_2  and  C_4
REMARK    4  A    between atoms: C_4  and  C_5
REMARK    5  A    between atoms: C_8  and  C_9
REMARK    6  A    between atoms: C_9  and  C_10
REMARK    7  A    between atoms: C_9  and  N_11
REMARK    8  A    between atoms: C_12  and  C_14
REMARK    9  A    between atoms: C_17  and  C_18
REMARK   10  A    between atoms: C_18  and  N_19
REMARK                            x       y       z     vdW  Elec       q    Type
REMARK                         _______ _______ _______ _____ _____    ______ ____
ROOT
ATOM      1  N   UNL     1       4.733   6.247  18.332  0.00  0.00    +0.000 N 
ATOM      2  C   UNL     1       3.431   5.995  18.735  0.00  0.00    +0.000 C 
ATOM      3  O   UNL     1       2.980   4.866  18.880  0.00  0.00    +0.000 OA
ATOM      4  H   UNL     1       5.108   7.179  18.428  0.00  0.00    +0.000 HD
ENDROOT
BRANCH   2   5
ATOM      5  C   UNL     1       2.584   7.182  19.053  0.00  0.00    +0.000 A 
ATOM      6  C   UNL     1       2.036   7.398  20.323  0.00  0.00    +0.000 A 
ATOM      7  C   UNL     1       1.180   8.486  20.547  0.00  0.00    +0.000 A 
ATOM      8  C   UNL     1       0.859   9.378  19.511  0.00  0.00    +0.000 A 
ATOM      9  C   UNL     1       1.471   9.191  18.261  0.00  0.00    +0.000 A 
ATOM     10  C   UNL     1       2.326   8.107  18.036  0.00  0.00    +0.000 A 
BRANCH   8  11
ATOM     11  C   UNL     1      -0.210  10.442  19.688  0.00  0.00    +0.000 C 
BRANCH  11  12
ATOM     12  N   UNL     1      -0.004  11.527  20.645  0.00  0.00    +0.000 NA
ATOM     13  C   UNL     1      -0.936  11.594  21.765  0.00  0.00    +0.000 C 
ATOM     14  C   UNL     1      -1.922  12.680  21.384  0.00  0.00    +0.000 C 
ATOM     15  C   UNL     1      -1.081  13.669  20.597  0.00  0.00    +0.000 C 
ATOM     16  C   UNL     1       0.106  12.868  20.078  0.00  0.00    +0.000 C 
ENDBRANCH  11  12
ENDBRANCH   8  11
ENDBRANCH   2   5
BRANCH   1  17
ATOM     17  C   UNL     1       5.679   5.161  18.122  0.00  0.00    +0.000 C 
ATOM     18  C   UNL     1       7.012   5.435  18.828  0.00  0.00    +0.000 C 
BRANCH  17  22
ATOM     19  C   UNL     1       6.221   4.161  13.921  0.00  0.00    +0.000 A 
ATOM     20  C   UNL     1       4.955   4.147  14.513  0.00  0.00    +0.000 A 
ATOM     21  C   UNL     1       4.789   4.513  15.852  0.00  0.00    +0.000 A 
ATOM     22  C   UNL     1       5.889   4.884  16.642  0.00  0.00    +0.000 A 
ATOM     23  C   UNL     1       7.154   4.925  16.038  0.00  0.00    +0.000 A 
ATOM     24  C   UNL     1       7.318   4.565  14.694  0.00  0.00    +0.000 A 
BRANCH  19  25
ATOM     25  C   UNL     1       6.410   3.710  12.489  0.00  0.00    +0.000 C 
BRANCH  25  27
ATOM     26  C   UNL     1       4.274   3.202  11.204  0.00  0.00    +0.000 C 
ATOM     27  C   UNL     1       5.427   2.617  12.022  0.00  0.00    +0.000 C 
ATOM     28  C   UNL     1       6.166   1.564  11.192  0.00  0.00    +0.000 C 
ENDBRANCH  25  27
ENDBRANCH  19  25
ENDBRANCH  17  22
ENDBRANCH   1  17
TORSDOF 7
ENDMDL
MODEL 9
REMARK VINA RESULT:      -7.7      1.720      2.316
REMARK  Name = 
REMARK  10 active torsions:
REMARK  status: ('A' for Active; 'I' for Inactive)
REMARK    1  A    between atoms: C_1  and  C_2
REMARK    2  A    between atoms: C_2  and  C_3
REMARK    3  A    between atoms: C_2  and  C_4
REMARK    4  A    between atoms: C_4  and  C_5
REMARK    5  A    between atoms: C_8  and  C_9
REMARK    6  A    between atoms: C_9  and  C_10
REMARK    7  A    between atoms: C_9  and  N_11
REMARK    8  A    between atoms: C_12  and  C_14
REMARK    9  A    between atoms: C_17  and  C_18
REMARK   10  A    between atoms: C_18  and  N_19
REMARK                            x       y       z     vdW  Elec       q    Type
REMARK                         _______ _______ _______ _____ _____    ______ ____
ROOT
ATOM      1  N   UNL     1       3.684   6.452  18.456  0.00  0.00    +0.000 N 
ATOM      2  C   UNL     1       2.664   6.561  19.389  0.00  0.00    +0.000 C 
ATOM      3  O   UNL     1       2.360   5.659  20.158  0.00  0.00    +0.000 OA
ATOM      4  H   UNL     1       4.023   7.284  17.996  0.00  0.00    +0.000 HD
ENDROOT
BRANCH   2   5
ATOM      5  C   UNL     1       1.964   7.876  19.468  0.00  0.00    +0.000 A 
ATOM      6  C   UNL     1       1.357   8.337  20.642  0.00  0.00    +0.000 A 
ATOM      7  C   UNL     1       0.641   9.543  20.641  0.00  0.00    +0.000 A 
ATOM      8  C   UNL     1       0.520  10.310  19.471  0.00  0.00    +0.000 A 
ATOM      9  C   UNL     1       1.192   9.873  18.318  0.00  0.00    +0.000 A 
ATOM     10  C   UNL     1       1.908   8.671  18.317  0.00  0.00    +0.000 A 
BRANCH   8  11
ATOM     11  C   UNL     1      -0.407  11.511  19.406  0.00  0.00    +0.000 C 
BRANCH  11  12
ATOM     12  N   UNL     1      -0.049  12.743  20.108  0.00  0.00    +0.000 NA
ATOM     13  C   UNL     1      -0.904  13.900  19.869  0.00  0.00    +0.000 C 
ATOM     14  C   UNL     1      -0.142  14.745  18.868  0.00  0.00    +0.000 C 
ATOM     15  C   UNL     1       1.312  14.514  19.236  0.00  0.00    +0.000 C 
ATOM     16  C   UNL     1       1.338  13.179  19.968  0.00  0.00    +0.000 C 
ENDBRANCH  11  12
ENDBRANCH   8  11
ENDBRANCH   2   5
BRANCH   1  17
ATOM     17  C   UNL     1       4.514   5.258  18.385  0.00  0.00    +0.000 C 
ATOM     18  C   UNL     1       5.727   5.364  19.316  0.00  0.00    +0.000 C 
BRANCH  17  22
ATOM     19  C   UNL     1       5.935   4.348  14.374  0.00  0.00    +0.000 A 
ATOM     20  C   UNL     1       5.724   3.337  15.316  0.00  0.00    +0.000 A 
ATOM     21  C   UNL     1       5.226   3.639  16.587  0.00  0.00    +0.000 A 
ATOM     22  C   UNL     1       4.943   4.963  16.957  0.00  0.00    +0.000 A 
ATOM     23  C   UNL     1       5.128   5.971  16.000  0.00  0.00    +0.000 A 
ATOM     24  C   UNL     1       5.620   5.667  14.724  0.00  0.00    +0.000 A 
BRANCH  19  25
ATOM     25  C   UNL     1       6.528   4.029  13.019  0.00  0.00    +0.000 C 
BRANCH  25  27
ATOM     26  C   UNL     1       4.582   3.311  11.546  0.00  0.00    +0.000 C 
ATOM     27  C   UNL     1       5.849   2.861  12.275  0.00  0.00    +0.000 C 
ATOM     28  C   UNL     1       6.824   2.234  11.275  0.00  0.00    +0.000 C 
ENDBRANCH  25  27
ENDBRANCH  19  25
ENDBRANCH  17  22
ENDBRANCH   1  17
TORSDOF 7
ENDMDL
