MODEL 1
REMARK VINA RESULT:      -8.8      0.000      0.000
REMARK  Name = 
REMARK  4 active torsions:
REMARK  status: ('A' for Active; 'I' for Inactive)
REMARK    1  A    between atoms: C_1  and  C_2
REMARK    2  A    between atoms: N_7  and  C_8
REMARK    3  A    between atoms: C_12  and  C_13
REMARK    4  A    between atoms: N_19  and  C_20
REMARK                            x       y       z     vdW  Elec       q    Type
REMARK                         _______ _______ _______ _____ _____    ______ ____
ROOT
ATOM      1  C   UNL     1       1.749  10.550  18.195  0.00  0.00    +0.000 C 
ATOM      2  C   UNL     1       1.675   9.259  18.958  0.00  0.00    +0.000 A 
ATOM      3  C   UNL     1       0.924   9.160  20.122  0.00  0.00    +0.000 A 
ATOM      4  C   UNL     1       0.891   7.959  20.823  0.00  0.00    +0.000 A 
ATOM      5  C   UNL     1       1.613   6.844  20.364  0.00  0.00    +0.000 A 
ATOM      6  C   UNL     1       1.582   5.675  21.091  0.00  0.00    +0.000 A 
ATOM      7  N   UNL     1       2.275   4.575  20.714  0.00  0.00    +0.000 N 
ATOM      8  C   UNL     1       2.189   3.380  21.587  0.00  0.00    +0.000 C 
ATOM      9  C   UNL     1       3.031   4.571  19.585  0.00  0.00    +0.000 A 
ATOM     10  C   UNL     1       3.763   3.433  19.208  0.00  0.00    +0.000 A 
ATOM     11  C   UNL     1       4.559   3.426  18.065  0.00  0.00    +0.000 A 
ATOM     12  C   UNL     1       4.635   4.536  17.221  0.00  0.00    +0.000 A 
ATOM     13  C   UNL     1       3.878   5.665  17.584  0.00  0.00    +0.000 A 
ATOM     14  C   UNL     1       3.086   5.731  18.772  0.00  0.00    +0.000 A 
ATOM     15  C   UNL     1       2.370   6.896  19.185  0.00  0.00    +0.000 A 
ATOM     16  C   UNL     1       2.386   8.140  18.496  0.00  0.00    +0.000 A 
ENDROOT
BRANCH  12  17
ATOM     17  C   UNL     1       5.537   4.509  16.043  0.00  0.00    +0.000 A 
ATOM     18  C   UNL     1       6.784   5.163  16.086  0.00  0.00    +0.000 A 
ATOM     19  C   UNL     1       7.587   5.320  14.951  0.00  0.00    +0.000 A 
ATOM     20  C   UNL     1       7.172   4.752  13.738  0.00  0.00    +0.000 A 
ATOM     21  C   UNL     1       7.736   4.710  12.437  0.00  0.00    +0.000 A 
ATOM     22  C   UNL     1       6.929   3.909  11.663  0.00  0.00    +0.000 A 
ATOM     23  N   UNL     1       5.804   3.626  12.393  0.00  0.00    +0.000 N 
ATOM     24  C   UNL     1       4.593   3.062  11.839  0.00  0.00    +0.000 C 
ATOM     25  C   UNL     1       5.965   4.053  13.697  0.00  0.00    +0.000 A 
ATOM     26  C   UNL     1       5.136   3.921  14.827  0.00  0.00    +0.000 A 
ENDBRANCH  12  17
TORSDOF 1
ENDMDL
MODEL 2
REMARK VINA RESULT:      -8.8      2.698      7.954
REMARK  Name = 
REMARK  4 active torsions:
REMARK  status: ('A' for Active; 'I' for Inactive)
REMARK    1  A    between atoms: C_1  and  C_2
REMARK    2  A    between atoms: N_7  and  C_8
REMARK    3  A    between atoms: C_12  and  C_13
REMARK    4  A    between atoms: N_19  and  C_20
REMARK                            x       y       z     vdW  Elec       q    Type
REMARK                         _______ _______ _______ _____ _____    ______ ____
ROOT
ATOM      1  C   UNL     1       1.446   2.568  22.059  0.00  0.00    +0.000 C 
ATOM      2  C   UNL     1       2.449   2.984  21.022  0.00  0.00    +0.000 A 
ATOM      3  C   UNL     1       3.512   2.155  20.684  0.00  0.00    +0.000 A 
ATOM      4  C   UNL     1       4.440   2.574  19.738  0.00  0.00    +0.000 A 
ATOM      5  C   UNL     1       4.316   3.831  19.121  0.00  0.00    +0.000 A 
ATOM      6  C   UNL     1       5.264   4.230  18.206  0.00  0.00    +0.000 A 
ATOM      7  N   UNL     1       5.212   5.438  17.597  0.00  0.00    +0.000 N 
ATOM      8  C   UNL     1       6.300   5.773  16.648  0.00  0.00    +0.000 C 
ATOM      9  C   UNL     1       4.206   6.314  17.855  0.00  0.00    +0.000 A 
ATOM     10  C   UNL     1       4.166   7.574  17.234  0.00  0.00    +0.000 A 
ATOM     11  C   UNL     1       3.152   8.489  17.509  0.00  0.00    +0.000 A 
ATOM     12  C   UNL     1       2.109   8.181  18.384  0.00  0.00    +0.000 A 
ATOM     13  C   UNL     1       2.134   6.908  18.983  0.00  0.00    +0.000 A 
ATOM     14  C   UNL     1       3.180   5.958  18.765  0.00  0.00    +0.000 A 
ATOM     15  C   UNL     1       3.250   4.691  19.422  0.00  0.00    +0.000 A 
ATOM     16  C   UNL     1       2.322   4.234  20.396  0.00  0.00    +0.000 A 
ENDROOT
BRANCH  12  17
ATOM     17  C   UNL     1       1.078   9.202  18.694  0.00  0.00    +0.000 A 
ATOM     18  C   UNL     1       1.012   9.780  19.977  0.00  0.00    +0.000 A 
ATOM     19  C   UNL     1      -0.045  10.608  20.371  0.00  0.00    +0.000 A 
ATOM     20  C   UNL     1      -1.043  10.931  19.441  0.00  0.00    +0.000 A 
ATOM     21  C   UNL     1      -2.213  11.731  19.502  0.00  0.00    +0.000 A 
ATOM     22  C   UNL     1      -2.754  11.769  18.239  0.00  0.00    +0.000 A 
ATOM     23  N   UNL     1      -2.066  10.870  17.467  0.00  0.00    +0.000 N 
ATOM     24  C   UNL     1      -2.507  10.401  16.171  0.00  0.00    +0.000 C 
ATOM     25  C   UNL     1      -0.957  10.409  18.149  0.00  0.00    +0.000 A 
ATOM     26  C   UNL     1       0.084   9.548  17.757  0.00  0.00    +0.000 A 
ENDBRANCH  12  17
TORSDOF 1
ENDMDL
MODEL 3
REMARK VINA RESULT:      -8.7      2.956      9.078
REMARK  Name = 
REMARK  4 active torsions:
REMARK  status: ('A' for Active; 'I' for Inactive)
REMARK    1  A    between atoms: C_1  and  C_2
REMARK    2  A    between atoms: N_7  and  C_8
REMARK    3  A    between atoms: C_12  and  C_13
REMARK    4  A    between atoms: N_19  and  C_20
REMARK                            x       y       z     vdW  Elec       q    Type
REMARK                         _______ _______ _______ _____ _____    ______ ____
ROOT
ATOM      1  C   UNL     1       2.154   2.168  21.942  0.00  0.00    +0.000 C 
ATOM      2  C   UNL     1       2.686   2.894  20.741  0.00  0.00    +0.000 A 
ATOM      3  C   UNL     1       3.500   2.248  19.819  0.00  0.00    +0.000 A 
ATOM      4  C   UNL     1       3.999   2.950  18.728  0.00  0.00    +0.000 A 
ATOM      5  C   UNL     1       3.690   4.309  18.550  0.00  0.00    +0.000 A 
ATOM      6  C   UNL     1       4.219   4.986  17.473  0.00  0.00    +0.000 A 
ATOM      7  N   UNL     1       3.978   6.302  17.262  0.00  0.00    +0.000 N 
ATOM      8  C   UNL     1       4.620   6.934  16.085  0.00  0.00    +0.000 C 
ATOM      9  C   UNL     1       3.186   7.017  18.103  0.00  0.00    +0.000 A 
ATOM     10  C   UNL     1       2.954   8.386  17.890  0.00  0.00    +0.000 A 
ATOM     11  C   UNL     1       2.164   9.134  18.759  0.00  0.00    +0.000 A 
ATOM     12  C   UNL     1       1.535   8.550  19.860  0.00  0.00    +0.000 A 
ATOM     13  C   UNL     1       1.745   7.172  20.057  0.00  0.00    +0.000 A 
ATOM     14  C   UNL     1       2.586   6.379  19.216  0.00  0.00    +0.000 A 
ATOM     15  C   UNL     1       2.860   4.996  19.448  0.00  0.00    +0.000 A 
ATOM     16  C   UNL     1       2.370   4.249  20.555  0.00  0.00    +0.000 A 
ENDROOT
BRANCH  12  17
ATOM     17  C   UNL     1       0.747   9.391  20.794  0.00  0.00    +0.000 A 
ATOM     18  C   UNL     1       0.658   9.049  22.158  0.00  0.00    +0.000 A 
ATOM     19  C   UNL     1      -0.212   9.702  23.038  0.00  0.00    +0.000 A 
ATOM     20  C   UNL     1      -0.979  10.778  22.568  0.00  0.00    +0.000 A 
ATOM     21  C   UNL     1      -1.922  11.645  23.177  0.00  0.00    +0.000 A 
ATOM     22  C   UNL     1      -2.273  12.594  22.246  0.00  0.00    +0.000 A 
ATOM     23  N   UNL     1      -1.726  12.218  21.046  0.00  0.00    +0.000 N 
ATOM     24  C   UNL     1      -2.098  12.784  19.768  0.00  0.00    +0.000 C 
ATOM     25  C   UNL     1      -0.856  11.162  21.231  0.00  0.00    +0.000 A 
ATOM     26  C   UNL     1      -0.008  10.488  20.333  0.00  0.00    +0.000 A 
ENDBRANCH  12  17
TORSDOF 1
ENDMDL
MODEL 4
REMARK VINA RESULT:      -8.7      2.370      8.449
REMARK  Name = 
REMARK  4 active torsions:
REMARK  status: ('A' for Active; 'I' for Inactive)
REMARK    1  A    between atoms: C_1  and  C_2
REMARK    2  A    between atoms: N_7  and  C_8
REMARK    3  A    between atoms: C_12  and  C_13
REMARK    4  A    between atoms: N_19  and  C_20
REMARK                            x       y       z     vdW  Elec       q    Type
REMARK                         _______ _______ _______ _____ _____    ______ ____
ROOT
ATOM      1  C   UNL     1       1.467   2.456  21.946  0.00  0.00    +0.000 C 
ATOM      2  C   UNL     1       2.292   2.844  20.754  0.00  0.00    +0.000 A 
ATOM      3  C   UNL     1       3.143   1.930  20.146  0.00  0.00    +0.000 A 
ATOM      4  C   UNL     1       3.914   2.321  19.057  0.00  0.00    +0.000 A 
ATOM      5  C   UNL     1       3.843   3.637  18.567  0.00  0.00    +0.000 A 
ATOM      6  C   UNL     1       4.636   4.004  17.503  0.00  0.00    +0.000 A 
ATOM      7  N   UNL     1       4.630   5.262  17.002  0.00  0.00    +0.000 N 
ATOM      8  C   UNL     1       5.544   5.553  15.873  0.00  0.00    +0.000 C 
ATOM      9  C   UNL     1       3.825   6.225  17.524  0.00  0.00    +0.000 A 
ATOM     10  C   UNL     1       3.836   7.533  17.013  0.00  0.00    +0.000 A 
ATOM     11  C   UNL     1       3.032   8.533  17.555  0.00  0.00    +0.000 A 
ATOM     12  C   UNL     1       2.151   8.271  18.606  0.00  0.00    +0.000 A 
ATOM     13  C   UNL     1       2.119   6.953  19.098  0.00  0.00    +0.000 A 
ATOM     14  C   UNL     1       2.961   5.910  18.602  0.00  0.00    +0.000 A 
ATOM     15  C   UNL     1       2.985   4.587  19.142  0.00  0.00    +0.000 A 
ATOM     16  C   UNL     1       2.215   4.154  20.255  0.00  0.00    +0.000 A 
ENDROOT
BRANCH  12  17
ATOM     17  C   UNL     1       1.352   9.375  19.193  0.00  0.00    +0.000 A 
ATOM     18  C   UNL     1       1.230  10.604  18.517  0.00  0.00    +0.000 A 
ATOM     19  C   UNL     1       0.643  11.729  19.108  0.00  0.00    +0.000 A 
ATOM     20  C   UNL     1       0.097  11.618  20.394  0.00  0.00    +0.000 A 
ATOM     21  C   UNL     1      -0.567  12.529  21.256  0.00  0.00    +0.000 A 
ATOM     22  C   UNL     1      -0.982  11.824  22.361  0.00  0.00    +0.000 A 
ATOM     23  N   UNL     1      -0.428  10.573  22.287  0.00  0.00    +0.000 N 
ATOM     24  C   UNL     1      -0.382   9.634  23.387  0.00  0.00    +0.000 C 
ATOM     25  C   UNL     1       0.161  10.388  21.051  0.00  0.00    +0.000 A 
ATOM     26  C   UNL     1       0.781   9.262  20.477  0.00  0.00    +0.000 A 
ENDBRANCH  12  17
TORSDOF 1
ENDMDL
MODEL 5
REMARK VINA RESULT:      -8.6      3.618      6.765
REMARK  Name = 
REMARK  4 active torsions:
REMARK  status: ('A' for Active; 'I' for Inactive)
REMARK    1  A    between atoms: C_1  and  C_2
REMARK    2  A    between atoms: N_7  and  C_8
REMARK    3  A    between atoms: C_12  and  C_13
REMARK    4  A    between atoms: N_19  and  C_20
REMARK                            x       y       z     vdW  Elec       q    Type
REMARK                         _______ _______ _______ _____ _____    ______ ____
ROOT
ATOM      1  C   UNL     1      -3.438   9.826  14.475  0.00  0.00    +0.000 C 
ATOM      2  C   UNL     1      -3.278  10.419  15.845  0.00  0.00    +0.000 A 
ATOM      3  C   UNL     1      -4.164  11.379  16.316  0.00  0.00    +0.000 A 
ATOM      4  C   UNL     1      -3.980  11.930  17.579  0.00  0.00    +0.000 A 
ATOM      5  C   UNL     1      -2.901  11.526  18.384  0.00  0.00    +0.000 A 
ATOM      6  C   UNL     1      -2.728  12.106  19.621  0.00  0.00    +0.000 A 
ATOM      7  N   UNL     1      -1.694  11.776  20.432  0.00  0.00    +0.000 N 
ATOM      8  C   UNL     1      -1.592  12.484  21.730  0.00  0.00    +0.000 C 
ATOM      9  C   UNL     1      -0.780  10.841  20.063  0.00  0.00    +0.000 A 
ATOM     10  C   UNL     1       0.300  10.516  20.900  0.00  0.00    +0.000 A 
ATOM     11  C   UNL     1       1.256   9.576  20.522  0.00  0.00    +0.000 A 
ATOM     12  C   UNL     1       1.163   8.886  19.312  0.00  0.00    +0.000 A 
ATOM     13  C   UNL     1       0.064   9.191  18.487  0.00  0.00    +0.000 A 
ATOM     14  C   UNL     1      -0.912  10.182  18.816  0.00  0.00    +0.000 A 
ATOM     15  C   UNL     1      -1.991  10.548  17.954  0.00  0.00    +0.000 A 
ATOM     16  C   UNL     1      -2.207  10.010  16.656  0.00  0.00    +0.000 A 
ENDROOT
BRANCH  12  17
ATOM     17  C   UNL     1       2.231   7.934  18.919  0.00  0.00    +0.000 A 
ATOM     18  C   UNL     1       3.048   8.200  17.804  0.00  0.00    +0.000 A 
ATOM     19  C   UNL     1       3.943   7.256  17.289  0.00  0.00    +0.000 A 
ATOM     20  C   UNL     1       4.083   6.022  17.939  0.00  0.00    +0.000 A 
ATOM     21  C   UNL     1       4.886   4.877  17.700  0.00  0.00    +0.000 A 
ATOM     22  C   UNL     1       4.679   4.002  18.740  0.00  0.00    +0.000 A 
ATOM     23  N   UNL     1       3.643   4.491  19.492  0.00  0.00    +0.000 N 
ATOM     24  C   UNL     1       2.933   3.729  20.496  0.00  0.00    +0.000 C 
ATOM     25  C   UNL     1       3.319   5.769  19.079  0.00  0.00    +0.000 A 
ATOM     26  C   UNL     1       2.392   6.701  19.583  0.00  0.00    +0.000 A 
ENDBRANCH  12  17
TORSDOF 1
ENDMDL
MODEL 6
REMARK VINA RESULT:      -8.2      2.678      8.067
REMARK  Name = 
REMARK  4 active torsions:
REMARK  status: ('A' for Active; 'I' for Inactive)
REMARK    1  A    between atoms: C_1  and  C_2
REMARK    2  A    between atoms: N_7  and  C_8
REMARK    3  A    between atoms: C_12  and  C_13
REMARK    4  A    between atoms: N_19  and  C_20
REMARK                            x       y       z     vdW  Elec       q    Type
REMARK                         _______ _______ _______ _____ _____    ______ ____
ROOT
ATOM      1  C   UNL     1       7.473   7.538  17.075  0.00  0.00    +0.000 C 
ATOM      2  C   UNL     1       6.604   6.342  17.337  0.00  0.00    +0.000 A 
ATOM      3  C   UNL     1       6.936   5.093  16.826  0.00  0.00    +0.000 A 
ATOM      4  C   UNL     1       6.102   4.006  17.064  0.00  0.00    +0.000 A 
ATOM      5  C   UNL     1       4.924   4.160  17.814  0.00  0.00    +0.000 A 
ATOM      6  C   UNL     1       4.104   3.071  18.013  0.00  0.00    +0.000 A 
ATOM      7  N   UNL     1       2.944   3.161  18.707  0.00  0.00    +0.000 N 
ATOM      8  C   UNL     1       2.128   1.931  18.836  0.00  0.00    +0.000 C 
ATOM      9  C   UNL     1       2.539   4.338  19.253  0.00  0.00    +0.000 A 
ATOM     10  C   UNL     1       1.327   4.430  19.955  0.00  0.00    +0.000 A 
ATOM     11  C   UNL     1       0.891   5.636  20.499  0.00  0.00    +0.000 A 
ATOM     12  C   UNL     1       1.658   6.799  20.404  0.00  0.00    +0.000 A 
ATOM     13  C   UNL     1       2.886   6.699  19.725  0.00  0.00    +0.000 A 
ATOM     14  C   UNL     1       3.348   5.493  19.112  0.00  0.00    +0.000 A 
ATOM     15  C   UNL     1       4.560   5.399  18.362  0.00  0.00    +0.000 A 
ATOM     16  C   UNL     1       5.432   6.490  18.096  0.00  0.00    +0.000 A 
ENDROOT
BRANCH  12  17
ATOM     17  C   UNL     1       1.134   8.077  20.947  0.00  0.00    +0.000 A 
ATOM     18  C   UNL     1       0.291   8.079  22.075  0.00  0.00    +0.000 A 
ATOM     19  C   UNL     1      -0.370   9.232  22.514  0.00  0.00    +0.000 A 
ATOM     20  C   UNL     1      -0.139  10.445  21.851  0.00  0.00    +0.000 A 
ATOM     21  C   UNL     1      -0.619  11.768  22.038  0.00  0.00    +0.000 A 
ATOM     22  C   UNL     1       0.044  12.578  21.147  0.00  0.00    +0.000 A 
ATOM     23  N   UNL     1       0.760  11.767  20.304  0.00  0.00    +0.000 N 
ATOM     24  C   UNL     1       1.353  12.206  19.060  0.00  0.00    +0.000 C 
ATOM     25  C   UNL     1       0.739  10.466  20.766  0.00  0.00    +0.000 A 
ATOM     26  C   UNL     1       1.380   9.304  20.299  0.00  0.00    +0.000 A 
ENDBRANCH  12  17
TORSDOF 1
ENDMDL
MODEL 7
REMARK VINA RESULT:      -8.2      3.849      6.916
REMARK  Name = 
REMARK  4 active torsions:
REMARK  status: ('A' for Active; 'I' for Inactive)
REMARK    1  A    between atoms: C_1  and  C_2
REMARK    2  A    between atoms: N_7  and  C_8
REMARK    3  A    between atoms: C_12  and  C_13
REMARK    4  A    between atoms: N_19  and  C_20
REMARK                            x       y       z     vdW  Elec       q    Type
REMARK                         _______ _______ _______ _____ _____    ______ ____
ROOT
ATOM      1  C   UNL     1       3.238  14.353  17.868  0.00  0.00    +0.000 C 
ATOM      2  C   UNL     1       2.195  14.017  18.893  0.00  0.00    +0.000 A 
ATOM      3  C   UNL     1       1.463  15.017  19.521  0.00  0.00    +0.000 A 
ATOM      4  C   UNL     1       0.518  14.681  20.484  0.00  0.00    +0.000 A 
ATOM      5  C   UNL     1       0.298  13.337  20.831  0.00  0.00    +0.000 A 
ATOM      6  C   UNL     1      -0.627  13.035  21.806  0.00  0.00    +0.000 A 
ATOM      7  N   UNL     1      -0.865  11.761  22.201  0.00  0.00    +0.000 N 
ATOM      8  C   UNL     1      -1.863  11.555  23.277  0.00  0.00    +0.000 C 
ATOM      9  C   UNL     1      -0.207  10.714  21.639  0.00  0.00    +0.000 A 
ATOM     10  C   UNL     1      -0.444   9.397  22.064  0.00  0.00    +0.000 A 
ATOM     11  C   UNL     1       0.242   8.319  21.512  0.00  0.00    +0.000 A 
ATOM     12  C   UNL     1       1.169   8.494  20.483  0.00  0.00    +0.000 A 
ATOM     13  C   UNL     1       1.386   9.811  20.037  0.00  0.00    +0.000 A 
ATOM     14  C   UNL     1       0.738  10.949  20.609  0.00  0.00    +0.000 A 
ATOM     15  C   UNL     1       1.003  12.295  20.210  0.00  0.00    +0.000 A 
ATOM     16  C   UNL     1       1.964  12.675  19.234  0.00  0.00    +0.000 A 
ENDROOT
BRANCH  12  17
ATOM     17  C   UNL     1       1.922   7.327  19.959  0.00  0.00    +0.000 A 
ATOM     18  C   UNL     1       2.592   7.408  18.723  0.00  0.00    +0.000 A 
ATOM     19  C   UNL     1       3.160   6.289  18.104  0.00  0.00    +0.000 A 
ATOM     20  C   UNL     1       3.121   5.052  18.762  0.00  0.00    +0.000 A 
ATOM     21  C   UNL     1       3.600   3.757  18.436  0.00  0.00    +0.000 A 
ATOM     22  C   UNL     1       3.369   2.945  19.522  0.00  0.00    +0.000 A 
ATOM     23  N   UNL     1       2.601   3.651  20.410  0.00  0.00    +0.000 N 
ATOM     24  C   UNL     1       1.905   3.063  21.534  0.00  0.00    +0.000 C 
ATOM     25  C   UNL     1       2.509   4.971  20.014  0.00  0.00    +0.000 A 
ATOM     26  C   UNL     1       1.906   6.085  20.626  0.00  0.00    +0.000 A 
ENDBRANCH  12  17
TORSDOF 1
ENDMDL
MODEL 8
REMARK VINA RESULT:      -8.1      2.384      8.072
REMARK  Name = 
REMARK  4 active torsions:
REMARK  status: ('A' for Active; 'I' for Inactive)
REMARK    1  A    between atoms: C_1  and  C_2
REMARK    2  A    between atoms: N_7  and  C_8
REMARK    3  A    between atoms: C_12  and  C_13
REMARK    4  A    between atoms: N_19  and  C_20
REMARK                            x       y       z     vdW  Elec       q    Type
REMARK                         _______ _______ _______ _____ _____    ______ ____
ROOT
ATOM      1  C   UNL     1       5.705   5.605  14.865  0.00  0.00    +0.000 C 
ATOM      2  C   UNL     1       5.095   5.005  16.099  0.00  0.00    +0.000 A 
ATOM      3  C   UNL     1       5.282   3.664  16.407  0.00  0.00    +0.000 A 
ATOM      4  C   UNL     1       4.687   3.126  17.543  0.00  0.00    +0.000 A 
ATOM      5  C   UNL     1       3.896   3.928  18.383  0.00  0.00    +0.000 A 
ATOM      6  C   UNL     1       3.299   3.364  19.488  0.00  0.00    +0.000 A 
ATOM      7  N   UNL     1       2.505   4.079  20.320  0.00  0.00    +0.000 N 
ATOM      8  C   UNL     1       1.893   3.363  21.464  0.00  0.00    +0.000 C 
ATOM      9  C   UNL     1       2.270   5.401  20.108  0.00  0.00    +0.000 A 
ATOM     10  C   UNL     1       1.432   6.133  20.964  0.00  0.00    +0.000 A 
ATOM     11  C   UNL     1       1.165   7.482  20.742  0.00  0.00    +0.000 A 
ATOM     12  C   UNL     1       1.750   8.177  19.681  0.00  0.00    +0.000 A 
ATOM     13  C   UNL     1       2.612   7.449  18.841  0.00  0.00    +0.000 A 
ATOM     14  C   UNL     1       2.875   6.054  19.005  0.00  0.00    +0.000 A 
ATOM     15  C   UNL     1       3.694   5.291  18.117  0.00  0.00    +0.000 A 
ATOM     16  C   UNL     1       4.313   5.806  16.945  0.00  0.00    +0.000 A 
ENDROOT
BRANCH  12  17
ATOM     17  C   UNL     1       1.397   9.599  19.445  0.00  0.00    +0.000 A 
ATOM     18  C   UNL     1       1.882  10.273  18.307  0.00  0.00    +0.000 A 
ATOM     19  C   UNL     1       1.729  11.653  18.132  0.00  0.00    +0.000 A 
ATOM     20  C   UNL     1       1.012  12.386  19.088  0.00  0.00    +0.000 A 
ATOM     21  C   UNL     1       0.665  13.757  19.209  0.00  0.00    +0.000 A 
ATOM     22  C   UNL     1      -0.150  13.882  20.309  0.00  0.00    +0.000 A 
ATOM     23  N   UNL     1      -0.150  12.677  20.963  0.00  0.00    +0.000 N 
ATOM     24  C   UNL     1      -0.644  12.479  22.308  0.00  0.00    +0.000 C 
ATOM     25  C   UNL     1       0.478  11.718  20.191  0.00  0.00    +0.000 A 
ATOM     26  C   UNL     1       0.658  10.337  20.390  0.00  0.00    +0.000 A 
ENDBRANCH  12  17
TORSDOF 1
ENDMDL
MODEL 9
REMARK VINA RESULT:      -8.0      2.732      8.184
REMARK  Name = 
REMARK  4 active torsions:
REMARK  status: ('A' for Active; 'I' for Inactive)
REMARK    1  A    between atoms: C_1  and  C_2
REMARK    2  A    between atoms: N_7  and  C_8
REMARK    3  A    between atoms: C_12  and  C_13
REMARK    4  A    between atoms: N_19  and  C_20
REMARK                            x       y       z     vdW  Elec       q    Type
REMARK                         _______ _______ _______ _____ _____    ______ ____
ROOT
ATOM      1  C   UNL     1       1.368   2.693  21.941  0.00  0.00    +0.000 C 
ATOM      2  C   UNL     1       2.407   3.090  20.934  0.00  0.00    +0.000 A 
ATOM      3  C   UNL     1       3.481   2.256  20.649  0.00  0.00    +0.000 A 
ATOM      4  C   UNL     1       4.442   2.658  19.729  0.00  0.00    +0.000 A 
ATOM      5  C   UNL     1       4.339   3.902  19.084  0.00  0.00    +0.000 A 
ATOM      6  C   UNL     1       5.319   4.285  18.196  0.00  0.00    +0.000 A 
ATOM      7  N   UNL     1       5.288   5.482  17.562  0.00  0.00    +0.000 N 
ATOM      8  C   UNL     1       6.409   5.800  16.647  0.00  0.00    +0.000 C 
ATOM      9  C   UNL     1       4.273   6.361  17.768  0.00  0.00    +0.000 A 
ATOM     10  C   UNL     1       4.255   7.609  17.122  0.00  0.00    +0.000 A 
ATOM     11  C   UNL     1       3.232   8.528  17.343  0.00  0.00    +0.000 A 
ATOM     12  C   UNL     1       2.158   8.236  18.186  0.00  0.00    +0.000 A 
ATOM     13  C   UNL     1       2.162   6.974  18.810  0.00  0.00    +0.000 A 
ATOM     14  C   UNL     1       3.216   6.022  18.647  0.00  0.00    +0.000 A 
ATOM     15  C   UNL     1       3.263   4.768  19.330  0.00  0.00    +0.000 A 
ATOM     16  C   UNL     1       2.301   4.328  20.280  0.00  0.00    +0.000 A 
ENDROOT
BRANCH  12  17
ATOM     17  C   UNL     1       1.116   9.261  18.440  0.00  0.00    +0.000 A 
ATOM     18  C   UNL     1      -0.118   9.206  17.765  0.00  0.00    +0.000 A 
ATOM     19  C   UNL     1      -1.057  10.241  17.833  0.00  0.00    +0.000 A 
ATOM     20  C   UNL     1      -0.794  11.348  18.652  0.00  0.00    +0.000 A 
ATOM     21  C   UNL     1      -1.514  12.532  18.955  0.00  0.00    +0.000 A 
ATOM     22  C   UNL     1      -0.806  13.212  19.918  0.00  0.00    +0.000 A 
ATOM     23  N   UNL     1       0.402  12.581  20.065  0.00  0.00    +0.000 N 
ATOM     24  C   UNL     1       1.538  13.147  20.760  0.00  0.00    +0.000 C 
ATOM     25  C   UNL     1       0.403  11.388  19.370  0.00  0.00    +0.000 A 
ATOM     26  C   UNL     1       1.365  10.366  19.280  0.00  0.00    +0.000 A 
ENDBRANCH  12  17
TORSDOF 1
ENDMDL
