MODEL 1
REMARK VINA RESULT:      -7.0      0.000      0.000
REMARK  Name = 
REMARK  8 active torsions:
REMARK  status: ('A' for Active; 'I' for Inactive)
REMARK    1  A    between atoms: C_1  and  C_2
REMARK    2  A    between atoms: N_4  and  C_5
REMARK    3  A    between atoms: C_5  and  C_6
REMARK    4  A    between atoms: C_5  and  C_12
REMARK    5  A    between atoms: C_6  and  O_7
REMARK    6  A    between atoms: O_7  and  P_8
REMARK    7  A    between atoms: P_8  and  O_10
REMARK    8  A    between atoms: P_8  and  O_11
REMARK                            x       y       z     vdW  Elec       q    Type
REMARK                         _______ _______ _______ _____ _____    ______ ____
ROOT
ATOM      1  C   UNL     1       5.005   4.206  17.326  0.00  0.00    +0.000 C 
ENDROOT
BRANCH   1   2
ATOM      2  C   UNL     1       3.638   3.746  17.798  0.00  0.00    +0.000 A 
ATOM      3  C   UNL     1       3.347   2.372  17.836  0.00  0.00    +0.000 A 
ATOM      4  C   UNL     1       2.102   1.930  18.276  0.00  0.00    +0.000 A 
ATOM      5  C   UNL     1       1.132   2.839  18.677  0.00  0.00    +0.000 A 
ATOM      6  C   UNL     1       1.405   4.203  18.642  0.00  0.00    +0.000 A 
ATOM      7  C   UNL     1       2.652   4.659  18.208  0.00  0.00    +0.000 A 
ENDBRANCH   1   2
BRANCH   1  11
ATOM      8  C   UNL     1       6.064   3.980  13.682  0.00  0.00    +0.000 C 
ATOM      9  C   UNL     1       6.236   4.158  15.163  0.00  0.00    +0.000 C 
ATOM     10  O   UNL     1       7.339   4.335  15.682  0.00  0.00    +0.000 OA
ATOM     11  N   UNL     1       5.059   4.168  15.863  0.00  0.00    +0.000 N 
ATOM     12  H   UNL     1       4.188   4.159  15.353  0.00  0.00    +0.000 HD
ENDBRANCH   1  11
BRANCH   1  13
ATOM     13  C   UNL     1       5.353   5.602  17.892  0.00  0.00    +0.000 C 
BRANCH  13  14
ATOM     14  O   UNL     1       6.047   5.547  19.134  0.00  0.00    +0.000 OA
BRANCH  14  15
ATOM     15  P   UNL     1       7.633   5.760  19.138  0.00  0.00    +0.000 P 
ATOM     16  O   UNL     1       8.170   7.036  18.589  0.00  0.00    +0.000 OA
BRANCH  15  17
ATOM     17  O   UNL     1       8.037   5.445  20.648  0.00  0.00    +0.000 OA
ATOM     18  H   UNL     1       8.401   4.532  20.714  0.00  0.00    +0.000 HD
ENDBRANCH  15  17
BRANCH  15  19
ATOM     19  O   UNL     1       8.200   4.468  18.389  0.00  0.00    +0.000 OA
ATOM     20  H   UNL     1       7.553   3.742  18.442  0.00  0.00    +0.000 HD
ENDBRANCH  15  19
ENDBRANCH  14  15
ENDBRANCH  13  14
ENDBRANCH   1  13
TORSDOF 7
ENDMDL
MODEL 2
REMARK VINA RESULT:      -6.9      0.741      1.756
REMARK  Name = 
REMARK  8 active torsions:
REMARK  status: ('A' for Active; 'I' for Inactive)
REMARK    1  A    between atoms: C_1  and  C_2
REMARK    2  A    between atoms: N_4  and  C_5
REMARK    3  A    between atoms: C_5  and  C_6
REMARK    4  A    between atoms: C_5  and  C_12
REMARK    5  A    between atoms: C_6  and  O_7
REMARK    6  A    between atoms: O_7  and  P_8
REMARK    7  A    between atoms: P_8  and  O_10
REMARK    8  A    between atoms: P_8  and  O_11
REMARK                            x       y       z     vdW  Elec       q    Type
REMARK                         _______ _______ _______ _____ _____    ______ ____
ROOT
ATOM      1  C   UNL     1       5.121   4.578  16.809  0.00  0.00    +0.000 C 
ENDROOT
BRANCH   1   2
ATOM      2  C   UNL     1       3.839   4.002  17.380  0.00  0.00    +0.000 A 
ATOM      3  C   UNL     1       2.783   4.867  17.717  0.00  0.00    +0.000 A 
ATOM      4  C   UNL     1       1.595   4.358  18.233  0.00  0.00    +0.000 A 
ATOM      5  C   UNL     1       1.439   2.992  18.428  0.00  0.00    +0.000 A 
ATOM      6  C   UNL     1       2.475   2.123  18.102  0.00  0.00    +0.000 A 
ATOM      7  C   UNL     1       3.671   2.622  17.578  0.00  0.00    +0.000 A 
ENDBRANCH   1   2
BRANCH   1  11
ATOM      8  C   UNL     1       6.203   3.816  13.245  0.00  0.00    +0.000 C 
ATOM      9  C   UNL     1       6.363   4.234  14.679  0.00  0.00    +0.000 C 
ATOM     10  O   UNL     1       7.455   4.534  15.161  0.00  0.00    +0.000 OA
ATOM     11  N   UNL     1       5.183   4.310  15.370  0.00  0.00    +0.000 N 
ATOM     12  H   UNL     1       4.315   4.186  14.870  0.00  0.00    +0.000 HD
ENDBRANCH   1  11
BRANCH   1  13
ATOM     13  C   UNL     1       5.252   6.084  17.133  0.00  0.00    +0.000 C 
BRANCH  13  14
ATOM     14  O   UNL     1       6.569   6.462  17.521  0.00  0.00    +0.000 OA
BRANCH  14  15
ATOM     15  P   UNL     1       7.272   5.674  18.723  0.00  0.00    +0.000 P 
ATOM     16  O   UNL     1       6.415   5.192  19.842  0.00  0.00    +0.000 OA
BRANCH  15  17
ATOM     17  O   UNL     1       8.111   4.543  17.973  0.00  0.00    +0.000 OA
ATOM     18  H   UNL     1       9.062   4.796  17.942  0.00  0.00    +0.000 HD
ENDBRANCH  15  17
BRANCH  15  19
ATOM     19  O   UNL     1       8.436   6.656  19.203  0.00  0.00    +0.000 OA
ATOM     20  H   UNL     1       9.212   6.141  19.487  0.00  0.00    +0.000 HD
ENDBRANCH  15  19
ENDBRANCH  14  15
ENDBRANCH  13  14
ENDBRANCH   1  13
TORSDOF 7
ENDMDL
MODEL 3
REMARK VINA RESULT:      -6.7      1.430      4.728
REMARK  Name = 
REMARK  8 active torsions:
REMARK  status: ('A' for Active; 'I' for Inactive)
REMARK    1  A    between atoms: C_1  and  C_2
REMARK    2  A    between atoms: N_4  and  C_5
REMARK    3  A    between atoms: C_5  and  C_6
REMARK    4  A    between atoms: C_5  and  C_12
REMARK    5  A    between atoms: C_6  and  O_7
REMARK    6  A    between atoms: O_7  and  P_8
REMARK    7  A    between atoms: P_8  and  O_10
REMARK    8  A    between atoms: P_8  and  O_11
REMARK                            x       y       z     vdW  Elec       q    Type
REMARK                         _______ _______ _______ _____ _____    ______ ____
ROOT
ATOM      1  C   UNL     1       6.304   4.604  16.074  0.00  0.00    +0.000 C 
ENDROOT
BRANCH   1   2
ATOM      2  C   UNL     1       6.506   4.437  14.579  0.00  0.00    +0.000 A 
ATOM      3  C   UNL     1       7.508   5.180  13.931  0.00  0.00    +0.000 A 
ATOM      4  C   UNL     1       7.717   5.034  12.563  0.00  0.00    +0.000 A 
ATOM      5  C   UNL     1       6.935   4.158  11.820  0.00  0.00    +0.000 A 
ATOM      6  C   UNL     1       5.938   3.418  12.447  0.00  0.00    +0.000 A 
ATOM      7  C   UNL     1       5.723   3.552  13.821  0.00  0.00    +0.000 A 
ENDBRANCH   1   2
BRANCH   1  11
ATOM      8  C   UNL     1       3.208   2.862  17.428  0.00  0.00    +0.000 C 
ATOM      9  C   UNL     1       4.137   4.007  17.144  0.00  0.00    +0.000 C 
ATOM     10  O   UNL     1       3.877   5.164  17.474  0.00  0.00    +0.000 OA
ATOM     11  N   UNL     1       5.313   3.636  16.548  0.00  0.00    +0.000 N 
ATOM     12  H   UNL     1       5.514   2.653  16.436  0.00  0.00    +0.000 HD
ENDBRANCH   1  11
BRANCH   1  13
ATOM     13  C   UNL     1       7.644   4.494  16.836  0.00  0.00    +0.000 C 
BRANCH  13  14
ATOM     14  O   UNL     1       7.480   4.360  18.244  0.00  0.00    +0.000 OA
BRANCH  14  15
ATOM     15  P   UNL     1       7.407   5.684  19.139  0.00  0.00    +0.000 P 
ATOM     16  O   UNL     1       7.923   6.953  18.557  0.00  0.00    +0.000 OA
BRANCH  15  17
ATOM     17  O   UNL     1       5.883   5.720  19.608  0.00  0.00    +0.000 OA
ATOM     18  H   UNL     1       5.656   6.617  19.945  0.00  0.00    +0.000 HD
ENDBRANCH  15  17
BRANCH  15  19
ATOM     19  O   UNL     1       8.139   5.274  20.498  0.00  0.00    +0.000 OA
ATOM     20  H   UNL     1       8.950   5.802  20.612  0.00  0.00    +0.000 HD
ENDBRANCH  15  19
ENDBRANCH  14  15
ENDBRANCH  13  14
ENDBRANCH   1  13
TORSDOF 7
ENDMDL
MODEL 4
REMARK VINA RESULT:      -6.6      0.243      1.591
REMARK  Name = 
REMARK  8 active torsions:
REMARK  status: ('A' for Active; 'I' for Inactive)
REMARK    1  A    between atoms: C_1  and  C_2
REMARK    2  A    between atoms: N_4  and  C_5
REMARK    3  A    between atoms: C_5  and  C_6
REMARK    4  A    between atoms: C_5  and  C_12
REMARK    5  A    between atoms: C_6  and  O_7
REMARK    6  A    between atoms: O_7  and  P_8
REMARK    7  A    between atoms: P_8  and  O_10
REMARK    8  A    between atoms: P_8  and  O_11
REMARK                            x       y       z     vdW  Elec       q    Type
REMARK                         _______ _______ _______ _____ _____    ______ ____
ROOT
ATOM      1  C   UNL     1       5.123   4.351  17.150  0.00  0.00    +0.000 C 
ENDROOT
BRANCH   1   2
ATOM      2  C   UNL     1       3.788   3.859  17.675  0.00  0.00    +0.000 A 
ATOM      3  C   UNL     1       2.867   4.784  18.197  0.00  0.00    +0.000 A 
ATOM      4  C   UNL     1       1.633   4.355  18.674  0.00  0.00    +0.000 A 
ATOM      5  C   UNL     1       1.296   3.008  18.647  0.00  0.00    +0.000 A 
ATOM      6  C   UNL     1       2.197   2.079  18.135  0.00  0.00    +0.000 A 
ATOM      7  C   UNL     1       3.438   2.499  17.648  0.00  0.00    +0.000 A 
ENDBRANCH   1   2
BRANCH   1  11
ATOM      8  C   UNL     1       6.108   4.018  13.493  0.00  0.00    +0.000 C 
ATOM      9  C   UNL     1       6.305   4.271  14.960  0.00  0.00    +0.000 C 
ATOM     10  O   UNL     1       7.408   4.529  15.443  0.00  0.00    +0.000 OA
ATOM     11  N   UNL     1       5.146   4.251  15.689  0.00  0.00    +0.000 N 
ATOM     12  H   UNL     1       4.264   4.173  15.202  0.00  0.00    +0.000 HD
ENDBRANCH   1  11
BRANCH   1  13
ATOM     13  C   UNL     1       5.426   5.784  17.646  0.00  0.00    +0.000 C 
BRANCH  13  14
ATOM     14  O   UNL     1       6.031   5.815  18.935  0.00  0.00    +0.000 OA
BRANCH  14  15
ATOM     15  P   UNL     1       7.606   5.558  19.052  0.00  0.00    +0.000 P 
ATOM     16  O   UNL     1       8.192   4.433  18.272  0.00  0.00    +0.000 OA
BRANCH  15  17
ATOM     17  O   UNL     1       8.231   6.994  18.750  0.00  0.00    +0.000 OA
ATOM     18  H   UNL     1       7.610   7.520  18.195  0.00  0.00    +0.000 HD
ENDBRANCH  15  17
BRANCH  15  19
ATOM     19  O   UNL     1       7.862   5.432  20.623  0.00  0.00    +0.000 OA
ATOM     20  H   UNL     1       8.805   5.575  20.819  0.00  0.00    +0.000 HD
ENDBRANCH  15  19
ENDBRANCH  14  15
ENDBRANCH  13  14
ENDBRANCH   1  13
TORSDOF 7
ENDMDL
MODEL 5
REMARK VINA RESULT:      -6.6      0.818      1.470
REMARK  Name = 
REMARK  8 active torsions:
REMARK  status: ('A' for Active; 'I' for Inactive)
REMARK    1  A    between atoms: C_1  and  C_2
REMARK    2  A    between atoms: N_4  and  C_5
REMARK    3  A    between atoms: C_5  and  C_6
REMARK    4  A    between atoms: C_5  and  C_12
REMARK    5  A    between atoms: C_6  and  O_7
REMARK    6  A    between atoms: O_7  and  P_8
REMARK    7  A    between atoms: P_8  and  O_10
REMARK    8  A    between atoms: P_8  and  O_11
REMARK                            x       y       z     vdW  Elec       q    Type
REMARK                         _______ _______ _______ _____ _____    ______ ____
ROOT
ATOM      1  C   UNL     1       4.868   4.471  16.818  0.00  0.00    +0.000 C 
ENDROOT
BRANCH   1   2
ATOM      2  C   UNL     1       3.644   3.822  17.437  0.00  0.00    +0.000 A 
ATOM      3  C   UNL     1       3.689   2.464  17.795  0.00  0.00    +0.000 A 
ATOM      4  C   UNL     1       2.581   1.853  18.375  0.00  0.00    +0.000 A 
ATOM      5  C   UNL     1       1.416   2.574  18.600  0.00  0.00    +0.000 A 
ATOM      6  C   UNL     1       1.355   3.919  18.249  0.00  0.00    +0.000 A 
ATOM      7  C   UNL     1       2.463   4.545  17.672  0.00  0.00    +0.000 A 
ENDBRANCH   1   2
BRANCH   1  11
ATOM      8  C   UNL     1       5.673   3.821  13.160  0.00  0.00    +0.000 C 
ATOM      9  C   UNL     1       5.954   4.098  14.609  0.00  0.00    +0.000 C 
ATOM     10  O   UNL     1       7.098   4.184  15.054  0.00  0.00    +0.000 OA
ATOM     11  N   UNL     1       4.830   4.307  15.363  0.00  0.00    +0.000 N 
ATOM     12  H   UNL     1       3.934   4.360  14.900  0.00  0.00    +0.000 HD
ENDBRANCH   1  11
BRANCH   1  13
ATOM     13  C   UNL     1       4.989   5.954  17.239  0.00  0.00    +0.000 C 
BRANCH  13  14
ATOM     14  O   UNL     1       5.903   6.159  18.311  0.00  0.00    +0.000 OA
BRANCH  14  15
ATOM     15  P   UNL     1       7.457   5.865  18.064  0.00  0.00    +0.000 P 
ATOM     16  O   UNL     1       7.944   4.471  18.251  0.00  0.00    +0.000 OA
BRANCH  15  17
ATOM     17  O   UNL     1       7.718   6.490  16.620  0.00  0.00    +0.000 OA
ATOM     18  H   UNL     1       8.565   6.993  16.621  0.00  0.00    +0.000 HD
ENDBRANCH  15  17
BRANCH  15  19
ATOM     19  O   UNL     1       8.205   6.921  18.999  0.00  0.00    +0.000 OA
ATOM     20  H   UNL     1       8.088   6.679  19.935  0.00  0.00    +0.000 HD
ENDBRANCH  15  19
ENDBRANCH  14  15
ENDBRANCH  13  14
ENDBRANCH   1  13
TORSDOF 7
ENDMDL
MODEL 6
REMARK VINA RESULT:      -6.6      2.294      3.613
REMARK  Name = 
REMARK  8 active torsions:
REMARK  status: ('A' for Active; 'I' for Inactive)
REMARK    1  A    between atoms: C_1  and  C_2
REMARK    2  A    between atoms: N_4  and  C_5
REMARK    3  A    between atoms: C_5  and  C_6
REMARK    4  A    between atoms: C_5  and  C_12
REMARK    5  A    between atoms: C_6  and  O_7
REMARK    6  A    between atoms: O_7  and  P_8
REMARK    7  A    between atoms: P_8  and  O_10
REMARK    8  A    between atoms: P_8  and  O_11
REMARK                            x       y       z     vdW  Elec       q    Type
REMARK                         _______ _______ _______ _____ _____    ______ ____
ROOT
ATOM      1  C   UNL     1       4.331   4.958  17.805  0.00  0.00    +0.000 C 
ENDROOT
BRANCH   1   2
ATOM      2  C   UNL     1       3.178   4.589  18.720  0.00  0.00    +0.000 A 
ATOM      3  C   UNL     1       2.184   3.710  18.258  0.00  0.00    +0.000 A 
ATOM      4  C   UNL     1       1.123   3.351  19.085  0.00  0.00    +0.000 A 
ATOM      5  C   UNL     1       1.031   3.860  20.374  0.00  0.00    +0.000 A 
ATOM      6  C   UNL     1       2.006   4.733  20.845  0.00  0.00    +0.000 A 
ATOM      7  C   UNL     1       3.078   5.097  20.026  0.00  0.00    +0.000 A 
ENDBRANCH   1   2
BRANCH   1  11
ATOM      8  C   UNL     1       7.702   5.692  19.401  0.00  0.00    +0.000 C 
ATOM      9  C   UNL     1       6.556   5.870  18.446  0.00  0.00    +0.000 C 
ATOM     10  O   UNL     1       6.529   6.774  17.611  0.00  0.00    +0.000 OA
ATOM     11  N   UNL     1       5.589   4.907  18.552  0.00  0.00    +0.000 N 
ATOM     12  H   UNL     1       5.749   4.119  19.164  0.00  0.00    +0.000 HD
ENDBRANCH   1  11
BRANCH   1  13
ATOM     13  C   UNL     1       4.357   4.060  16.547  0.00  0.00    +0.000 C 
BRANCH  13  14
ATOM     14  O   UNL     1       5.674   3.718  16.128  0.00  0.00    +0.000 OA
BRANCH  14  15
ATOM     15  P   UNL     1       6.299   4.473  14.864  0.00  0.00    +0.000 P 
ATOM     16  O   UNL     1       6.300   3.764  13.554  0.00  0.00    +0.000 OA
BRANCH  15  17
ATOM     17  O   UNL     1       5.549   5.881  14.876  0.00  0.00    +0.000 OA
ATOM     18  H   UNL     1       5.218   6.092  13.972  0.00  0.00    +0.000 HD
ENDBRANCH  15  17
BRANCH  15  19
ATOM     19  O   UNL     1       7.760   4.896  15.348  0.00  0.00    +0.000 OA
ATOM     20  H   UNL     1       7.956   5.806  15.062  0.00  0.00    +0.000 HD
ENDBRANCH  15  19
ENDBRANCH  14  15
ENDBRANCH  13  14
ENDBRANCH   1  13
TORSDOF 7
ENDMDL
MODEL 7
REMARK VINA RESULT:      -6.6      2.175      3.509
REMARK  Name = 
REMARK  8 active torsions:
REMARK  status: ('A' for Active; 'I' for Inactive)
REMARK    1  A    between atoms: C_1  and  C_2
REMARK    2  A    between atoms: N_4  and  C_5
REMARK    3  A    between atoms: C_5  and  C_6
REMARK    4  A    between atoms: C_5  and  C_12
REMARK    5  A    between atoms: C_6  and  O_7
REMARK    6  A    between atoms: O_7  and  P_8
REMARK    7  A    between atoms: P_8  and  O_10
REMARK    8  A    between atoms: P_8  and  O_11
REMARK                            x       y       z     vdW  Elec       q    Type
REMARK                         _______ _______ _______ _____ _____    ______ ____
ROOT
ATOM      1  C   UNL     1       4.667   5.300  17.723  0.00  0.00    +0.000 C 
ENDROOT
BRANCH   1   2
ATOM      2  C   UNL     1       3.434   4.869  18.494  0.00  0.00    +0.000 A 
ATOM      3  C   UNL     1       2.435   4.127  17.840  0.00  0.00    +0.000 A 
ATOM      4  C   UNL     1       1.301   3.712  18.532  0.00  0.00    +0.000 A 
ATOM      5  C   UNL     1       1.139   4.031  19.875  0.00  0.00    +0.000 A 
ATOM      6  C   UNL     1       2.118   4.766  20.535  0.00  0.00    +0.000 A 
ATOM      7  C   UNL     1       3.263   5.183  19.852  0.00  0.00    +0.000 A 
ENDBRANCH   1   2
BRANCH   1  11
ATOM      8  C   UNL     1       7.970   5.680  19.567  0.00  0.00    +0.000 C 
ATOM      9  C   UNL     1       6.917   5.984  18.539  0.00  0.00    +0.000 C 
ATOM     10  O   UNL     1       7.035   6.900  17.726  0.00  0.00    +0.000 OA
ATOM     11  N   UNL     1       5.858   5.116  18.554  0.00  0.00    +0.000 N 
ATOM     12  H   UNL     1       5.899   4.306  19.157  0.00  0.00    +0.000 HD
ENDBRANCH   1  11
BRANCH   1  13
ATOM     13  C   UNL     1       4.772   4.556  16.372  0.00  0.00    +0.000 C 
BRANCH  13  14
ATOM     14  O   UNL     1       5.431   5.314  15.363  0.00  0.00    +0.000 OA
BRANCH  14  15
ATOM     15  P   UNL     1       6.777   4.734  14.722  0.00  0.00    +0.000 P 
ATOM     16  O   UNL     1       7.475   5.555  13.694  0.00  0.00    +0.000 OA
BRANCH  15  17
ATOM     17  O   UNL     1       7.653   4.355  16.000  0.00  0.00    +0.000 OA
ATOM     18  H   UNL     1       7.524   3.405  16.225  0.00  0.00    +0.000 HD
ENDBRANCH  15  17
BRANCH  15  19
ATOM     19  O   UNL     1       6.362   3.286  14.191  0.00  0.00    +0.000 OA
ATOM     20  H   UNL     1       5.625   2.935  14.722  0.00  0.00    +0.000 HD
ENDBRANCH  15  19
ENDBRANCH  14  15
ENDBRANCH  13  14
ENDBRANCH   1  13
TORSDOF 7
ENDMDL
MODEL 8
REMARK VINA RESULT:      -6.5      2.769      5.302
REMARK  Name = 
REMARK  8 active torsions:
REMARK  status: ('A' for Active; 'I' for Inactive)
REMARK    1  A    between atoms: C_1  and  C_2
REMARK    2  A    between atoms: N_4  and  C_5
REMARK    3  A    between atoms: C_5  and  C_6
REMARK    4  A    between atoms: C_5  and  C_12
REMARK    5  A    between atoms: C_6  and  O_7
REMARK    6  A    between atoms: O_7  and  P_8
REMARK    7  A    between atoms: P_8  and  O_10
REMARK    8  A    between atoms: P_8  and  O_11
REMARK                            x       y       z     vdW  Elec       q    Type
REMARK                         _______ _______ _______ _____ _____    ______ ____
ROOT
ATOM      1  C   UNL     1       6.207   4.949  16.021  0.00  0.00    +0.000 C 
ENDROOT
BRANCH   1   2
ATOM      2  C   UNL     1       6.485   4.648  14.560  0.00  0.00    +0.000 A 
ATOM      3  C   UNL     1       7.517   5.334  13.898  0.00  0.00    +0.000 A 
ATOM      4  C   UNL     1       7.795   5.066  12.561  0.00  0.00    +0.000 A 
ATOM      5  C   UNL     1       7.052   4.123  11.862  0.00  0.00    +0.000 A 
ATOM      6  C   UNL     1       6.025   3.437  12.503  0.00  0.00    +0.000 A 
ATOM      7  C   UNL     1       5.741   3.694  13.847  0.00  0.00    +0.000 A 
ENDBRANCH   1   2
BRANCH   1  11
ATOM      8  C   UNL     1       7.805   7.992  17.645  0.00  0.00    +0.000 C 
ATOM      9  C   UNL     1       7.242   6.602  17.568  0.00  0.00    +0.000 C 
ATOM     10  O   UNL     1       7.227   5.842  18.537  0.00  0.00    +0.000 OA
ATOM     11  N   UNL     1       6.699   6.288  16.351  0.00  0.00    +0.000 N 
ATOM     12  H   UNL     1       6.622   7.011  15.650  0.00  0.00    +0.000 HD
ENDBRANCH   1  11
BRANCH   1  13
ATOM     13  C   UNL     1       4.708   4.774  16.353  0.00  0.00    +0.000 C 
BRANCH  13  14
ATOM     14  O   UNL     1       4.441   3.629  17.156  0.00  0.00    +0.000 OA
BRANCH  14  15
ATOM     15  P   UNL     1       4.188   3.830  18.723  0.00  0.00    +0.000 P 
ATOM     16  O   UNL     1       2.988   3.189  19.328  0.00  0.00    +0.000 OA
BRANCH  15  17
ATOM     17  O   UNL     1       5.583   3.411  19.372  0.00  0.00    +0.000 OA
ATOM     18  H   UNL     1       5.959   4.168  19.878  0.00  0.00    +0.000 HD
ENDBRANCH  15  17
BRANCH  15  19
ATOM     19  O   UNL     1       4.218   5.415  18.920  0.00  0.00    +0.000 OA
ATOM     20  H   UNL     1       5.102   5.761  18.705  0.00  0.00    +0.000 HD
ENDBRANCH  15  19
ENDBRANCH  14  15
ENDBRANCH  13  14
ENDBRANCH   1  13
TORSDOF 7
ENDMDL
MODEL 9
REMARK VINA RESULT:      -6.5      0.830      1.613
REMARK  Name = 
REMARK  8 active torsions:
REMARK  status: ('A' for Active; 'I' for Inactive)
REMARK    1  A    between atoms: C_1  and  C_2
REMARK    2  A    between atoms: N_4  and  C_5
REMARK    3  A    between atoms: C_5  and  C_6
REMARK    4  A    between atoms: C_5  and  C_12
REMARK    5  A    between atoms: C_6  and  O_7
REMARK    6  A    between atoms: O_7  and  P_8
REMARK    7  A    between atoms: P_8  and  O_10
REMARK    8  A    between atoms: P_8  and  O_11
REMARK                            x       y       z     vdW  Elec       q    Type
REMARK                         _______ _______ _______ _____ _____    ______ ____
ROOT
ATOM      1  C   UNL     1       4.900   4.383  16.802  0.00  0.00    +0.000 C 
ENDROOT
BRANCH   1   2
ATOM      2  C   UNL     1       3.664   3.754  17.419  0.00  0.00    +0.000 A 
ATOM      3  C   UNL     1       2.519   4.541  17.627  0.00  0.00    +0.000 A 
ATOM      4  C   UNL     1       1.372   3.980  18.182  0.00  0.00    +0.000 A 
ATOM      5  C   UNL     1       1.346   2.639  18.542  0.00  0.00    +0.000 A 
ATOM      6  C   UNL     1       2.473   1.847  18.345  0.00  0.00    +0.000 A 
ATOM      7  C   UNL     1       3.628   2.397  17.783  0.00  0.00    +0.000 A 
ENDBRANCH   1   2
BRANCH   1  11
ATOM      8  C   UNL     1       5.789   3.699  13.170  0.00  0.00    +0.000 C 
ATOM      9  C   UNL     1       6.032   4.042  14.612  0.00  0.00    +0.000 C 
ATOM     10  O   UNL     1       7.161   4.239  15.061  0.00  0.00    +0.000 OA
ATOM     11  N   UNL     1       4.888   4.174  15.353  0.00  0.00    +0.000 N 
ATOM     12  H   UNL     1       3.995   4.135  14.883  0.00  0.00    +0.000 HD
ENDBRANCH   1  11
BRANCH   1  13
ATOM     13  C   UNL     1       5.015   5.877  17.181  0.00  0.00    +0.000 C 
BRANCH  13  14
ATOM     14  O   UNL     1       5.870   6.110  18.295  0.00  0.00    +0.000 OA
BRANCH  14  15
ATOM     15  P   UNL     1       7.452   6.139  18.058  0.00  0.00    +0.000 P 
ATOM     16  O   UNL     1       8.280   6.986  18.959  0.00  0.00    +0.000 OA
BRANCH  15  17
ATOM     17  O   UNL     1       7.841   4.592  18.029  0.00  0.00    +0.000 OA
ATOM     18  H   UNL     1       8.339   4.387  17.204  0.00  0.00    +0.000 HD
ENDBRANCH  15  17
BRANCH  15  19
ATOM     19  O   UNL     1       7.606   6.526  16.516  0.00  0.00    +0.000 OA
ATOM     20  H   UNL     1       7.061   7.307  16.313  0.00  0.00    +0.000 HD
ENDBRANCH  15  19
ENDBRANCH  14  15
ENDBRANCH  13  14
ENDBRANCH   1  13
TORSDOF 7
ENDMDL
