MODEL 1
REMARK VINA RESULT:      -7.6      0.000      0.000
REMARK  Name = 
REMARK  5 active torsions:
REMARK  status: ('A' for Active; 'I' for Inactive)
REMARK    1  A    between atoms: C_2  and  C_3
REMARK    2  A    between atoms: C_3  and  C_4
REMARK    3  A    between atoms: C_4  and  C_5
REMARK    4  A    between atoms: C_5  and  N_6
REMARK    5  A    between atoms: C_10  and  C_11
REMARK                            x       y       z     vdW  Elec       q    Type
REMARK                         _______ _______ _______ _____ _____    ______ ____
ROOT
ATOM      1  N   UNL     1      -0.445  11.163  21.587  0.00  0.00    +0.000 N 
ATOM      2  C   UNL     1       0.305  10.126  22.126  0.00  0.00    +0.000 C 
ATOM      3  O   UNL     1       0.620   9.998  23.305  0.00  0.00    +0.000 OA
ATOM      4  C   UNL     1       0.687   9.160  21.061  0.00  0.00    +0.000 C 
ATOM      5  C   UNL     1       1.388   8.047  21.318  0.00  0.00    +0.000 C 
ATOM      6  S   UNL     1       0.085   9.686  19.540  0.00  0.00    +0.000 S 
ATOM      7  C   UNL     1      -0.716  11.087  20.238  0.00  0.00    +0.000 C 
ATOM      8  S   UNL     1      -1.644  12.121  19.314  0.00  0.00    +0.000 S 
ENDROOT
BRANCH   5   9
ATOM      9  C   UNL     1       1.789   7.051  20.322  0.00  0.00    +0.000 A 
ATOM     10  C   UNL     1       2.445   7.450  19.151  0.00  0.00    +0.000 A 
ATOM     11  C   UNL     1       2.801   6.506  18.186  0.00  0.00    +0.000 A 
ATOM     12  C   UNL     1       2.509   5.157  18.386  0.00  0.00    +0.000 A 
ATOM     13  C   UNL     1       1.871   4.759  19.560  0.00  0.00    +0.000 A 
ATOM     14 BR   UNL     1       1.484   2.928  19.837  0.00  0.00    +0.000 Br
ATOM     15  C   UNL     1       1.511   5.696  20.529  0.00  0.00    +0.000 A 
ENDBRANCH   5   9
BRANCH   1  16
ATOM     16  C   UNL     1      -0.949  12.208  22.481  0.00  0.00    +0.000 C 
BRANCH  16  17
ATOM     17  C   UNL     1      -2.291  11.825  23.107  0.00  0.00    +0.000 C 
BRANCH  17  18
ATOM     18  C   UNL     1      -3.139  13.057  23.425  0.00  0.00    +0.000 C 
BRANCH  18  20
ATOM     19  O   UNL     1      -4.554  12.007  25.060  0.00  0.00    +0.000 OA
ATOM     20  C   UNL     1      -4.484  12.674  24.027  0.00  0.00    +0.000 C 
ATOM     21  N   UNL     1      -5.613  13.153  23.386  0.00  0.00    +0.000 N 
ATOM     22  C   UNL     1      -6.930  12.971  24.002  0.00  0.00    +0.000 C 
ATOM     23  C   UNL     1      -7.807  12.058  23.142  0.00  0.00    +0.000 C 
ATOM     24  O   UNL     1      -7.893  12.550  21.793  0.00  0.00    +0.000 OA
ATOM     25  C   UNL     1      -6.587  12.629  21.195  0.00  0.00    +0.000 C 
ATOM     26  C   UNL     1      -5.679  13.584  21.985  0.00  0.00    +0.000 C 
ENDBRANCH  18  20
ENDBRANCH  17  18
ENDBRANCH  16  17
ENDBRANCH   1  16
TORSDOF 5
ENDMDL
MODEL 2
REMARK VINA RESULT:      -7.3      4.010      9.580
REMARK  Name = 
REMARK  5 active torsions:
REMARK  status: ('A' for Active; 'I' for Inactive)
REMARK    1  A    between atoms: C_2  and  C_3
REMARK    2  A    between atoms: C_3  and  C_4
REMARK    3  A    between atoms: C_4  and  C_5
REMARK    4  A    between atoms: C_5  and  N_6
REMARK    5  A    between atoms: C_10  and  C_11
REMARK                            x       y       z     vdW  Elec       q    Type
REMARK                         _______ _______ _______ _____ _____    ______ ____
ROOT
ATOM      1  N   UNL     1       0.586   9.730  21.265  0.00  0.00    +0.000 N 
ATOM      2  C   UNL     1       0.084  10.090  22.508  0.00  0.00    +0.000 C 
ATOM      3  O   UNL     1       0.434   9.630  23.591  0.00  0.00    +0.000 OA
ATOM      4  C   UNL     1      -0.961  11.137  22.357  0.00  0.00    +0.000 C 
ATOM      5  C   UNL     1      -1.587  11.685  23.409  0.00  0.00    +0.000 C 
ATOM      6  S   UNL     1      -1.192  11.508  20.696  0.00  0.00    +0.000 S 
ATOM      7  C   UNL     1       0.076  10.405  20.178  0.00  0.00    +0.000 C 
ATOM      8  S   UNL     1       0.518  10.264  18.575  0.00  0.00    +0.000 S 
ENDROOT
BRANCH   5   9
ATOM      9  C   UNL     1      -2.617  12.724  23.332  0.00  0.00    +0.000 A 
ATOM     10  C   UNL     1      -2.262  14.048  23.044  0.00  0.00    +0.000 A 
ATOM     11  C   UNL     1      -3.238  15.045  23.000  0.00  0.00    +0.000 A 
ATOM     12  C   UNL     1      -4.575  14.727  23.241  0.00  0.00    +0.000 A 
ATOM     13  C   UNL     1      -4.929  13.406  23.511  0.00  0.00    +0.000 A 
ATOM     14 BR   UNL     1      -6.742  12.972  23.826  0.00  0.00    +0.000 Br
ATOM     15  C   UNL     1      -3.959  12.403  23.557  0.00  0.00    +0.000 A 
ENDBRANCH   5   9
BRANCH   1  16
ATOM     16  C   UNL     1       1.654   8.730  21.198  0.00  0.00    +0.000 C 
BRANCH  16  17
ATOM     17  C   UNL     1       1.113   7.337  20.874  0.00  0.00    +0.000 C 
BRANCH  17  18
ATOM     18  C   UNL     1       2.129   6.502  20.095  0.00  0.00    +0.000 C 
BRANCH  18  20
ATOM     19  O   UNL     1       2.197   4.564  21.515  0.00  0.00    +0.000 OA
ATOM     20  C   UNL     1       1.981   5.015  20.389  0.00  0.00    +0.000 C 
ATOM     21  N   UNL     1       1.547   4.213  19.348  0.00  0.00    +0.000 N 
ATOM     22  C   UNL     1       1.218   2.809  19.603  0.00  0.00    +0.000 C 
ATOM     23  C   UNL     1       2.180   1.883  18.854  0.00  0.00    +0.000 C 
ATOM     24  O   UNL     1       2.207   2.198  17.450  0.00  0.00    +0.000 OA
ATOM     25  C   UNL     1       2.620   3.559  17.240  0.00  0.00    +0.000 C 
ATOM     26  C   UNL     1       1.652   4.538  17.922  0.00  0.00    +0.000 C 
ENDBRANCH  18  20
ENDBRANCH  17  18
ENDBRANCH  16  17
ENDBRANCH   1  16
TORSDOF 5
ENDMDL
MODEL 3
REMARK VINA RESULT:      -7.2      5.047      6.377
REMARK  Name = 
REMARK  5 active torsions:
REMARK  status: ('A' for Active; 'I' for Inactive)
REMARK    1  A    between atoms: C_2  and  C_3
REMARK    2  A    between atoms: C_3  and  C_4
REMARK    3  A    between atoms: C_4  and  C_5
REMARK    4  A    between atoms: C_5  and  N_6
REMARK    5  A    between atoms: C_10  and  C_11
REMARK                            x       y       z     vdW  Elec       q    Type
REMARK                         _______ _______ _______ _____ _____    ______ ____
ROOT
ATOM      1  N   UNL     1       0.921   9.845  19.584  0.00  0.00    +0.000 N 
ATOM      2  C   UNL     1       1.613   9.261  18.531  0.00  0.00    +0.000 C 
ATOM      3  O   UNL     1       1.782   9.747  17.418  0.00  0.00    +0.000 OA
ATOM      4  C   UNL     1       2.141   7.931  18.938  0.00  0.00    +0.000 C 
ATOM      5  C   UNL     1       2.875   7.168  18.117  0.00  0.00    +0.000 C 
ATOM      6  S   UNL     1       1.683   7.582  20.557  0.00  0.00    +0.000 S 
ATOM      7  C   UNL     1       0.887   9.137  20.765  0.00  0.00    +0.000 C 
ATOM      8  S   UNL     1       0.212   9.592  22.221  0.00  0.00    +0.000 S 
ENDROOT
BRANCH   5   9
ATOM      9  C   UNL     1       3.433   5.856  18.455  0.00  0.00    +0.000 A 
ATOM     10  C   UNL     1       4.780   5.736  18.820  0.00  0.00    +0.000 A 
ATOM     11  C   UNL     1       5.321   4.482  19.113  0.00  0.00    +0.000 A 
ATOM     12  C   UNL     1       4.519   3.342  19.049  0.00  0.00    +0.000 A 
ATOM     13  C   UNL     1       3.175   3.465  18.702  0.00  0.00    +0.000 A 
ATOM     14 BR   UNL     1       2.086   1.921  18.626  0.00  0.00    +0.000 Br
ATOM     15  C   UNL     1       2.626   4.714  18.407  0.00  0.00    +0.000 A 
ENDBRANCH   5   9
BRANCH   1  16
ATOM     16  C   UNL     1       0.347  11.180  19.396  0.00  0.00    +0.000 C 
BRANCH  16  17
ATOM     17  C   UNL     1       1.269  12.277  19.929  0.00  0.00    +0.000 C 
BRANCH  17  18
ATOM     18  C   UNL     1       1.701  13.241  18.823  0.00  0.00    +0.000 C 
BRANCH  18  20
ATOM     19  O   UNL     1      -0.340  14.506  18.940  0.00  0.00    +0.000 OA
ATOM     20  C   UNL     1       0.888  14.528  18.849  0.00  0.00    +0.000 C 
ATOM     21  N   UNL     1       1.599  15.715  18.815  0.00  0.00    +0.000 N 
ATOM     22  C   UNL     1       0.898  16.987  19.010  0.00  0.00    +0.000 C 
ATOM     23  C   UNL     1       0.966  17.841  17.741  0.00  0.00    +0.000 C 
ATOM     24  O   UNL     1       2.329  18.021  17.316  0.00  0.00    +0.000 OA
ATOM     25  C   UNL     1       2.952  16.754  17.051  0.00  0.00    +0.000 C 
ATOM     26  C   UNL     1       2.967  15.875  18.311  0.00  0.00    +0.000 C 
ENDBRANCH  18  20
ENDBRANCH  17  18
ENDBRANCH  16  17
ENDBRANCH   1  16
TORSDOF 5
ENDMDL
MODEL 4
REMARK VINA RESULT:      -7.1      2.660      3.352
REMARK  Name = 
REMARK  5 active torsions:
REMARK  status: ('A' for Active; 'I' for Inactive)
REMARK    1  A    between atoms: C_2  and  C_3
REMARK    2  A    between atoms: C_3  and  C_4
REMARK    3  A    between atoms: C_4  and  C_5
REMARK    4  A    between atoms: C_5  and  N_6
REMARK    5  A    between atoms: C_10  and  C_11
REMARK                            x       y       z     vdW  Elec       q    Type
REMARK                         _______ _______ _______ _____ _____    ______ ____
ROOT
ATOM      1  N   UNL     1       0.673   9.849  19.972  0.00  0.00    +0.000 N 
ATOM      2  C   UNL     1       1.349   9.321  18.880  0.00  0.00    +0.000 C 
ATOM      3  O   UNL     1       1.470   9.850  17.780  0.00  0.00    +0.000 OA
ATOM      4  C   UNL     1       1.925   7.994  19.225  0.00  0.00    +0.000 C 
ATOM      5  C   UNL     1       2.655   7.280  18.356  0.00  0.00    +0.000 C 
ATOM      6  S   UNL     1       1.527   7.577  20.843  0.00  0.00    +0.000 S 
ATOM      7  C   UNL     1       0.695   9.100  21.129  0.00  0.00    +0.000 C 
ATOM      8  S   UNL     1       0.053   9.485  22.619  0.00  0.00    +0.000 S 
ENDROOT
BRANCH   5   9
ATOM      9  C   UNL     1       3.259   5.974  18.632  0.00  0.00    +0.000 A 
ATOM     10  C   UNL     1       4.638   5.868  18.850  0.00  0.00    +0.000 A 
ATOM     11  C   UNL     1       5.220   4.620  19.083  0.00  0.00    +0.000 A 
ATOM     12  C   UNL     1       4.428   3.472  19.104  0.00  0.00    +0.000 A 
ATOM     13  C   UNL     1       3.053   3.581  18.903  0.00  0.00    +0.000 A 
ATOM     14 BR   UNL     1       1.978   2.026  18.942  0.00  0.00    +0.000 Br
ATOM     15  C   UNL     1       2.464   4.824  18.669  0.00  0.00    +0.000 A 
ENDBRANCH   5   9
BRANCH   1  16
ATOM     16  C   UNL     1       0.057  11.173  19.848  0.00  0.00    +0.000 C 
BRANCH  16  17
ATOM     17  C   UNL     1      -1.387  11.086  19.354  0.00  0.00    +0.000 C 
BRANCH  17  18
ATOM     18  C   UNL     1      -2.062  12.457  19.335  0.00  0.00    +0.000 C 
BRANCH  18  20
ATOM     19  O   UNL     1      -3.112  12.568  21.494  0.00  0.00    +0.000 OA
ATOM     20  C   UNL     1      -3.260  12.509  20.273  0.00  0.00    +0.000 C 
ATOM     21  N   UNL     1      -4.513  12.536  19.684  0.00  0.00    +0.000 N 
ATOM     22  C   UNL     1      -5.699  12.758  20.514  0.00  0.00    +0.000 C 
ATOM     23  C   UNL     1      -6.604  11.523  20.506  0.00  0.00    +0.000 C 
ATOM     24  O   UNL     1      -6.936  11.139  19.159  0.00  0.00    +0.000 OA
ATOM     25  C   UNL     1      -5.748  10.844  18.406  0.00  0.00    +0.000 C 
ATOM     26  C   UNL     1      -4.827  12.071  18.329  0.00  0.00    +0.000 C 
ENDBRANCH  18  20
ENDBRANCH  17  18
ENDBRANCH  16  17
ENDBRANCH   1  16
TORSDOF 5
ENDMDL
MODEL 5
REMARK VINA RESULT:      -7.1      3.215      4.037
REMARK  Name = 
REMARK  5 active torsions:
REMARK  status: ('A' for Active; 'I' for Inactive)
REMARK    1  A    between atoms: C_2  and  C_3
REMARK    2  A    between atoms: C_3  and  C_4
REMARK    3  A    between atoms: C_4  and  C_5
REMARK    4  A    between atoms: C_5  and  N_6
REMARK    5  A    between atoms: C_10  and  C_11
REMARK                            x       y       z     vdW  Elec       q    Type
REMARK                         _______ _______ _______ _____ _____    ______ ____
ROOT
ATOM      1  N   UNL     1       0.978  10.200  19.573  0.00  0.00    +0.000 N 
ATOM      2  C   UNL     1       1.672   9.561  18.555  0.00  0.00    +0.000 C 
ATOM      3  O   UNL     1       1.967  10.045  17.466  0.00  0.00    +0.000 OA
ATOM      4  C   UNL     1       2.026   8.175  18.964  0.00  0.00    +0.000 C 
ATOM      5  C   UNL     1       2.727   7.350  18.174  0.00  0.00    +0.000 C 
ATOM      6  S   UNL     1       1.426   7.852  20.541  0.00  0.00    +0.000 S 
ATOM      7  C   UNL     1       0.790   9.480  20.733  0.00  0.00    +0.000 C 
ATOM      8  S   UNL     1       0.072   9.983  22.153  0.00  0.00    +0.000 S 
ENDROOT
BRANCH   5   9
ATOM      9  C   UNL     1       3.117   5.980  18.517  0.00  0.00    +0.000 A 
ATOM     10  C   UNL     1       4.449   5.684  18.830  0.00  0.00    +0.000 A 
ATOM     11  C   UNL     1       4.828   4.373  19.128  0.00  0.00    +0.000 A 
ATOM     12  C   UNL     1       3.878   3.351  19.119  0.00  0.00    +0.000 A 
ATOM     13  C   UNL     1       2.549   3.651  18.823  0.00  0.00    +0.000 A 
ATOM     14 BR   UNL     1       1.260   2.267  18.822  0.00  0.00    +0.000 Br
ATOM     15  C   UNL     1       2.162   4.958  18.524  0.00  0.00    +0.000 A 
ENDBRANCH   5   9
BRANCH   1  16
ATOM     16  C   UNL     1       0.565  11.593  19.380  0.00  0.00    +0.000 C 
BRANCH  16  17
ATOM     17  C   UNL     1      -0.623  11.708  18.425  0.00  0.00    +0.000 C 
BRANCH  17  18
ATOM     18  C   UNL     1      -1.955  11.536  19.156  0.00  0.00    +0.000 C 
BRANCH  18  20
ATOM     19  O   UNL     1      -2.974  11.370  16.985  0.00  0.00    +0.000 OA
ATOM     20  C   UNL     1      -3.134  11.558  18.192  0.00  0.00    +0.000 C 
ATOM     21  N   UNL     1      -4.388  11.749  18.745  0.00  0.00    +0.000 N 
ATOM     22  C   UNL     1      -5.580  11.610  17.904  0.00  0.00    +0.000 C 
ATOM     23  C   UNL     1      -6.312  12.950  17.779  0.00  0.00    +0.000 C 
ATOM     24  O   UNL     1      -6.612  13.494  19.076  0.00  0.00    +0.000 OA
ATOM     25  C   UNL     1      -5.407  13.697  19.835  0.00  0.00    +0.000 C 
ATOM     26  C   UNL     1      -4.660  12.371  20.045  0.00  0.00    +0.000 C 
ENDBRANCH  18  20
ENDBRANCH  17  18
ENDBRANCH  16  17
ENDBRANCH   1  16
TORSDOF 5
ENDMDL
MODEL 6
REMARK VINA RESULT:      -7.0      5.295      7.137
REMARK  Name = 
REMARK  5 active torsions:
REMARK  status: ('A' for Active; 'I' for Inactive)
REMARK    1  A    between atoms: C_2  and  C_3
REMARK    2  A    between atoms: C_3  and  C_4
REMARK    3  A    between atoms: C_4  and  C_5
REMARK    4  A    between atoms: C_5  and  N_6
REMARK    5  A    between atoms: C_10  and  C_11
REMARK                            x       y       z     vdW  Elec       q    Type
REMARK                         _______ _______ _______ _____ _____    ______ ____
ROOT
ATOM      1  N   UNL     1       0.912   9.836  19.711  0.00  0.00    +0.000 N 
ATOM      2  C   UNL     1       1.560   9.483  18.534  0.00  0.00    +0.000 C 
ATOM      3  O   UNL     1       1.626  10.160  17.513  0.00  0.00    +0.000 OA
ATOM      4  C   UNL     1       2.183   8.139  18.674  0.00  0.00    +0.000 C 
ATOM      5  C   UNL     1       2.898   7.574  17.692  0.00  0.00    +0.000 C 
ATOM      6  S   UNL     1       1.857   7.494  20.232  0.00  0.00    +0.000 S 
ATOM      7  C   UNL     1       0.997   8.937  20.752  0.00  0.00    +0.000 C 
ATOM      8  S   UNL     1       0.401   9.096  22.302  0.00  0.00    +0.000 S 
ENDROOT
BRANCH   5   9
ATOM      9  C   UNL     1       3.545   6.261  17.765  0.00  0.00    +0.000 A 
ATOM     10  C   UNL     1       2.771   5.100  17.876  0.00  0.00    +0.000 A 
ATOM     11  C   UNL     1       3.386   3.850  17.976  0.00  0.00    +0.000 A 
ATOM     12  C   UNL     1       4.778   3.752  17.961  0.00  0.00    +0.000 A 
ATOM     13  C   UNL     1       5.547   4.908  17.833  0.00  0.00    +0.000 A 
ATOM     14 BR   UNL     1       7.433   4.775  17.802  0.00  0.00    +0.000 Br
ATOM     15  C   UNL     1       4.940   6.161  17.733  0.00  0.00    +0.000 A 
ENDBRANCH   5   9
BRANCH   1  16
ATOM     16  C   UNL     1       0.258  11.145  19.790  0.00  0.00    +0.000 C 
BRANCH  16  17
ATOM     17  C   UNL     1       1.127  12.173  20.515  0.00  0.00    +0.000 C 
BRANCH  17  18
ATOM     18  C   UNL     1       1.968  12.994  19.536  0.00  0.00    +0.000 C 
BRANCH  18  20
ATOM     19  O   UNL     1       3.064  13.866  21.489  0.00  0.00    +0.000 OA
ATOM     20  C   UNL     1       2.986  13.865  20.260  0.00  0.00    +0.000 C 
ATOM     21  N   UNL     1       3.843  14.610  19.469  0.00  0.00    +0.000 N 
ATOM     22  C   UNL     1       4.955  15.335  20.089  0.00  0.00    +0.000 C 
ATOM     23  C   UNL     1       4.775  16.847  19.922  0.00  0.00    +0.000 C 
ATOM     24  O   UNL     1       4.595  17.192  18.537  0.00  0.00    +0.000 OA
ATOM     25  C   UNL     1       3.442  16.528  17.992  0.00  0.00    +0.000 C 
ATOM     26  C   UNL     1       3.594  15.002  18.078  0.00  0.00    +0.000 C 
ENDBRANCH  18  20
ENDBRANCH  17  18
ENDBRANCH  16  17
ENDBRANCH   1  16
TORSDOF 5
ENDMDL
MODEL 7
REMARK VINA RESULT:      -7.0      5.194      6.968
REMARK  Name = 
REMARK  5 active torsions:
REMARK  status: ('A' for Active; 'I' for Inactive)
REMARK    1  A    between atoms: C_2  and  C_3
REMARK    2  A    between atoms: C_3  and  C_4
REMARK    3  A    between atoms: C_4  and  C_5
REMARK    4  A    between atoms: C_5  and  N_6
REMARK    5  A    between atoms: C_10  and  C_11
REMARK                            x       y       z     vdW  Elec       q    Type
REMARK                         _______ _______ _______ _____ _____    ______ ____
ROOT
ATOM      1  N   UNL     1       0.737   9.944  19.985  0.00  0.00    +0.000 N 
ATOM      2  C   UNL     1       1.272   9.557  18.764  0.00  0.00    +0.000 C 
ATOM      3  O   UNL     1       1.222  10.196  17.717  0.00  0.00    +0.000 OA
ATOM      4  C   UNL     1       1.935   8.232  18.889  0.00  0.00    +0.000 C 
ATOM      5  C   UNL     1       2.562   7.642  17.861  0.00  0.00    +0.000 C 
ATOM      6  S   UNL     1       1.780   7.641  20.495  0.00  0.00    +0.000 S 
ATOM      7  C   UNL     1       0.944   9.087  21.045  0.00  0.00    +0.000 C 
ATOM      8  S   UNL     1       0.502   9.295  22.640  0.00  0.00    +0.000 S 
ENDROOT
BRANCH   5   9
ATOM      9  C   UNL     1       3.241   6.345  17.917  0.00  0.00    +0.000 A 
ATOM     10  C   UNL     1       2.497   5.164  18.017  0.00  0.00    +0.000 A 
ATOM     11  C   UNL     1       3.144   3.929  18.100  0.00  0.00    +0.000 A 
ATOM     12  C   UNL     1       4.537   3.866  18.080  0.00  0.00    +0.000 A 
ATOM     13  C   UNL     1       5.277   5.042  17.964  0.00  0.00    +0.000 A 
ATOM     14 BR   UNL     1       7.165   4.957  17.926  0.00  0.00    +0.000 Br
ATOM     15  C   UNL     1       4.638   6.280  17.881  0.00  0.00    +0.000 A 
ENDBRANCH   5   9
BRANCH   1  16
ATOM     16  C   UNL     1       0.065  11.242  20.082  0.00  0.00    +0.000 C 
BRANCH  16  17
ATOM     17  C   UNL     1       1.061  12.386  20.277  0.00  0.00    +0.000 C 
BRANCH  17  18
ATOM     18  C   UNL     1       0.901  13.464  19.206  0.00  0.00    +0.000 C 
BRANCH  18  20
ATOM     19  O   UNL     1       2.998  12.916  18.167  0.00  0.00    +0.000 OA
ATOM     20  C   UNL     1       2.230  13.802  18.543  0.00  0.00    +0.000 C 
ATOM     21  N   UNL     1       2.504  15.144  18.344  0.00  0.00    +0.000 N 
ATOM     22  C   UNL     1       3.679  15.535  17.561  0.00  0.00    +0.000 C 
ATOM     23  C   UNL     1       4.688  16.283  18.437  0.00  0.00    +0.000 C 
ATOM     24  O   UNL     1       4.066  17.401  19.096  0.00  0.00    +0.000 OA
ATOM     25  C   UNL     1       2.974  16.962  19.923  0.00  0.00    +0.000 C 
ATOM     26  C   UNL     1       1.899  16.256  19.083  0.00  0.00    +0.000 C 
ENDBRANCH  18  20
ENDBRANCH  17  18
ENDBRANCH  16  17
ENDBRANCH   1  16
TORSDOF 5
ENDMDL
MODEL 8
REMARK VINA RESULT:      -7.0      3.113      3.877
REMARK  Name = 
REMARK  5 active torsions:
REMARK  status: ('A' for Active; 'I' for Inactive)
REMARK    1  A    between atoms: C_2  and  C_3
REMARK    2  A    between atoms: C_3  and  C_4
REMARK    3  A    between atoms: C_4  and  C_5
REMARK    4  A    between atoms: C_5  and  N_6
REMARK    5  A    between atoms: C_10  and  C_11
REMARK                            x       y       z     vdW  Elec       q    Type
REMARK                         _______ _______ _______ _____ _____    ______ ____
ROOT
ATOM      1  N   UNL     1       0.886   9.900  19.639  0.00  0.00    +0.000 N 
ATOM      2  C   UNL     1       1.534   9.527  18.469  0.00  0.00    +0.000 C 
ATOM      3  O   UNL     1       1.597  10.186  17.435  0.00  0.00    +0.000 OA
ATOM      4  C   UNL     1       2.163   8.189  18.633  0.00  0.00    +0.000 C 
ATOM      5  C   UNL     1       2.880   7.608  17.661  0.00  0.00    +0.000 C 
ATOM      6  S   UNL     1       1.840   7.572  20.203  0.00  0.00    +0.000 S 
ATOM      7  C   UNL     1       0.975   9.022  20.696  0.00  0.00    +0.000 C 
ATOM      8  S   UNL     1       0.380   9.207  22.244  0.00  0.00    +0.000 S 
ENDROOT
BRANCH   5   9
ATOM      9  C   UNL     1       3.532   6.300  17.758  0.00  0.00    +0.000 A 
ATOM     10  C   UNL     1       2.762   5.136  17.869  0.00  0.00    +0.000 A 
ATOM     11  C   UNL     1       3.383   3.891  17.992  0.00  0.00    +0.000 A 
ATOM     12  C   UNL     1       4.775   3.800  18.000  0.00  0.00    +0.000 A 
ATOM     13  C   UNL     1       5.539   4.959  17.873  0.00  0.00    +0.000 A 
ATOM     14 BR   UNL     1       7.426   4.835  17.873  0.00  0.00    +0.000 Br
ATOM     15  C   UNL     1       4.928   6.207  17.750  0.00  0.00    +0.000 A 
ENDBRANCH   5   9
BRANCH   1  16
ATOM     16  C   UNL     1       0.227  11.207  19.695  0.00  0.00    +0.000 C 
BRANCH  16  17
ATOM     17  C   UNL     1      -1.292  11.086  19.568  0.00  0.00    +0.000 C 
BRANCH  17  18
ATOM     18  C   UNL     1      -1.962  12.456  19.454  0.00  0.00    +0.000 C 
BRANCH  18  20
ATOM     19  O   UNL     1      -3.250  12.662  21.473  0.00  0.00    +0.000 OA
ATOM     20  C   UNL     1      -3.259  12.517  20.250  0.00  0.00    +0.000 C 
ATOM     21  N   UNL     1      -4.437  12.451  19.527  0.00  0.00    +0.000 N 
ATOM     22  C   UNL     1      -5.717  12.676  20.204  0.00  0.00    +0.000 C 
ATOM     23  C   UNL     1      -6.570  11.404  20.183  0.00  0.00    +0.000 C 
ATOM     24  O   UNL     1      -6.734  10.918  18.839  0.00  0.00    +0.000 OA
ATOM     25  C   UNL     1      -5.459  10.627  18.243  0.00  0.00    +0.000 C 
ATOM     26  C   UNL     1      -4.581  11.885  18.181  0.00  0.00    +0.000 C 
ENDBRANCH  18  20
ENDBRANCH  17  18
ENDBRANCH  16  17
ENDBRANCH   1  16
TORSDOF 5
ENDMDL
MODEL 9
REMARK VINA RESULT:      -7.0      5.085      6.839
REMARK  Name = 
REMARK  5 active torsions:
REMARK  status: ('A' for Active; 'I' for Inactive)
REMARK    1  A    between atoms: C_2  and  C_3
REMARK    2  A    between atoms: C_3  and  C_4
REMARK    3  A    between atoms: C_4  and  C_5
REMARK    4  A    between atoms: C_5  and  N_6
REMARK    5  A    between atoms: C_10  and  C_11
REMARK                            x       y       z     vdW  Elec       q    Type
REMARK                         _______ _______ _______ _____ _____    ______ ____
ROOT
ATOM      1  N   UNL     1       0.696   9.962  20.009  0.00  0.00    +0.000 N 
ATOM      2  C   UNL     1       1.349   9.425  18.907  0.00  0.00    +0.000 C 
ATOM      3  O   UNL     1       1.486   9.964  17.814  0.00  0.00    +0.000 OA
ATOM      4  C   UNL     1       1.877   8.073  19.231  0.00  0.00    +0.000 C 
ATOM      5  C   UNL     1       2.578   7.346  18.350  0.00  0.00    +0.000 C 
ATOM      6  S   UNL     1       1.470   7.649  20.845  0.00  0.00    +0.000 S 
ATOM      7  C   UNL     1       0.695   9.197  21.155  0.00  0.00    +0.000 C 
ATOM      8  S   UNL     1       0.071   9.584  22.653  0.00  0.00    +0.000 S 
ENDROOT
BRANCH   5   9
ATOM      9  C   UNL     1       3.135   6.015  18.606  0.00  0.00    +0.000 A 
ATOM     10  C   UNL     1       4.501   5.861  18.869  0.00  0.00    +0.000 A 
ATOM     11  C   UNL     1       5.039   4.591  19.083  0.00  0.00    +0.000 A 
ATOM     12  C   UNL     1       4.215   3.466  19.039  0.00  0.00    +0.000 A 
ATOM     13  C   UNL     1       2.852   3.621  18.793  0.00  0.00    +0.000 A 
ATOM     14 BR   UNL     1       1.733   2.098  18.745  0.00  0.00    +0.000 Br
ATOM     15  C   UNL     1       2.306   4.888  18.578  0.00  0.00    +0.000 A 
ENDBRANCH   5   9
BRANCH   1  16
ATOM     16  C   UNL     1       0.129  11.309  19.906  0.00  0.00    +0.000 C 
BRANCH  16  17
ATOM     17  C   UNL     1       1.136  12.385  20.312  0.00  0.00    +0.000 C 
BRANCH  17  18
ATOM     18  C   UNL     1       1.007  13.638  19.445  0.00  0.00    +0.000 C 
BRANCH  18  20
ATOM     19  O   UNL     1       2.953  12.999  18.188  0.00  0.00    +0.000 OA
ATOM     20  C   UNL     1       2.284  13.917  18.664  0.00  0.00    +0.000 C 
ATOM     21  N   UNL     1       2.622  15.246  18.478  0.00  0.00    +0.000 N 
ATOM     22  C   UNL     1       3.739  15.592  17.594  0.00  0.00    +0.000 C 
ATOM     23  C   UNL     1       4.873  16.246  18.387  0.00  0.00    +0.000 C 
ATOM     24  O   UNL     1       4.391  17.375  19.137  0.00  0.00    +0.000 OA
ATOM     25  C   UNL     1       3.359  16.976  20.055  0.00  0.00    +0.000 C 
ATOM     26  C   UNL     1       2.164  16.366  19.306  0.00  0.00    +0.000 C 
ENDBRANCH  18  20
ENDBRANCH  17  18
ENDBRANCH  16  17
ENDBRANCH   1  16
TORSDOF 5
ENDMDL
