MODEL 1
REMARK VINA RESULT:      -9.8      0.000      0.000
REMARK  Name = 
REMARK  7 active torsions:
REMARK  status: ('A' for Active; 'I' for Inactive)
REMARK    1  A    between atoms: C_2  and  C_27
REMARK    2  A    between atoms: N_3  and  C_4
REMARK    3  A    between atoms: C_4  and  C_5
REMARK    4  A    between atoms: C_5  and  N_6
REMARK    5  A    between atoms: C_7  and  C_9
REMARK    6  A    between atoms: N_11  and  S_12
REMARK    7  A    between atoms: S_12  and  C_15
REMARK                            x       y       z     vdW  Elec       q    Type
REMARK                         _______ _______ _______ _____ _____    ______ ____
ROOT
ATOM      1  N   UNL     1       2.104   8.106  19.224  0.00  0.00    +0.000 N 
ATOM      2  C   UNL     1       2.584   8.082  17.930  0.00  0.00    +0.000 C 
ATOM      3  O   UNL     1       2.253   8.918  17.095  0.00  0.00    +0.000 OA
ATOM      4  H   UNL     1       2.296   7.328  19.838  0.00  0.00    +0.000 HD
ENDROOT
BRANCH   2   5
ATOM      5  C   UNL     1       3.489   6.969  17.620  0.00  0.00    +0.000 A 
ATOM      6  C   UNL     1       4.797   7.048  17.187  0.00  0.00    +0.000 A 
ATOM      7  N   UNL     1       5.271   5.767  16.977  0.00  0.00    +0.000 N 
ATOM      8  C   UNL     1       4.309   4.832  17.319  0.00  0.00    +0.000 A 
ATOM      9  C   UNL     1       4.330   3.423  17.326  0.00  0.00    +0.000 A 
ATOM     10  C   UNL     1       3.163   2.746  17.694  0.00  0.00    +0.000 A 
ATOM     11  C   UNL     1       2.015   3.446  18.044  0.00  0.00    +0.000 A 
ATOM     12  C   UNL     1       2.012   4.843  18.040  0.00  0.00    +0.000 A 
ATOM     13  C   UNL     1       3.174   5.559  17.683  0.00  0.00    +0.000 A 
BRANCH   7  14
ATOM     14  S   UNL     1       6.896   5.436  16.519  0.00  0.00    +0.000 S 
ATOM     15  O   UNL     1       7.571   6.732  16.576  0.00  0.00    +0.000 OA
ATOM     16  O   UNL     1       7.287   4.294  17.317  0.00  0.00    +0.000 OA
BRANCH  14  17
ATOM     17  C   UNL     1       6.740   4.893  14.818  0.00  0.00    +0.000 A 
ATOM     18  C   UNL     1       7.696   5.302  13.881  0.00  0.00    +0.000 A 
ATOM     19  C   UNL     1       7.594   4.848  12.566  0.00  0.00    +0.000 A 
ATOM     20  C   UNL     1       6.559   3.997  12.193  0.00  0.00    +0.000 A 
ATOM     21  C   UNL     1       5.625   3.577  13.137  0.00  0.00    +0.000 A 
ATOM     22  C   UNL     1       5.710   4.026  14.458  0.00  0.00    +0.000 A 
ENDBRANCH  14  17
ENDBRANCH   7  14
ENDBRANCH   2   5
BRANCH   1  23
ATOM     23  C   UNL     1       1.238   9.167  19.715  0.00  0.00    +0.000 C 
BRANCH  23  24
ATOM     24  C   UNL     1       0.802   8.988  21.179  0.00  0.00    +0.000 C 
BRANCH  24  27
ATOM     25  O   UNL     1       0.895  11.741  21.533  0.00  0.00    +0.000 OA
ATOM     26  C   UNL     1      -0.187  11.186  21.673  0.00  0.00    +0.000 C 
ATOM     27  N   UNL     1      -0.342   9.829  21.527  0.00  0.00    +0.000 N 
ATOM     28  H   UNL     1      -1.264   9.412  21.486  0.00  0.00    +0.000 HD
BRANCH  26  29
ATOM     29  C   UNL     1      -1.403  12.015  21.984  0.00  0.00    +0.000 A 
ATOM     30  C   UNL     1      -2.234  12.341  20.906  0.00  0.00    +0.000 A 
ATOM     31  C   UNL     1      -3.395  13.086  21.103  0.00  0.00    +0.000 A 
ATOM     32  C   UNL     1      -3.664  13.645  22.354  0.00  0.00    +0.000 A 
ATOM     33  C   UNL     1      -4.774  14.476  22.528  0.00  0.00    +0.000 A 
ATOM     34  C   UNL     1      -4.744  15.441  23.526  0.00  0.00    +0.000 A 
ATOM     35  C   UNL     1      -3.784  15.362  24.527  0.00  0.00    +0.000 A 
ATOM     36  C   UNL     1      -2.876  14.295  24.539  0.00  0.00    +0.000 A 
ATOM     37  C   UNL     1      -2.744  13.470  23.409  0.00  0.00    +0.000 A 
ATOM     38  C   UNL     1      -1.680  12.554  23.249  0.00  0.00    +0.000 A 
ENDBRANCH  26  29
ENDBRANCH  24  27
ENDBRANCH  23  24
ENDBRANCH   1  23
TORSDOF 7
ENDMDL
MODEL 2
REMARK VINA RESULT:      -9.8      0.987      1.436
REMARK  Name = 
REMARK  7 active torsions:
REMARK  status: ('A' for Active; 'I' for Inactive)
REMARK    1  A    between atoms: C_2  and  C_27
REMARK    2  A    between atoms: N_3  and  C_4
REMARK    3  A    between atoms: C_4  and  C_5
REMARK    4  A    between atoms: C_5  and  N_6
REMARK    5  A    between atoms: C_7  and  C_9
REMARK    6  A    between atoms: N_11  and  S_12
REMARK    7  A    between atoms: S_12  and  C_15
REMARK                            x       y       z     vdW  Elec       q    Type
REMARK                         _______ _______ _______ _____ _____    ______ ____
ROOT
ATOM      1  N   UNL     1       1.960   8.244  19.090  0.00  0.00    +0.000 N 
ATOM      2  C   UNL     1       2.564   8.196  17.849  0.00  0.00    +0.000 C 
ATOM      3  O   UNL     1       2.327   9.025  16.976  0.00  0.00    +0.000 OA
ATOM      4  H   UNL     1       2.081   7.471  19.729  0.00  0.00    +0.000 HD
ENDROOT
BRANCH   2   5
ATOM      5  C   UNL     1       3.480   7.069  17.643  0.00  0.00    +0.000 A 
ATOM      6  C   UNL     1       4.782   7.120  17.187  0.00  0.00    +0.000 A 
ATOM      7  N   UNL     1       5.271   5.830  17.103  0.00  0.00    +0.000 N 
ATOM      8  C   UNL     1       4.326   4.923  17.552  0.00  0.00    +0.000 A 
ATOM      9  C   UNL     1       4.367   3.522  17.703  0.00  0.00    +0.000 A 
ATOM     10  C   UNL     1       3.214   2.872  18.155  0.00  0.00    +0.000 A 
ATOM     11  C   UNL     1       2.061   3.590  18.447  0.00  0.00    +0.000 A 
ATOM     12  C   UNL     1       2.039   4.979  18.300  0.00  0.00    +0.000 A 
ATOM     13  C   UNL     1       3.186   5.669  17.855  0.00  0.00    +0.000 A 
BRANCH   7  14
ATOM     14  S   UNL     1       6.895   5.473  16.660  0.00  0.00    +0.000 S 
ATOM     15  O   UNL     1       7.574   6.769  16.659  0.00  0.00    +0.000 OA
ATOM     16  O   UNL     1       7.283   4.366  17.507  0.00  0.00    +0.000 OA
BRANCH  14  17
ATOM     17  C   UNL     1       6.737   4.856  14.984  0.00  0.00    +0.000 A 
ATOM     18  C   UNL     1       5.624   4.076  14.647  0.00  0.00    +0.000 A 
ATOM     19  C   UNL     1       5.485   3.627  13.333  0.00  0.00    +0.000 A 
ATOM     20  C   UNL     1       6.434   3.956  12.373  0.00  0.00    +0.000 A 
ATOM     21  C   UNL     1       7.526   4.751  12.712  0.00  0.00    +0.000 A 
ATOM     22  C   UNL     1       7.684   5.205  14.024  0.00  0.00    +0.000 A 
ENDBRANCH  14  17
ENDBRANCH   7  14
ENDBRANCH   2   5
BRANCH   1  23
ATOM     23  C   UNL     1       1.064   9.321  19.481  0.00  0.00    +0.000 C 
BRANCH  23  24
ATOM     24  C   UNL     1       0.843   9.428  20.999  0.00  0.00    +0.000 C 
BRANCH  24  27
ATOM     25  O   UNL     1      -0.031  10.004  23.570  0.00  0.00    +0.000 OA
ATOM     26  C   UNL     1      -0.394  10.746  22.667  0.00  0.00    +0.000 C 
ATOM     27  N   UNL     1      -0.026  10.547  21.360  0.00  0.00    +0.000 N 
ATOM     28  H   UNL     1      -0.199  11.256  20.656  0.00  0.00    +0.000 HD
BRANCH  26  29
ATOM     29  C   UNL     1      -1.249  11.939  22.996  0.00  0.00    +0.000 A 
ATOM     30  C   UNL     1      -2.569  11.680  23.381  0.00  0.00    +0.000 A 
ATOM     31  C   UNL     1      -3.427  12.722  23.727  0.00  0.00    +0.000 A 
ATOM     32  C   UNL     1      -3.026  14.048  23.546  0.00  0.00    +0.000 A 
ATOM     33  C   UNL     1      -3.919  15.092  23.796  0.00  0.00    +0.000 A 
ATOM     34  C   UNL     1      -3.758  16.294  23.120  0.00  0.00    +0.000 A 
ATOM     35  C   UNL     1      -2.558  16.559  22.472  0.00  0.00    +0.000 A 
ATOM     36  C   UNL     1      -1.514  15.628  22.532  0.00  0.00    +0.000 A 
ATOM     37  C   UNL     1      -1.758  14.323  22.993  0.00  0.00    +0.000 A 
ATOM     38  C   UNL     1      -0.831  13.268  22.835  0.00  0.00    +0.000 A 
ENDBRANCH  26  29
ENDBRANCH  24  27
ENDBRANCH  23  24
ENDBRANCH   1  23
TORSDOF 7
ENDMDL
MODEL 3
REMARK VINA RESULT:      -9.7      1.352      1.729
REMARK  Name = 
REMARK  7 active torsions:
REMARK  status: ('A' for Active; 'I' for Inactive)
REMARK    1  A    between atoms: C_2  and  C_27
REMARK    2  A    between atoms: N_3  and  C_4
REMARK    3  A    between atoms: C_4  and  C_5
REMARK    4  A    between atoms: C_5  and  N_6
REMARK    5  A    between atoms: C_7  and  C_9
REMARK    6  A    between atoms: N_11  and  S_12
REMARK    7  A    between atoms: S_12  and  C_15
REMARK                            x       y       z     vdW  Elec       q    Type
REMARK                         _______ _______ _______ _____ _____    ______ ____
ROOT
ATOM      1  N   UNL     1       2.008   8.519  17.517  0.00  0.00    +0.000 N 
ATOM      2  C   UNL     1       2.403   7.597  18.466  0.00  0.00    +0.000 C 
ATOM      3  O   UNL     1       1.986   7.630  19.620  0.00  0.00    +0.000 OA
ATOM      4  H   UNL     1       2.474   8.536  16.621  0.00  0.00    +0.000 HD
ENDROOT
BRANCH   2   5
ATOM      5  C   UNL     1       3.376   6.601  18.004  0.00  0.00    +0.000 A 
ATOM      6  C   UNL     1       4.649   6.834  17.523  0.00  0.00    +0.000 A 
ATOM      7  N   UNL     1       5.212   5.625  17.161  0.00  0.00    +0.000 N 
ATOM      8  C   UNL     1       4.348   4.582  17.450  0.00  0.00    +0.000 A 
ATOM      9  C   UNL     1       4.482   3.185  17.312  0.00  0.00    +0.000 A 
ATOM     10  C   UNL     1       3.395   2.379  17.663  0.00  0.00    +0.000 A 
ATOM     11  C   UNL     1       2.215   2.941  18.134  0.00  0.00    +0.000 A 
ATOM     12  C   UNL     1       2.100   4.327  18.273  0.00  0.00    +0.000 A 
ATOM     13  C   UNL     1       3.180   5.170  17.938  0.00  0.00    +0.000 A 
BRANCH   7  14
ATOM     14  S   UNL     1       6.831   5.479  16.599  0.00  0.00    +0.000 S 
ATOM     15  O   UNL     1       7.358   6.843  16.623  0.00  0.00    +0.000 OA
ATOM     16  O   UNL     1       7.399   4.388  17.361  0.00  0.00    +0.000 OA
BRANCH  14  17
ATOM     17  C   UNL     1       6.629   4.924  14.907  0.00  0.00    +0.000 A 
ATOM     18  C   UNL     1       7.633   5.204  13.972  0.00  0.00    +0.000 A 
ATOM     19  C   UNL     1       7.491   4.739  12.665  0.00  0.00    +0.000 A 
ATOM     20  C   UNL     1       6.370   4.003  12.298  0.00  0.00    +0.000 A 
ATOM     21  C   UNL     1       5.387   3.709  13.239  0.00  0.00    +0.000 A 
ATOM     22  C   UNL     1       5.510   4.171  14.552  0.00  0.00    +0.000 A 
ENDBRANCH  14  17
ENDBRANCH   7  14
ENDBRANCH   2   5
BRANCH   1  23
ATOM     23  C   UNL     1       1.011   9.543  17.790  0.00  0.00    +0.000 C 
BRANCH  23  24
ATOM     24  C   UNL     1       1.492  10.641  18.752  0.00  0.00    +0.000 C 
BRANCH  24  27
ATOM     25  O   UNL     1       0.034  12.975  19.118  0.00  0.00    +0.000 OA
ATOM     26  C   UNL     1      -0.127  12.071  19.927  0.00  0.00    +0.000 C 
ATOM     27  N   UNL     1       0.549  10.879  19.843  0.00  0.00    +0.000 N 
ATOM     28  H   UNL     1       0.285  10.089  20.421  0.00  0.00    +0.000 HD
BRANCH  26  29
ATOM     29  C   UNL     1      -1.124  12.251  21.040  0.00  0.00    +0.000 A 
ATOM     30  C   UNL     1      -0.921  11.489  22.196  0.00  0.00    +0.000 A 
ATOM     31  C   UNL     1      -1.780  11.607  23.286  0.00  0.00    +0.000 A 
ATOM     32  C   UNL     1      -2.941  12.375  23.182  0.00  0.00    +0.000 A 
ATOM     33  C   UNL     1      -3.855  12.414  24.238  0.00  0.00    +0.000 A 
ATOM     34  C   UNL     1      -5.191  12.673  23.964  0.00  0.00    +0.000 A 
ATOM     35  C   UNL     1      -5.548  13.203  22.731  0.00  0.00    +0.000 A 
ATOM     36  C   UNL     1      -4.556  13.499  21.787  0.00  0.00    +0.000 A 
ATOM     37  C   UNL     1      -3.249  13.011  21.961  0.00  0.00    +0.000 A 
ATOM     38  C   UNL     1      -2.277  13.044  20.936  0.00  0.00    +0.000 A 
ENDBRANCH  26  29
ENDBRANCH  24  27
ENDBRANCH  23  24
ENDBRANCH   1  23
TORSDOF 7
ENDMDL
MODEL 4
REMARK VINA RESULT:      -9.5      1.808      2.555
REMARK  Name = 
REMARK  7 active torsions:
REMARK  status: ('A' for Active; 'I' for Inactive)
REMARK    1  A    between atoms: C_2  and  C_27
REMARK    2  A    between atoms: N_3  and  C_4
REMARK    3  A    between atoms: C_4  and  C_5
REMARK    4  A    between atoms: C_5  and  N_6
REMARK    5  A    between atoms: C_7  and  C_9
REMARK    6  A    between atoms: N_11  and  S_12
REMARK    7  A    between atoms: S_12  and  C_15
REMARK                            x       y       z     vdW  Elec       q    Type
REMARK                         _______ _______ _______ _____ _____    ______ ____
ROOT
ATOM      1  N   UNL     1       2.073   8.145  19.146  0.00  0.00    +0.000 N 
ATOM      2  C   UNL     1       2.673   8.181  17.903  0.00  0.00    +0.000 C 
ATOM      3  O   UNL     1       2.465   9.090  17.105  0.00  0.00    +0.000 OA
ATOM      4  H   UNL     1       2.166   7.316  19.716  0.00  0.00    +0.000 HD
ENDROOT
BRANCH   2   5
ATOM      5  C   UNL     1       3.547   7.043  17.598  0.00  0.00    +0.000 A 
ATOM      6  C   UNL     1       4.860   7.086  17.174  0.00  0.00    +0.000 A 
ATOM      7  N   UNL     1       5.298   5.791  16.965  0.00  0.00    +0.000 N 
ATOM      8  C   UNL     1       4.307   4.884  17.300  0.00  0.00    +0.000 A 
ATOM      9  C   UNL     1       4.288   3.475  17.304  0.00  0.00    +0.000 A 
ATOM     10  C   UNL     1       3.100   2.832  17.665  0.00  0.00    +0.000 A 
ATOM     11  C   UNL     1       1.970   3.564  18.008  0.00  0.00    +0.000 A 
ATOM     12  C   UNL     1       2.008   4.961  18.006  0.00  0.00    +0.000 A 
ATOM     13  C   UNL     1       3.192   5.643  17.657  0.00  0.00    +0.000 A 
BRANCH   7  14
ATOM     14  S   UNL     1       6.916   5.414  16.517  0.00  0.00    +0.000 S 
ATOM     15  O   UNL     1       7.627   6.691  16.576  0.00  0.00    +0.000 OA
ATOM     16  O   UNL     1       7.270   4.262  17.317  0.00  0.00    +0.000 OA
BRANCH  14  17
ATOM     17  C   UNL     1       6.755   4.873  14.815  0.00  0.00    +0.000 A 
ATOM     18  C   UNL     1       7.677   5.328  13.865  0.00  0.00    +0.000 A 
ATOM     19  C   UNL     1       7.572   4.876  12.549  0.00  0.00    +0.000 A 
ATOM     20  C   UNL     1       6.568   3.985  12.189  0.00  0.00    +0.000 A 
ATOM     21  C   UNL     1       5.668   3.521  13.145  0.00  0.00    +0.000 A 
ATOM     22  C   UNL     1       5.756   3.965  14.467  0.00  0.00    +0.000 A 
ENDBRANCH  14  17
ENDBRANCH   7  14
ENDBRANCH   2   5
BRANCH   1  23
ATOM     23  C   UNL     1       1.217   9.216  19.632  0.00  0.00    +0.000 C 
BRANCH  23  24
ATOM     24  C   UNL     1       0.230   9.751  18.582  0.00  0.00    +0.000 C 
BRANCH  24  27
ATOM     25  O   UNL     1      -1.703  11.159  17.171  0.00  0.00    +0.000 OA
ATOM     26  C   UNL     1      -1.792  11.138  18.392  0.00  0.00    +0.000 C 
ATOM     27  N   UNL     1      -0.886  10.479  19.184  0.00  0.00    +0.000 N 
ATOM     28  H   UNL     1      -1.065  10.336  20.172  0.00  0.00    +0.000 HD
BRANCH  26  29
ATOM     29  C   UNL     1      -2.951  11.831  19.055  0.00  0.00    +0.000 A 
ATOM     30  C   UNL     1      -2.663  12.583  20.200  0.00  0.00    +0.000 A 
ATOM     31  C   UNL     1      -3.670  13.278  20.867  0.00  0.00    +0.000 A 
ATOM     32  C   UNL     1      -5.004  13.110  20.490  0.00  0.00    +0.000 A 
ATOM     33  C   UNL     1      -6.023  13.726  21.220  0.00  0.00    +0.000 A 
ATOM     34  C   UNL     1      -7.288  13.153  21.229  0.00  0.00    +0.000 A 
ATOM     35  C   UNL     1      -7.611  12.192  20.278  0.00  0.00    +0.000 A 
ATOM     36  C   UNL     1      -6.671  11.832  19.305  0.00  0.00    +0.000 A 
ATOM     37  C   UNL     1      -5.326  12.218  19.445  0.00  0.00    +0.000 A 
ATOM     38  C   UNL     1      -4.287  11.678  18.655  0.00  0.00    +0.000 A 
ENDBRANCH  26  29
ENDBRANCH  24  27
ENDBRANCH  23  24
ENDBRANCH   1  23
TORSDOF 7
ENDMDL
MODEL 5
REMARK VINA RESULT:      -9.5      2.789      3.929
REMARK  Name = 
REMARK  7 active torsions:
REMARK  status: ('A' for Active; 'I' for Inactive)
REMARK    1  A    between atoms: C_2  and  C_27
REMARK    2  A    between atoms: N_3  and  C_4
REMARK    3  A    between atoms: C_4  and  C_5
REMARK    4  A    between atoms: C_5  and  N_6
REMARK    5  A    between atoms: C_7  and  C_9
REMARK    6  A    between atoms: N_11  and  S_12
REMARK    7  A    between atoms: S_12  and  C_15
REMARK                            x       y       z     vdW  Elec       q    Type
REMARK                         _______ _______ _______ _____ _____    ______ ____
ROOT
ATOM      1  N   UNL     1       1.709   8.314  19.763  0.00  0.00    +0.000 N 
ATOM      2  C   UNL     1       1.813   6.963  20.028  0.00  0.00    +0.000 C 
ATOM      3  O   UNL     1       1.345   6.461  21.045  0.00  0.00    +0.000 OA
ATOM      4  H   UNL     1       2.221   8.706  18.984  0.00  0.00    +0.000 HD
ENDROOT
BRANCH   2   5
ATOM      5  C   UNL     1       2.547   6.183  19.025  0.00  0.00    +0.000 A 
ATOM      6  C   UNL     1       3.581   6.615  18.221  0.00  0.00    +0.000 A 
ATOM      7  N   UNL     1       3.960   5.575  17.393  0.00  0.00    +0.000 N 
ATOM      8  C   UNL     1       3.225   4.437  17.677  0.00  0.00    +0.000 A 
ATOM      9  C   UNL     1       3.274   3.131  17.148  0.00  0.00    +0.000 A 
ATOM     10  C   UNL     1       2.357   2.190  17.624  0.00  0.00    +0.000 A 
ATOM     11  C   UNL     1       1.422   2.535  18.593  0.00  0.00    +0.000 A 
ATOM     12  C   UNL     1       1.392   3.831  19.113  0.00  0.00    +0.000 A 
ATOM     13  C   UNL     1       2.309   4.804  18.663  0.00  0.00    +0.000 A 
BRANCH   7  14
ATOM     14  S   UNL     1       5.285   5.686  16.301  0.00  0.00    +0.000 S 
ATOM     15  O   UNL     1       5.593   4.301  15.945  0.00  0.00    +0.000 OA
ATOM     16  O   UNL     1       4.896   6.693  15.337  0.00  0.00    +0.000 OA
BRANCH  14  17
ATOM     17  C   UNL     1       6.595   6.372  17.314  0.00  0.00    +0.000 A 
ATOM     18  C   UNL     1       7.019   7.686  17.083  0.00  0.00    +0.000 A 
ATOM     19  C   UNL     1       8.013   8.230  17.897  0.00  0.00    +0.000 A 
ATOM     20  C   UNL     1       8.571   7.478  18.925  0.00  0.00    +0.000 A 
ATOM     21  C   UNL     1       8.128   6.179  19.161  0.00  0.00    +0.000 A 
ATOM     22  C   UNL     1       7.136   5.617  18.353  0.00  0.00    +0.000 A 
ENDBRANCH  14  17
ENDBRANCH   7  14
ENDBRANCH   2   5
BRANCH   1  23
ATOM     23  C   UNL     1       0.971   9.225  20.623  0.00  0.00    +0.000 C 
BRANCH  23  24
ATOM     24  C   UNL     1       0.990  10.686  20.146  0.00  0.00    +0.000 C 
BRANCH  24  27
ATOM     25  O   UNL     1      -0.851  10.574  18.070  0.00  0.00    +0.000 OA
ATOM     26  C   UNL     1      -1.175  11.176  19.085  0.00  0.00    +0.000 C 
ATOM     27  N   UNL     1      -0.339  11.298  20.167  0.00  0.00    +0.000 N 
ATOM     28  H   UNL     1      -0.680  11.655  21.052  0.00  0.00    +0.000 HD
BRANCH  26  29
ATOM     29  C   UNL     1      -2.550  11.780  19.173  0.00  0.00    +0.000 A 
ATOM     30  C   UNL     1      -2.819  12.570  20.296  0.00  0.00    +0.000 A 
ATOM     31  C   UNL     1      -4.058  13.189  20.451  0.00  0.00    +0.000 A 
ATOM     32  C   UNL     1      -5.097  12.906  19.562  0.00  0.00    +0.000 A 
ATOM     33  C   UNL     1      -6.368  13.445  19.772  0.00  0.00    +0.000 A 
ATOM     34  C   UNL     1      -7.478  12.769  19.283  0.00  0.00    +0.000 A 
ATOM     35  C   UNL     1      -7.307  11.771  18.332  0.00  0.00    +0.000 A 
ATOM     36  C   UNL     1      -6.024  11.476  17.855  0.00  0.00    +0.000 A 
ATOM     37  C   UNL     1      -4.891  11.974  18.523  0.00  0.00    +0.000 A 
ATOM     38  C   UNL     1      -3.582  11.510  18.263  0.00  0.00    +0.000 A 
ENDBRANCH  26  29
ENDBRANCH  24  27
ENDBRANCH  23  24
ENDBRANCH   1  23
TORSDOF 7
ENDMDL
MODEL 6
REMARK VINA RESULT:      -9.4      1.980      2.615
REMARK  Name = 
REMARK  7 active torsions:
REMARK  status: ('A' for Active; 'I' for Inactive)
REMARK    1  A    between atoms: C_2  and  C_27
REMARK    2  A    between atoms: N_3  and  C_4
REMARK    3  A    between atoms: C_4  and  C_5
REMARK    4  A    between atoms: C_5  and  N_6
REMARK    5  A    between atoms: C_7  and  C_9
REMARK    6  A    between atoms: N_11  and  S_12
REMARK    7  A    between atoms: S_12  and  C_15
REMARK                            x       y       z     vdW  Elec       q    Type
REMARK                         _______ _______ _______ _____ _____    ______ ____
ROOT
ATOM      1  N   UNL     1       1.897   8.525  18.366  0.00  0.00    +0.000 N 
ATOM      2  C   UNL     1       1.797   7.784  19.526  0.00  0.00    +0.000 C 
ATOM      3  O   UNL     1       1.120   8.156  20.480  0.00  0.00    +0.000 OA
ATOM      4  H   UNL     1       2.566   8.251  17.660  0.00  0.00    +0.000 HD
ENDROOT
BRANCH   2   5
ATOM      5  C   UNL     1       2.580   6.544  19.546  0.00  0.00    +0.000 A 
ATOM      6  C   UNL     1       3.899   6.380  19.174  0.00  0.00    +0.000 A 
ATOM      7  N   UNL     1       4.233   5.046  19.309  0.00  0.00    +0.000 N 
ATOM      8  C   UNL     1       3.165   4.328  19.821  0.00  0.00    +0.000 A 
ATOM      9  C   UNL     1       3.030   2.970  20.175  0.00  0.00    +0.000 A 
ATOM     10  C   UNL     1       1.787   2.529  20.638  0.00  0.00    +0.000 A 
ATOM     11  C   UNL     1       0.716   3.407  20.746  0.00  0.00    +0.000 A 
ATOM     12  C   UNL     1       0.868   4.751  20.400  0.00  0.00    +0.000 A 
ATOM     13  C   UNL     1       2.110   5.234  19.937  0.00  0.00    +0.000 A 
BRANCH   7  14
ATOM     14  S   UNL     1       5.822   4.448  19.030  0.00  0.00    +0.000 S 
ATOM     15  O   UNL     1       6.704   5.409  19.692  0.00  0.00    +0.000 OA
ATOM     16  O   UNL     1       5.763   3.044  19.376  0.00  0.00    +0.000 OA
BRANCH  14  17
ATOM     17  C   UNL     1       5.999   4.570  17.250  0.00  0.00    +0.000 A 
ATOM     18  C   UNL     1       7.235   4.949  16.713  0.00  0.00    +0.000 A 
ATOM     19  C   UNL     1       7.381   5.007  15.326  0.00  0.00    +0.000 A 
ATOM     20  C   UNL     1       6.315   4.688  14.492  0.00  0.00    +0.000 A 
ATOM     21  C   UNL     1       5.096   4.290  15.036  0.00  0.00    +0.000 A 
ATOM     22  C   UNL     1       4.931   4.231  16.422  0.00  0.00    +0.000 A 
ENDBRANCH  14  17
ENDBRANCH   7  14
ENDBRANCH   2   5
BRANCH   1  23
ATOM     23  C   UNL     1       1.147   9.754  18.156  0.00  0.00    +0.000 C 
BRANCH  23  24
ATOM     24  C   UNL     1       1.325  10.792  19.277  0.00  0.00    +0.000 C 
BRANCH  24  27
ATOM     25  O   UNL     1       0.766  11.113  21.977  0.00  0.00    +0.000 OA
ATOM     26  C   UNL     1      -0.121  11.380  21.178  0.00  0.00    +0.000 C 
ATOM     27  N   UNL     1       0.047  11.250  19.822  0.00  0.00    +0.000 N 
ATOM     28  H   UNL     1      -0.634  11.627  19.173  0.00  0.00    +0.000 HD
BRANCH  26  29
ATOM     29  C   UNL     1      -1.437  11.901  21.688  0.00  0.00    +0.000 A 
ATOM     30  C   UNL     1      -1.738  11.642  23.030  0.00  0.00    +0.000 A 
ATOM     31  C   UNL     1      -2.924  12.106  23.596  0.00  0.00    +0.000 A 
ATOM     32  C   UNL     1      -3.895  12.706  22.791  0.00  0.00    +0.000 A 
ATOM     33  C   UNL     1      -5.125  13.080  23.337  0.00  0.00    +0.000 A 
ATOM     34  C   UNL     1      -6.240  13.134  22.511  0.00  0.00    +0.000 A 
ATOM     35  C   UNL     1      -6.072  13.142  21.132  0.00  0.00    +0.000 A 
ATOM     36  C   UNL     1      -4.782  13.124  20.588  0.00  0.00    +0.000 A 
ATOM     37  C   UNL     1      -3.677  12.818  21.402  0.00  0.00    +0.000 A 
ATOM     38  C   UNL     1      -2.398  12.525  20.879  0.00  0.00    +0.000 A 
ENDBRANCH  26  29
ENDBRANCH  24  27
ENDBRANCH  23  24
ENDBRANCH   1  23
TORSDOF 7
ENDMDL
MODEL 7
REMARK VINA RESULT:      -9.3      3.036     11.660
REMARK  Name = 
REMARK  7 active torsions:
REMARK  status: ('A' for Active; 'I' for Inactive)
REMARK    1  A    between atoms: C_2  and  C_27
REMARK    2  A    between atoms: N_3  and  C_4
REMARK    3  A    between atoms: C_4  and  C_5
REMARK    4  A    between atoms: C_5  and  N_6
REMARK    5  A    between atoms: C_7  and  C_9
REMARK    6  A    between atoms: N_11  and  S_12
REMARK    7  A    between atoms: S_12  and  C_15
REMARK                            x       y       z     vdW  Elec       q    Type
REMARK                         _______ _______ _______ _____ _____    ______ ____
ROOT
ATOM      1  N   UNL     1       1.908   7.218  20.337  0.00  0.00    +0.000 N 
ATOM      2  C   UNL     1       1.873   8.232  19.401  0.00  0.00    +0.000 C 
ATOM      3  O   UNL     1       2.556   8.203  18.382  0.00  0.00    +0.000 OA
ATOM      4  H   UNL     1       1.434   7.342  21.220  0.00  0.00    +0.000 HD
ENDROOT
BRANCH   2   5
ATOM      5  C   UNL     1       0.987   9.354  19.729  0.00  0.00    +0.000 A 
ATOM      6  C   UNL     1       0.568  10.365  18.888  0.00  0.00    +0.000 A 
ATOM      7  N   UNL     1      -0.225  11.238  19.608  0.00  0.00    +0.000 N 
ATOM      8  C   UNL     1      -0.386  10.788  20.908  0.00  0.00    +0.000 A 
ATOM      9  C   UNL     1      -1.131  11.295  21.992  0.00  0.00    +0.000 A 
ATOM     10  C   UNL     1      -1.060  10.622  23.215  0.00  0.00    +0.000 A 
ATOM     11  C   UNL     1      -0.276   9.484  23.356  0.00  0.00    +0.000 A 
ATOM     12  C   UNL     1       0.450   8.988  22.270  0.00  0.00    +0.000 A 
ATOM     13  C   UNL     1       0.395   9.637  21.018  0.00  0.00    +0.000 A 
BRANCH   7  14
ATOM     14  S   UNL     1      -1.018  12.586  18.892  0.00  0.00    +0.000 S 
ATOM     15  O   UNL     1      -1.119  13.574  19.966  0.00  0.00    +0.000 OA
ATOM     16  O   UNL     1      -0.314  12.822  17.650  0.00  0.00    +0.000 OA
BRANCH  14  17
ATOM     17  C   UNL     1      -2.642  11.941  18.491  0.00  0.00    +0.000 A 
ATOM     18  C   UNL     1      -3.719  12.229  19.338  0.00  0.00    +0.000 A 
ATOM     19  C   UNL     1      -4.989  11.757  19.004  0.00  0.00    +0.000 A 
ATOM     20  C   UNL     1      -5.181  11.016  17.844  0.00  0.00    +0.000 A 
ATOM     21  C   UNL     1      -4.108  10.753  16.995  0.00  0.00    +0.000 A 
ATOM     22  C   UNL     1      -2.829  11.214  17.316  0.00  0.00    +0.000 A 
ENDBRANCH  14  17
ENDBRANCH   7  14
ENDBRANCH   2   5
BRANCH   1  23
ATOM     23  C   UNL     1       2.692   6.007  20.147  0.00  0.00    +0.000 C 
BRANCH  23  24
ATOM     24  C   UNL     1       2.259   5.167  18.935  0.00  0.00    +0.000 C 
BRANCH  24  27
ATOM     25  O   UNL     1       4.597   3.685  18.723  0.00  0.00    +0.000 OA
ATOM     26  C   UNL     1       4.337   4.467  17.819  0.00  0.00    +0.000 C 
ATOM     27  N   UNL     1       3.211   5.252  17.827  0.00  0.00    +0.000 N 
ATOM     28  H   UNL     1       2.929   5.769  17.002  0.00  0.00    +0.000 HD
BRANCH  26  29
ATOM     29  C   UNL     1       5.260   4.554  16.635  0.00  0.00    +0.000 A 
ATOM     30  C   UNL     1       6.134   5.647  16.598  0.00  0.00    +0.000 A 
ATOM     31  C   UNL     1       7.042   5.798  15.552  0.00  0.00    +0.000 A 
ATOM     32  C   UNL     1       6.987   4.943  14.449  0.00  0.00    +0.000 A 
ATOM     33  C   UNL     1       7.827   5.154  13.354  0.00  0.00    +0.000 A 
ATOM     34  C   UNL     1       7.424   4.717  12.099  0.00  0.00    +0.000 A 
ATOM     35  C   UNL     1       6.378   3.808  11.995  0.00  0.00    +0.000 A 
ATOM     36  C   UNL     1       5.761   3.320  13.153  0.00  0.00    +0.000 A 
ATOM     37  C   UNL     1       5.994   3.942  14.392  0.00  0.00    +0.000 A 
ATOM     38  C   UNL     1       5.216   3.677  15.541  0.00  0.00    +0.000 A 
ENDBRANCH  26  29
ENDBRANCH  24  27
ENDBRANCH  23  24
ENDBRANCH   1  23
TORSDOF 7
ENDMDL
MODEL 8
REMARK VINA RESULT:      -9.2      2.731     12.125
REMARK  Name = 
REMARK  7 active torsions:
REMARK  status: ('A' for Active; 'I' for Inactive)
REMARK    1  A    between atoms: C_2  and  C_27
REMARK    2  A    between atoms: N_3  and  C_4
REMARK    3  A    between atoms: C_4  and  C_5
REMARK    4  A    between atoms: C_5  and  N_6
REMARK    5  A    between atoms: C_7  and  C_9
REMARK    6  A    between atoms: N_11  and  S_12
REMARK    7  A    between atoms: S_12  and  C_15
REMARK                            x       y       z     vdW  Elec       q    Type
REMARK                         _______ _______ _______ _____ _____    ______ ____
ROOT
ATOM      1  N   UNL     1       1.724   8.009  20.033  0.00  0.00    +0.000 N 
ATOM      2  C   UNL     1       1.732   8.943  19.017  0.00  0.00    +0.000 C 
ATOM      3  O   UNL     1       2.478   8.845  18.048  0.00  0.00    +0.000 OA
ATOM      4  H   UNL     1       1.192   8.196  20.872  0.00  0.00    +0.000 HD
ENDROOT
BRANCH   2   5
ATOM      5  C   UNL     1       0.810  10.070  19.196  0.00  0.00    +0.000 A 
ATOM      6  C   UNL     1       0.921  11.108  20.098  0.00  0.00    +0.000 A 
ATOM      7  N   UNL     1      -0.180  11.933  19.961  0.00  0.00    +0.000 N 
ATOM      8  C   UNL     1      -0.995  11.485  18.935  0.00  0.00    +0.000 A 
ATOM      9  C   UNL     1      -2.187  12.003  18.390  0.00  0.00    +0.000 A 
ATOM     10  C   UNL     1      -2.810  11.288  17.363  0.00  0.00    +0.000 A 
ATOM     11  C   UNL     1      -2.267  10.097  16.895  0.00  0.00    +0.000 A 
ATOM     12  C   UNL     1      -1.081   9.601  17.441  0.00  0.00    +0.000 A 
ATOM     13  C   UNL     1      -0.420  10.302  18.471  0.00  0.00    +0.000 A 
BRANCH   7  14
ATOM     14  S   UNL     1      -0.369  13.394  20.849  0.00  0.00    +0.000 S 
ATOM     15  O   UNL     1       0.782  13.435  21.750  0.00  0.00    +0.000 OA
ATOM     16  O   UNL     1      -0.642  14.408  19.853  0.00  0.00    +0.000 OA
BRANCH  14  17
ATOM     17  C   UNL     1      -1.875  13.117  21.779  0.00  0.00    +0.000 A 
ATOM     18  C   UNL     1      -1.835  12.296  22.913  0.00  0.00    +0.000 A 
ATOM     19  C   UNL     1      -3.001  12.111  23.657  0.00  0.00    +0.000 A 
ATOM     20  C   UNL     1      -4.183  12.737  23.280  0.00  0.00    +0.000 A 
ATOM     21  C   UNL     1      -4.209  13.570  22.164  0.00  0.00    +0.000 A 
ATOM     22  C   UNL     1      -3.052  13.763  21.404  0.00  0.00    +0.000 A 
ENDBRANCH  14  17
ENDBRANCH   7  14
ENDBRANCH   2   5
BRANCH   1  23
ATOM     23  C   UNL     1       2.536   6.803  19.993  0.00  0.00    +0.000 C 
BRANCH  23  24
ATOM     24  C   UNL     1       2.176   5.847  18.846  0.00  0.00    +0.000 C 
BRANCH  24  27
ATOM     25  O   UNL     1       4.019   3.808  18.451  0.00  0.00    +0.000 OA
ATOM     26  C   UNL     1       4.054   4.762  17.685  0.00  0.00    +0.000 C 
ATOM     27  N   UNL     1       3.193   5.826  17.795  0.00  0.00    +0.000 N 
ATOM     28  H   UNL     1       3.128   6.522  17.062  0.00  0.00    +0.000 HD
BRANCH  26  29
ATOM     29  C   UNL     1       5.051   4.763  16.558  0.00  0.00    +0.000 A 
ATOM     30  C   UNL     1       5.980   5.810  16.542  0.00  0.00    +0.000 A 
ATOM     31  C   UNL     1       6.955   5.880  15.549  0.00  0.00    +0.000 A 
ATOM     32  C   UNL     1       6.924   4.991  14.473  0.00  0.00    +0.000 A 
ATOM     33  C   UNL     1       7.839   5.123  13.426  0.00  0.00    +0.000 A 
ATOM     34  C   UNL     1       7.491   4.662  12.164  0.00  0.00    +0.000 A 
ATOM     35  C   UNL     1       6.409   3.802  12.023  0.00  0.00    +0.000 A 
ATOM     36  C   UNL     1       5.699   3.385  13.156  0.00  0.00    +0.000 A 
ATOM     37  C   UNL     1       5.887   4.038  14.386  0.00  0.00    +0.000 A 
ATOM     38  C   UNL     1       5.028   3.852  15.492  0.00  0.00    +0.000 A 
ENDBRANCH  26  29
ENDBRANCH  24  27
ENDBRANCH  23  24
ENDBRANCH   1  23
TORSDOF 7
ENDMDL
MODEL 9
REMARK VINA RESULT:      -9.1      1.843      2.899
REMARK  Name = 
REMARK  7 active torsions:
REMARK  status: ('A' for Active; 'I' for Inactive)
REMARK    1  A    between atoms: C_2  and  C_27
REMARK    2  A    between atoms: N_3  and  C_4
REMARK    3  A    between atoms: C_4  and  C_5
REMARK    4  A    between atoms: C_5  and  N_6
REMARK    5  A    between atoms: C_7  and  C_9
REMARK    6  A    between atoms: N_11  and  S_12
REMARK    7  A    between atoms: S_12  and  C_15
REMARK                            x       y       z     vdW  Elec       q    Type
REMARK                         _______ _______ _______ _____ _____    ______ ____
ROOT
ATOM      1  N   UNL     1       2.667   8.967  17.622  0.00  0.00    +0.000 N 
ATOM      2  C   UNL     1       2.501   7.750  18.251  0.00  0.00    +0.000 C 
ATOM      3  O   UNL     1       1.640   7.569  19.105  0.00  0.00    +0.000 OA
ATOM      4  H   UNL     1       3.469   9.111  17.025  0.00  0.00    +0.000 HD
ENDROOT
BRANCH   2   5
ATOM      5  C   UNL     1       3.447   6.704  17.846  0.00  0.00    +0.000 A 
ATOM      6  C   UNL     1       4.735   6.873  17.381  0.00  0.00    +0.000 A 
ATOM      7  N   UNL     1       5.262   5.632  17.078  0.00  0.00    +0.000 N 
ATOM      8  C   UNL     1       4.357   4.632  17.390  0.00  0.00    +0.000 A 
ATOM      9  C   UNL     1       4.445   3.227  17.309  0.00  0.00    +0.000 A 
ATOM     10  C   UNL     1       3.325   2.473  17.670  0.00  0.00    +0.000 A 
ATOM     11  C   UNL     1       2.157   3.093  18.096  0.00  0.00    +0.000 A 
ATOM     12  C   UNL     1       2.088   4.486  18.178  0.00  0.00    +0.000 A 
ATOM     13  C   UNL     1       3.202   5.278  17.832  0.00  0.00    +0.000 A 
BRANCH   7  14
ATOM     14  S   UNL     1       6.885   5.409  16.553  0.00  0.00    +0.000 S 
ATOM     15  O   UNL     1       7.465   6.752  16.551  0.00  0.00    +0.000 OA
ATOM     16  O   UNL     1       7.395   4.319  17.356  0.00  0.00    +0.000 OA
BRANCH  14  17
ATOM     17  C   UNL     1       6.695   4.814  14.873  0.00  0.00    +0.000 A 
ATOM     18  C   UNL     1       5.566   4.056  14.542  0.00  0.00    +0.000 A 
ATOM     19  C   UNL     1       5.401   3.625  13.225  0.00  0.00    +0.000 A 
ATOM     20  C   UNL     1       6.343   3.949  12.255  0.00  0.00    +0.000 A 
ATOM     21  C   UNL     1       7.452   4.723  12.589  0.00  0.00    +0.000 A 
ATOM     22  C   UNL     1       7.635   5.159  13.903  0.00  0.00    +0.000 A 
ENDBRANCH  14  17
ENDBRANCH   7  14
ENDBRANCH   2   5
BRANCH   1  23
ATOM     23  C   UNL     1       1.785  10.098  17.865  0.00  0.00    +0.000 C 
BRANCH  23  24
ATOM     24  C   UNL     1       1.185  10.129  19.280  0.00  0.00    +0.000 C 
BRANCH  24  27
ATOM     25  O   UNL     1       0.105  12.549  20.110  0.00  0.00    +0.000 OA
ATOM     26  C   UNL     1      -0.667  11.692  19.703  0.00  0.00    +0.000 C 
ATOM     27  N   UNL     1      -0.240  10.459  19.276  0.00  0.00    +0.000 N 
ATOM     28  H   UNL     1      -0.869   9.828  18.794  0.00  0.00    +0.000 HD
BRANCH  26  29
ATOM     29  C   UNL     1      -2.138  12.002  19.634  0.00  0.00    +0.000 A 
ATOM     30  C   UNL     1      -2.696  12.652  20.740  0.00  0.00    +0.000 A 
ATOM     31  C   UNL     1      -4.045  13.000  20.755  0.00  0.00    +0.000 A 
ATOM     32  C   UNL     1      -4.890  12.569  19.730  0.00  0.00    +0.000 A 
ATOM     33  C   UNL     1      -6.261  12.830  19.794  0.00  0.00    +0.000 A 
ATOM     34  C   UNL     1      -7.141  11.976  19.143  0.00  0.00    +0.000 A 
ATOM     35  C   UNL     1      -6.656  11.092  18.187  0.00  0.00    +0.000 A 
ATOM     36  C   UNL     1      -5.292  11.089  17.870  0.00  0.00    +0.000 A 
ATOM     37  C   UNL     1      -4.375  11.762  18.694  0.00  0.00    +0.000 A 
ATOM     38  C   UNL     1      -2.977  11.586  18.589  0.00  0.00    +0.000 A 
ENDBRANCH  26  29
ENDBRANCH  24  27
ENDBRANCH  23  24
ENDBRANCH   1  23
TORSDOF 7
ENDMDL
