MODEL 1
REMARK VINA RESULT:      -8.2      0.000      0.000
REMARK  Name = 
REMARK  7 active torsions:
REMARK  status: ('A' for Active; 'I' for Inactive)
REMARK    1  A    between atoms: C_1  and  C_2
REMARK    2  A    between atoms: C_2  and  C_3
REMARK    3  A    between atoms: C_2  and  C_4
REMARK    4  A    between atoms: C_7  and  N_8
REMARK    5  A    between atoms: N_11  and  C_12
REMARK    6  A    between atoms: C_12  and  C_13
REMARK    7  A    between atoms: C_13  and  N_14
REMARK                            x       y       z     vdW  Elec       q    Type
REMARK                         _______ _______ _______ _____ _____    ______ ____
ROOT
ATOM      1  C   UNL     1       5.306   6.751  17.642  0.00  0.00    +0.000 C 
ENDROOT
BRANCH   1   2
ATOM      2  N   UNL     1       5.277   5.294  17.662  0.00  0.00    +0.000 N 
ATOM      3  C   UNL     1       4.759   4.661  16.530  0.00  0.00    +0.000 A 
ATOM      4  O   UNL     1       5.039   4.985  15.377  0.00  0.00    +0.000 OA
ATOM      5  N   UNL     1       3.840   3.657  16.785  0.00  0.00    +0.000 N 
ATOM      6  C   UNL     1       3.858   3.059  18.032  0.00  0.00    +0.000 A 
ATOM      7  C   UNL     1       4.972   3.263  18.817  0.00  0.00    +0.000 A 
ATOM      8  N   UNL     1       4.791   2.372  19.843  0.00  0.00    +0.000 N 
ATOM      9  C   UNL     1       3.469   2.540  20.212  0.00  0.00    +0.000 A 
ATOM     10  C   UNL     1       2.857   2.393  21.445  0.00  0.00    +0.000 A 
ATOM     11  C   UNL     1       1.605   2.994  21.586  0.00  0.00    +0.000 A 
ATOM     12  C   UNL     1       0.981   3.623  20.502  0.00  0.00    +0.000 A 
ATOM     13  C   UNL     1       1.563   3.623  19.221  0.00  0.00    +0.000 A 
ATOM     14  C   UNL     1       2.836   3.068  19.059  0.00  0.00    +0.000 A 
ATOM     15  C   UNL     1       5.522   4.603  18.849  0.00  0.00    +0.000 A 
ATOM     16  O   UNL     1       6.010   5.105  19.855  0.00  0.00    +0.000 OA
ATOM     17  H   UNL     1       3.588   3.090  15.989  0.00  0.00    +0.000 HD
ATOM     18  H   UNL     1       5.231   1.461  19.895  0.00  0.00    +0.000 HD
ENDBRANCH   1   2
BRANCH   1  19
ATOM     19  C   UNL     1       4.217   7.302  18.611  0.00  0.00    +0.000 C 
BRANCH  19  23
ATOM     20  N   UNL     1       1.390   9.513  19.001  0.00  0.00    +0.000 N 
ATOM     21  C   UNL     1       1.733   8.512  20.024  0.00  0.00    +0.000 C 
ATOM     22  C   UNL     1       1.891   7.099  19.417  0.00  0.00    +0.000 C 
ATOM     23  N   UNL     1       2.811   7.014  18.257  0.00  0.00    +0.000 NA
ATOM     24  C   UNL     1       2.316   7.991  17.246  0.00  0.00    +0.000 C 
ATOM     25  C   UNL     1       2.159   9.455  17.745  0.00  0.00    +0.000 C 
BRANCH  20  29
ATOM     26  C   UNL     1      -2.371  11.474  19.058  0.00  0.00    +0.000 A 
ATOM     27  C   UNL     1      -1.431  11.680  20.074  0.00  0.00    +0.000 A 
ATOM     28  C   UNL     1      -0.187  11.034  20.037  0.00  0.00    +0.000 A 
ATOM     29  C   UNL     1       0.162  10.157  19.000  0.00  0.00    +0.000 A 
ATOM     30  C   UNL     1      -0.791   9.955  17.997  0.00  0.00    +0.000 A 
ATOM     31  C   UNL     1      -2.035  10.597  18.022  0.00  0.00    +0.000 A 
BRANCH  26  33
ATOM     32  C   UNL     1      -4.809  11.348  18.439  0.00  0.00    +0.000 C 
ATOM     33  C   UNL     1      -3.707  12.195  19.083  0.00  0.00    +0.000 C 
ATOM     34  C   UNL     1      -4.104  12.606  20.503  0.00  0.00    +0.000 C 
ENDBRANCH  26  33
ENDBRANCH  20  29
ENDBRANCH  19  23
ENDBRANCH   1  19
TORSDOF 5
ENDMDL
MODEL 2
REMARK VINA RESULT:      -7.9      0.576      1.243
REMARK  Name = 
REMARK  7 active torsions:
REMARK  status: ('A' for Active; 'I' for Inactive)
REMARK    1  A    between atoms: C_1  and  C_2
REMARK    2  A    between atoms: C_2  and  C_3
REMARK    3  A    between atoms: C_2  and  C_4
REMARK    4  A    between atoms: C_7  and  N_8
REMARK    5  A    between atoms: N_11  and  C_12
REMARK    6  A    between atoms: C_12  and  C_13
REMARK    7  A    between atoms: C_13  and  N_14
REMARK                            x       y       z     vdW  Elec       q    Type
REMARK                         _______ _______ _______ _____ _____    ______ ____
ROOT
ATOM      1  C   UNL     1       4.983   6.681  17.252  0.00  0.00    +0.000 C 
ENDROOT
BRANCH   1   2
ATOM      2  N   UNL     1       5.084   5.238  17.432  0.00  0.00    +0.000 N 
ATOM      3  C   UNL     1       4.673   4.442  16.362  0.00  0.00    +0.000 A 
ATOM      4  O   UNL     1       4.970   4.664  15.190  0.00  0.00    +0.000 OA
ATOM      5  N   UNL     1       3.839   3.388  16.697  0.00  0.00    +0.000 N 
ATOM      6  C   UNL     1       3.858   2.932  18.002  0.00  0.00    +0.000 A 
ATOM      7  C   UNL     1       4.916   3.324  18.794  0.00  0.00    +0.000 A 
ATOM      8  N   UNL     1       4.773   2.534  19.907  0.00  0.00    +0.000 N 
ATOM      9  C   UNL     1       3.427   2.616  20.214  0.00  0.00    +0.000 A 
ATOM     10  C   UNL     1       2.781   2.545  21.436  0.00  0.00    +0.000 A 
ATOM     11  C   UNL     1       1.475   3.038  21.470  0.00  0.00    +0.000 A 
ATOM     12  C   UNL     1       0.842   3.485  20.304  0.00  0.00    +0.000 A 
ATOM     13  C   UNL     1       1.474   3.402  19.050  0.00  0.00    +0.000 A 
ATOM     14  C   UNL     1       2.798   2.956  18.990  0.00  0.00    +0.000 A 
ATOM     15  C   UNL     1       5.342   4.705  18.696  0.00  0.00    +0.000 A 
ATOM     16  O   UNL     1       5.740   5.355  19.655  0.00  0.00    +0.000 OA
ATOM     17  H   UNL     1       3.672   2.718  15.961  0.00  0.00    +0.000 HD
ATOM     18  H   UNL     1       5.292   1.680  20.073  0.00  0.00    +0.000 HD
ENDBRANCH   1   2
BRANCH   1  19
ATOM     19  C   UNL     1       4.047   7.273  18.348  0.00  0.00    +0.000 C 
BRANCH  19  23
ATOM     20  N   UNL     1       1.474   9.545  19.467  0.00  0.00    +0.000 N 
ATOM     21  C   UNL     1       1.833   8.344  20.241  0.00  0.00    +0.000 C 
ATOM     22  C   UNL     1       1.807   7.069  19.368  0.00  0.00    +0.000 C 
ATOM     23  N   UNL     1       2.593   7.150  18.114  0.00  0.00    +0.000 NA
ATOM     24  C   UNL     1       2.083   8.334  17.366  0.00  0.00    +0.000 C 
ATOM     25  C   UNL     1       2.103   9.681  18.142  0.00  0.00    +0.000 C 
BRANCH  20  29
ATOM     26  C   UNL     1      -2.081  11.738  20.210  0.00  0.00    +0.000 A 
ATOM     27  C   UNL     1      -1.874  11.083  18.991  0.00  0.00    +0.000 A 
ATOM     28  C   UNL     1      -0.699  10.352  18.762  0.00  0.00    +0.000 A 
ATOM     29  C   UNL     1       0.312  10.255  19.728  0.00  0.00    +0.000 A 
ATOM     30  C   UNL     1       0.095  10.921  20.939  0.00  0.00    +0.000 A 
ATOM     31  C   UNL     1      -1.075  11.651  21.178  0.00  0.00    +0.000 A 
BRANCH  26  33
ATOM     32  C   UNL     1      -3.083  13.990  20.725  0.00  0.00    +0.000 C 
ATOM     33  C   UNL     1      -3.364  12.506  20.467  0.00  0.00    +0.000 C 
ATOM     34  C   UNL     1      -4.367  12.337  19.323  0.00  0.00    +0.000 C 
ENDBRANCH  26  33
ENDBRANCH  20  29
ENDBRANCH  19  23
ENDBRANCH   1  19
TORSDOF 5
ENDMDL
MODEL 3
REMARK VINA RESULT:      -7.8      4.697     10.848
REMARK  Name = 
REMARK  7 active torsions:
REMARK  status: ('A' for Active; 'I' for Inactive)
REMARK    1  A    between atoms: C_1  and  C_2
REMARK    2  A    between atoms: C_2  and  C_3
REMARK    3  A    between atoms: C_2  and  C_4
REMARK    4  A    between atoms: C_7  and  N_8
REMARK    5  A    between atoms: N_11  and  C_12
REMARK    6  A    between atoms: C_12  and  C_13
REMARK    7  A    between atoms: C_13  and  N_14
REMARK                            x       y       z     vdW  Elec       q    Type
REMARK                         _______ _______ _______ _____ _____    ______ ____
ROOT
ATOM      1  C   UNL     1      -1.993  14.385  21.842  0.00  0.00    +0.000 C 
ENDROOT
BRANCH   1   2
ATOM      2  N   UNL     1      -3.432  14.221  22.003  0.00  0.00    +0.000 N 
ATOM      3  C   UNL     1      -3.860  13.105  22.725  0.00  0.00    +0.000 A 
ATOM      4  O   UNL     1      -3.350  12.737  23.782  0.00  0.00    +0.000 OA
ATOM      5  N   UNL     1      -4.882  12.379  22.137  0.00  0.00    +0.000 N 
ATOM      6  C   UNL     1      -5.682  13.017  21.206  0.00  0.00    +0.000 A 
ATOM      7  C   UNL     1      -5.625  14.393  21.158  0.00  0.00    +0.000 A 
ATOM      8  N   UNL     1      -6.674  14.715  20.336  0.00  0.00    +0.000 N 
ATOM      9  C   UNL     1      -6.556  13.838  19.272  0.00  0.00    +0.000 A 
ATOM     10  C   UNL     1      -6.901  13.993  17.941  0.00  0.00    +0.000 A 
ATOM     11  C   UNL     1      -6.318  13.094  17.046  0.00  0.00    +0.000 A 
ATOM     12  C   UNL     1      -5.509  12.046  17.501  0.00  0.00    +0.000 A 
ATOM     13  C   UNL     1      -5.300  11.825  18.874  0.00  0.00    +0.000 A 
ATOM     14  C   UNL     1      -5.834  12.734  19.792  0.00  0.00    +0.000 A 
ATOM     15  C   UNL     1      -4.316  15.006  21.261  0.00  0.00    +0.000 A 
ATOM     16  O   UNL     1      -3.996  16.014  20.642  0.00  0.00    +0.000 OA
ATOM     17  H   UNL     1      -5.305  11.674  22.723  0.00  0.00    +0.000 HD
ATOM     18  H   UNL     1      -7.586  15.015  20.661  0.00  0.00    +0.000 HD
ENDBRANCH   1   2
BRANCH   1  19
ATOM     19  C   UNL     1      -1.512  13.539  20.624  0.00  0.00    +0.000 C 
BRANCH  19  23
ATOM     20  N   UNL     1       0.654  10.856  19.556  0.00  0.00    +0.000 N 
ATOM     21  C   UNL     1      -0.370  11.423  18.662  0.00  0.00    +0.000 C 
ATOM     22  C   UNL     1      -1.764  11.452  19.330  0.00  0.00    +0.000 C 
ATOM     23  N   UNL     1      -1.808  12.092  20.666  0.00  0.00    +0.000 NA
ATOM     24  C   UNL     1      -0.810  11.379  21.514  0.00  0.00    +0.000 C 
ATOM     25  C   UNL     1       0.638  11.328  20.951  0.00  0.00    +0.000 C 
BRANCH  20  29
ATOM     26  C   UNL     1       2.551   7.180  18.616  0.00  0.00    +0.000 A 
ATOM     27  C   UNL     1       2.445   8.203  17.668  0.00  0.00    +0.000 A 
ATOM     28  C   UNL     1       1.825   9.418  17.996  0.00  0.00    +0.000 A 
ATOM     29  C   UNL     1       1.282   9.654  19.267  0.00  0.00    +0.000 A 
ATOM     30  C   UNL     1       1.389   8.619  20.201  0.00  0.00    +0.000 A 
ATOM     31  C   UNL     1       2.008   7.404  19.886  0.00  0.00    +0.000 A 
BRANCH  26  33
ATOM     32  C   UNL     1       4.176   5.423  19.402  0.00  0.00    +0.000 C 
ATOM     33  C   UNL     1       3.247   5.876  18.271  0.00  0.00    +0.000 C 
ATOM     34  C   UNL     1       2.244   4.773  17.922  0.00  0.00    +0.000 C 
ENDBRANCH  26  33
ENDBRANCH  20  29
ENDBRANCH  19  23
ENDBRANCH   1  19
TORSDOF 5
ENDMDL
MODEL 4
REMARK VINA RESULT:      -7.8      4.368     10.465
REMARK  Name = 
REMARK  7 active torsions:
REMARK  status: ('A' for Active; 'I' for Inactive)
REMARK    1  A    between atoms: C_1  and  C_2
REMARK    2  A    between atoms: C_2  and  C_3
REMARK    3  A    between atoms: C_2  and  C_4
REMARK    4  A    between atoms: C_7  and  N_8
REMARK    5  A    between atoms: N_11  and  C_12
REMARK    6  A    between atoms: C_12  and  C_13
REMARK    7  A    between atoms: C_13  and  N_14
REMARK                            x       y       z     vdW  Elec       q    Type
REMARK                         _______ _______ _______ _____ _____    ______ ____
ROOT
ATOM      1  C   UNL     1      -0.497  13.589  21.444  0.00  0.00    +0.000 C 
ENDROOT
BRANCH   1   2
ATOM      2  N   UNL     1      -1.265  13.392  22.667  0.00  0.00    +0.000 N 
ATOM      3  C   UNL     1      -1.447  12.073  23.088  0.00  0.00    +0.000 A 
ATOM      4  O   UNL     1      -0.553  11.230  23.103  0.00  0.00    +0.000 OA
ATOM      5  N   UNL     1      -2.744  11.742  23.443  0.00  0.00    +0.000 N 
ATOM      6  C   UNL     1      -3.603  12.765  23.800  0.00  0.00    +0.000 A 
ATOM      7  C   UNL     1      -3.043  13.990  24.092  0.00  0.00    +0.000 A 
ATOM      8  N   UNL     1      -4.096  14.688  24.627  0.00  0.00    +0.000 N 
ATOM      9  C   UNL     1      -5.146  14.436  23.764  0.00  0.00    +0.000 A 
ATOM     10  C   UNL     1      -6.231  15.224  23.419  0.00  0.00    +0.000 A 
ATOM     11  C   UNL     1      -6.907  14.863  22.252  0.00  0.00    +0.000 A 
ATOM     12  C   UNL     1      -6.550  13.712  21.539  0.00  0.00    +0.000 A 
ATOM     13  C   UNL     1      -5.540  12.849  22.000  0.00  0.00    +0.000 A 
ATOM     14  C   UNL     1      -4.815  13.207  23.140  0.00  0.00    +0.000 A 
ATOM     15  C   UNL     1      -1.977  14.453  23.228  0.00  0.00    +0.000 A 
ATOM     16  O   UNL     1      -1.825  15.630  22.919  0.00  0.00    +0.000 OA
ATOM     17  H   UNL     1      -2.852  10.848  23.899  0.00  0.00    +0.000 HD
ATOM     18  H   UNL     1      -4.258  14.808  25.620  0.00  0.00    +0.000 HD
ENDBRANCH   1   2
BRANCH   1  19
ATOM     19  C   UNL     1      -1.429  13.387  20.212  0.00  0.00    +0.000 C 
BRANCH  19  23
ATOM     20  N   UNL     1       0.529  10.376  19.848  0.00  0.00    +0.000 N 
ATOM     21  C   UNL     1       1.162  11.682  20.096  0.00  0.00    +0.000 C 
ATOM     22  C   UNL     1       0.680  12.755  19.094  0.00  0.00    +0.000 C 
ATOM     23  N   UNL     1      -0.792  12.888  18.976  0.00  0.00    +0.000 NA
ATOM     24  C   UNL     1      -1.317  11.538  18.625  0.00  0.00    +0.000 C 
ATOM     25  C   UNL     1      -0.923  10.390  19.596  0.00  0.00    +0.000 C 
BRANCH  20  29
ATOM     26  C   UNL     1       2.764   7.034  18.493  0.00  0.00    +0.000 A 
ATOM     27  C   UNL     1       2.542   8.140  17.667  0.00  0.00    +0.000 A 
ATOM     28  C   UNL     1       1.811   9.244  18.131  0.00  0.00    +0.000 A 
ATOM     29  C   UNL     1       1.268   9.282  19.423  0.00  0.00    +0.000 A 
ATOM     30  C   UNL     1       1.491   8.166  20.235  0.00  0.00    +0.000 A 
ATOM     31  C   UNL     1       2.221   7.060  19.783  0.00  0.00    +0.000 A 
BRANCH  26  33
ATOM     32  C   UNL     1       4.723   5.523  18.965  0.00  0.00    +0.000 C 
ATOM     33  C   UNL     1       3.578   5.851  18.001  0.00  0.00    +0.000 C 
ATOM     34  C   UNL     1       2.703   4.618  17.763  0.00  0.00    +0.000 C 
ENDBRANCH  26  33
ENDBRANCH  20  29
ENDBRANCH  19  23
ENDBRANCH   1  19
TORSDOF 5
ENDMDL
MODEL 5
REMARK VINA RESULT:      -7.7      4.334      9.840
REMARK  Name = 
REMARK  7 active torsions:
REMARK  status: ('A' for Active; 'I' for Inactive)
REMARK    1  A    between atoms: C_1  and  C_2
REMARK    2  A    between atoms: C_2  and  C_3
REMARK    3  A    between atoms: C_2  and  C_4
REMARK    4  A    between atoms: C_7  and  N_8
REMARK    5  A    between atoms: N_11  and  C_12
REMARK    6  A    between atoms: C_12  and  C_13
REMARK    7  A    between atoms: C_13  and  N_14
REMARK                            x       y       z     vdW  Elec       q    Type
REMARK                         _______ _______ _______ _____ _____    ______ ____
ROOT
ATOM      1  C   UNL     1      -1.124  12.340  22.082  0.00  0.00    +0.000 C 
ENDROOT
BRANCH   1   2
ATOM      2  N   UNL     1      -1.210  13.421  21.109  0.00  0.00    +0.000 N 
ATOM      3  C   UNL     1      -1.864  13.135  19.909  0.00  0.00    +0.000 A 
ATOM      4  O   UNL     1      -2.927  12.523  19.839  0.00  0.00    +0.000 OA
ATOM      5  N   UNL     1      -1.198  13.541  18.764  0.00  0.00    +0.000 N 
ATOM      6  C   UNL     1      -0.257  14.548  18.880  0.00  0.00    +0.000 A 
ATOM      7  C   UNL     1      -0.270  15.296  20.036  0.00  0.00    +0.000 A 
ATOM      8  N   UNL     1       0.588  16.326  19.744  0.00  0.00    +0.000 N 
ATOM      9  C   UNL     1       1.680  15.707  19.163  0.00  0.00    +0.000 A 
ATOM     10  C   UNL     1       3.018  16.058  19.172  0.00  0.00    +0.000 A 
ATOM     11  C   UNL     1       3.921  15.049  18.830  0.00  0.00    +0.000 A 
ATOM     12  C   UNL     1       3.472  13.790  18.415  0.00  0.00    +0.000 A 
ATOM     13  C   UNL     1       2.100  13.512  18.271  0.00  0.00    +0.000 A 
ATOM     14  C   UNL     1       1.172  14.487  18.648  0.00  0.00    +0.000 A 
ATOM     15  C   UNL     1      -0.459  14.585  21.284  0.00  0.00    +0.000 A 
ATOM     16  O   UNL     1       0.101  14.898  22.328  0.00  0.00    +0.000 OA
ATOM     17  H   UNL     1      -1.734  13.486  17.911  0.00  0.00    +0.000 HD
ATOM     18  H   UNL     1       0.294  17.248  19.443  0.00  0.00    +0.000 HD
ENDBRANCH   1   2
BRANCH   1  19
ATOM     19  C   UNL     1      -0.102  11.276  21.581  0.00  0.00    +0.000 C 
BRANCH  19  23
ATOM     20  N   UNL     1       1.744   8.519  20.156  0.00  0.00    +0.000 N 
ATOM     21  C   UNL     1       1.247   9.627  19.323  0.00  0.00    +0.000 C 
ATOM     22  C   UNL     1      -0.260   9.884  19.547  0.00  0.00    +0.000 C 
ATOM     23  N   UNL     1      -0.665  10.058  20.963  0.00  0.00    +0.000 NA
ATOM     24  C   UNL     1      -0.204   8.841  21.691  0.00  0.00    +0.000 C 
ATOM     25  C   UNL     1       1.311   8.514  21.565  0.00  0.00    +0.000 C 
BRANCH  20  29
ATOM     26  C   UNL     1       3.126   4.872  18.488  0.00  0.00    +0.000 A 
ATOM     27  C   UNL     1       2.436   4.897  19.705  0.00  0.00    +0.000 A 
ATOM     28  C   UNL     1       1.975   6.108  20.240  0.00  0.00    +0.000 A 
ATOM     29  C   UNL     1       2.190   7.334  19.593  0.00  0.00    +0.000 A 
ATOM     30  C   UNL     1       2.889   7.294  18.382  0.00  0.00    +0.000 A 
ATOM     31  C   UNL     1       3.351   6.090  17.838  0.00  0.00    +0.000 A 
BRANCH  26  33
ATOM     32  C   UNL     1       2.421   2.658  17.517  0.00  0.00    +0.000 C 
ATOM     33  C   UNL     1       3.601   3.558  17.896  0.00  0.00    +0.000 C 
ATOM     34  C   UNL     1       4.521   3.777  16.692  0.00  0.00    +0.000 C 
ENDBRANCH  26  33
ENDBRANCH  20  29
ENDBRANCH  19  23
ENDBRANCH   1  19
TORSDOF 5
ENDMDL
MODEL 6
REMARK VINA RESULT:      -7.7      4.548      9.991
REMARK  Name = 
REMARK  7 active torsions:
REMARK  status: ('A' for Active; 'I' for Inactive)
REMARK    1  A    between atoms: C_1  and  C_2
REMARK    2  A    between atoms: C_2  and  C_3
REMARK    3  A    between atoms: C_2  and  C_4
REMARK    4  A    between atoms: C_7  and  N_8
REMARK    5  A    between atoms: N_11  and  C_12
REMARK    6  A    between atoms: C_12  and  C_13
REMARK    7  A    between atoms: C_13  and  N_14
REMARK                            x       y       z     vdW  Elec       q    Type
REMARK                         _______ _______ _______ _____ _____    ______ ____
ROOT
ATOM      1  C   UNL     1      -0.894  12.716  22.442  0.00  0.00    +0.000 C 
ENDROOT
BRANCH   1   2
ATOM      2  N   UNL     1      -0.942  13.879  21.565  0.00  0.00    +0.000 N 
ATOM      3  C   UNL     1      -1.754  13.778  20.434  0.00  0.00    +0.000 A 
ATOM      4  O   UNL     1      -2.891  13.309  20.447  0.00  0.00    +0.000 OA
ATOM      5  N   UNL     1      -1.170  14.195  19.249  0.00  0.00    +0.000 N 
ATOM      6  C   UNL     1      -0.098  15.066  19.323  0.00  0.00    +0.000 A 
ATOM      7  C   UNL     1       0.114  15.709  20.523  0.00  0.00    +0.000 A 
ATOM      8  N   UNL     1       1.062  16.647  20.203  0.00  0.00    +0.000 N 
ATOM      9  C   UNL     1       1.994  15.950  19.455  0.00  0.00    +0.000 A 
ATOM     10  C   UNL     1       3.360  16.133  19.330  0.00  0.00    +0.000 A 
ATOM     11  C   UNL     1       4.080  15.054  18.813  0.00  0.00    +0.000 A 
ATOM     12  C   UNL     1       3.426  13.899  18.367  0.00  0.00    +0.000 A 
ATOM     13  C   UNL     1       2.023  13.805  18.368  0.00  0.00    +0.000 A 
ATOM     14  C   UNL     1       1.277  14.850  18.920  0.00  0.00    +0.000 A 
ATOM     15  C   UNL     1      -0.031  14.923  21.731  0.00  0.00    +0.000 A 
ATOM     16  O   UNL     1       0.676  15.075  22.721  0.00  0.00    +0.000 OA
ATOM     17  H   UNL     1      -1.798  14.279  18.464  0.00  0.00    +0.000 HD
ATOM     18  H   UNL     1       0.861  17.620  20.005  0.00  0.00    +0.000 HD
ENDBRANCH   1   2
BRANCH   1  19
ATOM     19  C   UNL     1      -0.011  11.612  21.786  0.00  0.00    +0.000 C 
BRANCH  19  23
ATOM     20  N   UNL     1       1.528   8.597  20.532  0.00  0.00    +0.000 N 
ATOM     21  C   UNL     1       0.992   9.625  19.624  0.00  0.00    +0.000 C 
ATOM     22  C   UNL     1      -0.466   9.999  19.973  0.00  0.00    +0.000 C 
ATOM     23  N   UNL     1      -0.698  10.365  21.391  0.00  0.00    +0.000 NA
ATOM     24  C   UNL     1      -0.215   9.220  22.213  0.00  0.00    +0.000 C 
ATOM     25  C   UNL     1       1.258   8.788  21.968  0.00  0.00    +0.000 C 
BRANCH  20  29
ATOM     26  C   UNL     1       2.499   4.728  19.089  0.00  0.00    +0.000 A 
ATOM     27  C   UNL     1       2.787   5.874  18.340  0.00  0.00    +0.000 A 
ATOM     28  C   UNL     1       2.471   7.148  18.834  0.00  0.00    +0.000 A 
ATOM     29  C   UNL     1       1.850   7.327  20.078  0.00  0.00    +0.000 A 
ATOM     30  C   UNL     1       1.561   6.172  20.811  0.00  0.00    +0.000 A 
ATOM     31  C   UNL     1       1.875   4.896  20.329  0.00  0.00    +0.000 A 
BRANCH  26  33
ATOM     32  C   UNL     1       2.050   2.256  19.262  0.00  0.00    +0.000 C 
ATOM     33  C   UNL     1       2.866   3.351  18.567  0.00  0.00    +0.000 C 
ATOM     34  C   UNL     1       2.708   3.258  17.047  0.00  0.00    +0.000 C 
ENDBRANCH  26  33
ENDBRANCH  20  29
ENDBRANCH  19  23
ENDBRANCH   1  19
TORSDOF 5
ENDMDL
MODEL 7
REMARK VINA RESULT:      -7.7      2.225      3.361
REMARK  Name = 
REMARK  7 active torsions:
REMARK  status: ('A' for Active; 'I' for Inactive)
REMARK    1  A    between atoms: C_1  and  C_2
REMARK    2  A    between atoms: C_2  and  C_3
REMARK    3  A    between atoms: C_2  and  C_4
REMARK    4  A    between atoms: C_7  and  N_8
REMARK    5  A    between atoms: N_11  and  C_12
REMARK    6  A    between atoms: C_12  and  C_13
REMARK    7  A    between atoms: C_13  and  N_14
REMARK                            x       y       z     vdW  Elec       q    Type
REMARK                         _______ _______ _______ _____ _____    ______ ____
ROOT
ATOM      1  C   UNL     1       2.162   8.318  17.538  0.00  0.00    +0.000 C 
ENDROOT
BRANCH   1   2
ATOM      2  N   UNL     1       3.081   7.391  18.187  0.00  0.00    +0.000 N 
ATOM      3  C   UNL     1       4.086   6.842  17.389  0.00  0.00    +0.000 A 
ATOM      4  O   UNL     1       4.759   7.493  16.592  0.00  0.00    +0.000 OA
ATOM      5  N   UNL     1       4.248   5.471  17.505  0.00  0.00    +0.000 N 
ATOM      6  C   UNL     1       3.790   4.856  18.656  0.00  0.00    +0.000 A 
ATOM      7  C   UNL     1       3.501   5.664  19.734  0.00  0.00    +0.000 A 
ATOM      8  N   UNL     1       3.316   4.763  20.751  0.00  0.00    +0.000 N 
ATOM      9  C   UNL     1       2.504   3.788  20.199  0.00  0.00    +0.000 A 
ATOM     10  C   UNL     1       1.549   2.978  20.789  0.00  0.00    +0.000 A 
ATOM     11  C   UNL     1       0.638   2.371  19.923  0.00  0.00    +0.000 A 
ATOM     12  C   UNL     1       0.759   2.512  18.535  0.00  0.00    +0.000 A 
ATOM     13  C   UNL     1       1.831   3.218  17.961  0.00  0.00    +0.000 A 
ATOM     14  C   UNL     1       2.734   3.874  18.803  0.00  0.00    +0.000 A 
ATOM     15  C   UNL     1       2.801   6.903  19.464  0.00  0.00    +0.000 A 
ATOM     16  O   UNL     1       1.956   7.374  20.217  0.00  0.00    +0.000 OA
ATOM     17  H   UNL     1       5.072   5.094  17.060  0.00  0.00    +0.000 HD
ATOM     18  H   UNL     1       4.019   4.523  21.439  0.00  0.00    +0.000 HD
ENDBRANCH   1   2
BRANCH   1  19
ATOM     19  C   UNL     1       2.292   9.721  18.203  0.00  0.00    +0.000 C 
BRANCH  19  23
ATOM     20  N   UNL     1      -0.091  10.897  20.647  0.00  0.00    +0.000 N 
ATOM     21  C   UNL     1      -0.386   9.750  19.773  0.00  0.00    +0.000 C 
ATOM     22  C   UNL     1      -0.149  10.086  18.283  0.00  0.00    +0.000 C 
ATOM     23  N   UNL     1       1.180  10.667  17.973  0.00  0.00    +0.000 NA
ATOM     24  C   UNL     1       1.331  11.872  18.836  0.00  0.00    +0.000 C 
ATOM     25  C   UNL     1       1.153  11.634  20.362  0.00  0.00    +0.000 C 
BRANCH  20  29
ATOM     26  C   UNL     1      -3.151  12.783  22.900  0.00  0.00    +0.000 A 
ATOM     27  C   UNL     1      -2.222  11.932  23.509  0.00  0.00    +0.000 A 
ATOM     28  C   UNL     1      -1.209  11.324  22.755  0.00  0.00    +0.000 A 
ATOM     29  C   UNL     1      -1.088  11.530  21.373  0.00  0.00    +0.000 A 
ATOM     30  C   UNL     1      -2.029  12.376  20.777  0.00  0.00    +0.000 A 
ATOM     31  C   UNL     1      -3.043  12.990  21.521  0.00  0.00    +0.000 A 
BRANCH  26  33
ATOM     32  C   UNL     1      -4.936  12.468  24.648  0.00  0.00    +0.000 C 
ATOM     33  C   UNL     1      -4.232  13.463  23.721  0.00  0.00    +0.000 C 
ATOM     34  C   UNL     1      -3.679  14.646  24.519  0.00  0.00    +0.000 C 
ENDBRANCH  26  33
ENDBRANCH  20  29
ENDBRANCH  19  23
ENDBRANCH   1  19
TORSDOF 5
ENDMDL
MODEL 8
REMARK VINA RESULT:      -7.6      5.016     10.734
REMARK  Name = 
REMARK  7 active torsions:
REMARK  status: ('A' for Active; 'I' for Inactive)
REMARK    1  A    between atoms: C_1  and  C_2
REMARK    2  A    between atoms: C_2  and  C_3
REMARK    3  A    between atoms: C_2  and  C_4
REMARK    4  A    between atoms: C_7  and  N_8
REMARK    5  A    between atoms: N_11  and  C_12
REMARK    6  A    between atoms: C_12  and  C_13
REMARK    7  A    between atoms: C_13  and  N_14
REMARK                            x       y       z     vdW  Elec       q    Type
REMARK                         _______ _______ _______ _____ _____    ______ ____
ROOT
ATOM      1  C   UNL     1      -0.406  13.204  20.105  0.00  0.00    +0.000 C 
ENDROOT
BRANCH   1   2
ATOM      2  N   UNL     1       0.605  14.241  20.262  0.00  0.00    +0.000 N 
ATOM      3  C   UNL     1       0.509  15.045  21.399  0.00  0.00    +0.000 A 
ATOM      4  O   UNL     1       0.284  14.610  22.527  0.00  0.00    +0.000 OA
ATOM      5  N   UNL     1       0.627  16.406  21.171  0.00  0.00    +0.000 N 
ATOM      6  C   UNL     1       1.266  16.820  20.017  0.00  0.00    +0.000 A 
ATOM      7  C   UNL     1       2.018  15.886  19.339  0.00  0.00    +0.000 A 
ATOM      8  N   UNL     1       2.691  16.645  18.417  0.00  0.00    +0.000 N 
ATOM      9  C   UNL     1       1.722  17.478  17.887  0.00  0.00    +0.000 A 
ATOM     10  C   UNL     1       1.607  18.028  16.622  0.00  0.00    +0.000 A 
ATOM     11  C   UNL     1       0.343  18.506  16.272  0.00  0.00    +0.000 A 
ATOM     12  C   UNL     1      -0.709  18.506  17.197  0.00  0.00    +0.000 A 
ATOM     13  C   UNL     1      -0.519  18.080  18.523  0.00  0.00    +0.000 A 
ATOM     14  C   UNL     1       0.723  17.554  18.891  0.00  0.00    +0.000 A 
ATOM     15  C   UNL     1       1.457  14.557  19.203  0.00  0.00    +0.000 A 
ATOM     16  O   UNL     1       1.605  13.865  18.202  0.00  0.00    +0.000 OA
ATOM     17  H   UNL     1       0.722  16.976  21.999  0.00  0.00    +0.000 HD
ATOM     18  H   UNL     1       3.646  16.965  18.526  0.00  0.00    +0.000 HD
ENDBRANCH   1   2
BRANCH   1  19
ATOM     19  C   UNL     1       0.033  11.933  20.893  0.00  0.00    +0.000 C 
BRANCH  19  23
ATOM     20  N   UNL     1       1.527   8.749  20.077  0.00  0.00    +0.000 N 
ATOM     21  C   UNL     1       1.109   9.697  19.029  0.00  0.00    +0.000 C 
ATOM     22  C   UNL     1      -0.353  10.158  19.221  0.00  0.00    +0.000 C 
ATOM     23  N   UNL     1      -0.677  10.678  20.571  0.00  0.00    +0.000 NA
ATOM     24  C   UNL     1      -0.311   9.606  21.541  0.00  0.00    +0.000 C 
ATOM     25  C   UNL     1       1.156   9.098  21.460  0.00  0.00    +0.000 C 
BRANCH  20  29
ATOM     26  C   UNL     1       2.461   4.699  19.228  0.00  0.00    +0.000 A 
ATOM     27  C   UNL     1       1.862   5.067  20.438  0.00  0.00    +0.000 A 
ATOM     28  C   UNL     1       1.548   6.408  20.701  0.00  0.00    +0.000 A 
ATOM     29  C   UNL     1       1.826   7.429  19.781  0.00  0.00    +0.000 A 
ATOM     30  C   UNL     1       2.433   7.047  18.580  0.00  0.00    +0.000 A 
ATOM     31  C   UNL     1       2.748   5.711  18.306  0.00  0.00    +0.000 A 
BRANCH  26  33
ATOM     32  C   UNL     1       1.971   2.305  19.835  0.00  0.00    +0.000 C 
ATOM     33  C   UNL     1       2.776   3.245  18.932  0.00  0.00    +0.000 C 
ATOM     34  C   UNL     1       2.548   2.903  17.457  0.00  0.00    +0.000 C 
ENDBRANCH  26  33
ENDBRANCH  20  29
ENDBRANCH  19  23
ENDBRANCH   1  19
TORSDOF 5
ENDMDL
MODEL 9
REMARK VINA RESULT:      -7.6      2.524      4.597
REMARK  Name = 
REMARK  7 active torsions:
REMARK  status: ('A' for Active; 'I' for Inactive)
REMARK    1  A    between atoms: C_1  and  C_2
REMARK    2  A    between atoms: C_2  and  C_3
REMARK    3  A    between atoms: C_2  and  C_4
REMARK    4  A    between atoms: C_7  and  N_8
REMARK    5  A    between atoms: N_11  and  C_12
REMARK    6  A    between atoms: C_12  and  C_13
REMARK    7  A    between atoms: C_13  and  N_14
REMARK                            x       y       z     vdW  Elec       q    Type
REMARK                         _______ _______ _______ _____ _____    ______ ____
ROOT
ATOM      1  C   UNL     1       1.060   4.334  20.461  0.00  0.00    +0.000 C 
ENDROOT
BRANCH   1   2
ATOM      2  N   UNL     1       2.077   3.435  19.929  0.00  0.00    +0.000 N 
ATOM      3  C   UNL     1       3.028   2.959  20.833  0.00  0.00    +0.000 A 
ATOM      4  O   UNL     1       2.755   2.544  21.958  0.00  0.00    +0.000 OA
ATOM      5  N   UNL     1       4.342   3.036  20.402  0.00  0.00    +0.000 N 
ATOM      6  C   UNL     1       4.578   3.111  19.041  0.00  0.00    +0.000 A 
ATOM      7  C   UNL     1       3.537   2.782  18.199  0.00  0.00    +0.000 A 
ATOM      8  N   UNL     1       4.145   2.722  16.971  0.00  0.00    +0.000 N 
ATOM      9  C   UNL     1       4.930   3.860  16.922  0.00  0.00    +0.000 A 
ATOM     10  C   UNL     1       5.309   4.641  15.845  0.00  0.00    +0.000 A 
ATOM     11  C   UNL     1       5.776   5.922  16.147  0.00  0.00    +0.000 A 
ATOM     12  C   UNL     1       5.933   6.337  17.475  0.00  0.00    +0.000 A 
ATOM     13  C   UNL     1       5.682   5.464  18.550  0.00  0.00    +0.000 A 
ATOM     14  C   UNL     1       5.171   4.192  18.280  0.00  0.00    +0.000 A 
ATOM     15  C   UNL     1       2.221   3.274  18.550  0.00  0.00    +0.000 A 
ATOM     16  O   UNL     1       1.397   3.641  17.720  0.00  0.00    +0.000 OA
ATOM     17  H   UNL     1       5.014   2.548  20.975  0.00  0.00    +0.000 HD
ATOM     18  H   UNL     1       4.447   1.865  16.523  0.00  0.00    +0.000 HD
ENDBRANCH   1   2
BRANCH   1  19
ATOM     19  C   UNL     1       1.111   5.685  19.686  0.00  0.00    +0.000 C 
BRANCH  19  23
ATOM     20  N   UNL     1       1.162   9.263  19.209  0.00  0.00    +0.000 N 
ATOM     21  C   UNL     1       1.753   8.344  18.221  0.00  0.00    +0.000 C 
ATOM     22  C   UNL     1       2.741   7.353  18.875  0.00  0.00    +0.000 C 
ATOM     23  N   UNL     1       2.206   6.610  20.042  0.00  0.00    +0.000 NA
ATOM     24  C   UNL     1       1.730   7.632  21.017  0.00  0.00    +0.000 C 
ATOM     25  C   UNL     1       0.698   8.657  20.469  0.00  0.00    +0.000 C 
BRANCH  20  29
ATOM     26  C   UNL     1       2.031  13.414  19.106  0.00  0.00    +0.000 A 
ATOM     27  C   UNL     1       2.457  12.559  18.084  0.00  0.00    +0.000 A 
ATOM     28  C   UNL     1       2.153  11.190  18.124  0.00  0.00    +0.000 A 
ATOM     29  C   UNL     1       1.428  10.623  19.182  0.00  0.00    +0.000 A 
ATOM     30  C   UNL     1       1.016  11.489  20.200  0.00  0.00    +0.000 A 
ATOM     31  C   UNL     1       1.311  12.857  20.168  0.00  0.00    +0.000 A 
BRANCH  26  33
ATOM     32  C   UNL     1       3.379  15.213  17.972  0.00  0.00    +0.000 C 
ATOM     33  C   UNL     1       2.336  14.900  19.049  0.00  0.00    +0.000 C 
ATOM     34  C   UNL     1       1.069  15.731  18.832  0.00  0.00    +0.000 C 
ENDBRANCH  26  33
ENDBRANCH  20  29
ENDBRANCH  19  23
ENDBRANCH   1  19
TORSDOF 5
ENDMDL
