MODEL 1
REMARK VINA RESULT:      -7.2      0.000      0.000
REMARK  Name = 
REMARK  7 active torsions:
REMARK  status: ('A' for Active; 'I' for Inactive)
REMARK    1  A    between atoms: C_1  and  C_2
REMARK    2  A    between atoms: C_2  and  C_3
REMARK    3  A    between atoms: C_2  and  O_4
REMARK    4  A    between atoms: C_2  and  C_5
REMARK    5  A    between atoms: N_8  and  C_9
REMARK    6  A    between atoms: C_9  and  C_10
REMARK    7  A    between atoms: C_14  and  C_15
REMARK                            x       y       z     vdW  Elec       q    Type
REMARK                         _______ _______ _______ _____ _____    ______ ____
ROOT
ATOM      1  C   UNL     1       1.226   8.575  20.771  0.00  0.00    +0.000 A 
ATOM      2  C   UNL     1       1.659   8.687  22.077  0.00  0.00    +0.000 A 
ATOM      3  S   UNL     1       0.760   9.818  22.965  0.00  0.00    +0.000 S 
ATOM      4  C   UNL     1      -0.225  10.228  21.613  0.00  0.00    +0.000 A 
ATOM      5  C   UNL     1      -1.220  11.194  21.445  0.00  0.00    +0.000 A 
ATOM      6  N   UNL     1      -1.741  11.362  20.199  0.00  0.00    +0.000 NA
ATOM      7  C   UNL     1      -1.381  10.557  19.189  0.00  0.00    +0.000 A 
ATOM      8  N   UNL     1      -1.900  10.792  17.949  0.00  0.00    +0.000 N 
ATOM      9  C   UNL     1      -2.580  12.036  17.601  0.00  0.00    +0.000 C 
ATOM     10  C   UNL     1      -3.957  11.707  17.008  0.00  0.00    +0.000 C 
ATOM     11  O   UNL     1      -3.854  10.783  15.906  0.00  0.00    +0.000 OA
ATOM     12  C   UNL     1      -3.235   9.556  16.334  0.00  0.00    +0.000 C 
ATOM     13  C   UNL     1      -1.820   9.798  16.883  0.00  0.00    +0.000 C 
ATOM     14  N   UNL     1      -0.513   9.560  19.325  0.00  0.00    +0.000 NA
ATOM     15  C   UNL     1       0.110   9.444  20.517  0.00  0.00    +0.000 A 
ENDROOT
BRANCH   5  16
ATOM     16  C   UNL     1      -1.719  12.083  22.487  0.00  0.00    +0.000 A 
ATOM     17  C   UNL     1      -1.078  13.254  22.844  0.00  0.00    +0.000 A 
ATOM     18  N   UNL     1      -1.541  14.131  23.773  0.00  0.00    +0.000 NA
ATOM     19  C   UNL     1      -2.702  13.835  24.340  0.00  0.00    +0.000 A 
ATOM     20  N   UNL     1      -3.228  14.715  25.259  0.00  0.00    +0.000 N 
ATOM     21  N   UNL     1      -3.404  12.726  24.109  0.00  0.00    +0.000 NA
ATOM     22  C   UNL     1      -2.902  11.889  23.175  0.00  0.00    +0.000 A 
ATOM     23  H   UNL     1      -2.492  15.268  25.670  0.00  0.00    +0.000 HD
ATOM     24  H   UNL     1      -3.848  14.221  25.880  0.00  0.00    +0.000 HD
ENDBRANCH   5  16
BRANCH   1  25
ATOM     25  C   UNL     1       1.880   7.729  19.719  0.00  0.00    +0.000 C 
BRANCH  25  29
ATOM     26  C   UNL     1       2.791   3.561  19.748  0.00  0.00    +0.000 C 
ATOM     27  C   UNL     1       1.984   4.134  20.931  0.00  0.00    +0.000 C 
ATOM     28  C   UNL     1       1.487   5.561  20.701  0.00  0.00    +0.000 C 
ATOM     29  N   UNL     1       2.526   6.523  20.288  0.00  0.00    +0.000 NA
ATOM     30  C   UNL     1       3.442   5.988  19.262  0.00  0.00    +0.000 C 
ATOM     31  C   UNL     1       3.933   4.562  19.511  0.00  0.00    +0.000 C 
BRANCH  26  33
ATOM     32  C   UNL     1       0.684   2.389  18.909  0.00  0.00    +0.000 C 
ATOM     33  C   UNL     1       1.927   3.197  18.492  0.00  0.00    +0.000 C 
ATOM     34  C   UNL     1       2.684   2.379  17.433  0.00  0.00    +0.000 C 
BRANCH  33  35
ATOM     35  O   UNL     1       1.473   4.380  17.839  0.00  0.00    +0.000 OA
ATOM     36  H   UNL     1       2.243   4.937  17.631  0.00  0.00    +0.000 HD
ENDBRANCH  33  35
ENDBRANCH  26  33
ENDBRANCH  25  29
ENDBRANCH   1  25
TORSDOF 5
ENDMDL
MODEL 2
REMARK VINA RESULT:      -6.9      0.548      1.071
REMARK  Name = 
REMARK  7 active torsions:
REMARK  status: ('A' for Active; 'I' for Inactive)
REMARK    1  A    between atoms: C_1  and  C_2
REMARK    2  A    between atoms: C_2  and  C_3
REMARK    3  A    between atoms: C_2  and  O_4
REMARK    4  A    between atoms: C_2  and  C_5
REMARK    5  A    between atoms: N_8  and  C_9
REMARK    6  A    between atoms: C_9  and  C_10
REMARK    7  A    between atoms: C_14  and  C_15
REMARK                            x       y       z     vdW  Elec       q    Type
REMARK                         _______ _______ _______ _____ _____    ______ ____
ROOT
ATOM      1  C   UNL     1       1.157   8.659  20.639  0.00  0.00    +0.000 A 
ATOM      2  C   UNL     1       1.566   8.820  21.947  0.00  0.00    +0.000 A 
ATOM      3  S   UNL     1       0.646   9.977  22.779  0.00  0.00    +0.000 S 
ATOM      4  C   UNL     1      -0.318  10.332  21.397  0.00  0.00    +0.000 A 
ATOM      5  C   UNL     1      -1.316  11.284  21.178  0.00  0.00    +0.000 A 
ATOM      6  N   UNL     1      -1.816  11.405  19.918  0.00  0.00    +0.000 NA
ATOM      7  C   UNL     1      -1.434  10.566  18.944  0.00  0.00    +0.000 A 
ATOM      8  N   UNL     1      -1.933  10.754  17.687  0.00  0.00    +0.000 N 
ATOM      9  C   UNL     1      -2.614  11.979  17.283  0.00  0.00    +0.000 C 
ATOM     10  C   UNL     1      -3.979  11.621  16.679  0.00  0.00    +0.000 C 
ATOM     11  O   UNL     1      -3.851  10.659  15.613  0.00  0.00    +0.000 OA
ATOM     12  C   UNL     1      -3.233   9.452  16.095  0.00  0.00    +0.000 C 
ATOM     13  C   UNL     1      -1.829   9.722  16.659  0.00  0.00    +0.000 C 
ATOM     14  N   UNL     1      -0.562   9.581  19.130  0.00  0.00    +0.000 NA
ATOM     15  C   UNL     1       0.040   9.511  20.336  0.00  0.00    +0.000 A 
ENDROOT
BRANCH   5  16
ATOM     16  C   UNL     1      -1.838  12.208  22.178  0.00  0.00    +0.000 A 
ATOM     17  C   UNL     1      -3.163  12.220  22.567  0.00  0.00    +0.000 A 
ATOM     18  N   UNL     1      -3.673  13.030  23.532  0.00  0.00    +0.000 NA
ATOM     19  C   UNL     1      -2.815  13.834  24.144  0.00  0.00    +0.000 A 
ATOM     20  N   UNL     1      -3.281  14.644  25.156  0.00  0.00    +0.000 N 
ATOM     21  N   UNL     1      -1.521  13.941  23.844  0.00  0.00    +0.000 NA
ATOM     22  C   UNL     1      -1.064  13.112  22.881  0.00  0.00    +0.000 A 
ATOM     23  H   UNL     1      -4.268  14.811  25.040  0.00  0.00    +0.000 HD
ATOM     24  H   UNL     1      -2.676  15.445  25.248  0.00  0.00    +0.000 HD
ENDBRANCH   5  16
BRANCH   1  25
ATOM     25  C   UNL     1       1.834   7.780  19.629  0.00  0.00    +0.000 C 
BRANCH  25  29
ATOM     26  C   UNL     1       2.793   3.629  19.845  0.00  0.00    +0.000 C 
ATOM     27  C   UNL     1       1.972   4.243  20.997  0.00  0.00    +0.000 C 
ATOM     28  C   UNL     1       1.460   5.653  20.702  0.00  0.00    +0.000 C 
ATOM     29  N   UNL     1       2.490   6.608  20.254  0.00  0.00    +0.000 NA
ATOM     30  C   UNL     1       3.419   6.040  19.258  0.00  0.00    +0.000 C 
ATOM     31  C   UNL     1       3.925   4.632  19.571  0.00  0.00    +0.000 C 
BRANCH  26  33
ATOM     32  C   UNL     1       2.662   2.096  17.808  0.00  0.00    +0.000 C 
ATOM     33  C   UNL     1       1.941   3.200  18.602  0.00  0.00    +0.000 C 
ATOM     34  C   UNL     1       1.636   4.353  17.629  0.00  0.00    +0.000 C 
BRANCH  33  35
ATOM     35  O   UNL     1       0.680   2.680  19.017  0.00  0.00    +0.000 OA
ATOM     36  H   UNL     1       0.203   2.355  18.234  0.00  0.00    +0.000 HD
ENDBRANCH  33  35
ENDBRANCH  26  33
ENDBRANCH  25  29
ENDBRANCH   1  25
TORSDOF 5
ENDMDL
MODEL 3
REMARK VINA RESULT:      -6.6      5.266      8.807
REMARK  Name = 
REMARK  7 active torsions:
REMARK  status: ('A' for Active; 'I' for Inactive)
REMARK    1  A    between atoms: C_1  and  C_2
REMARK    2  A    between atoms: C_2  and  C_3
REMARK    3  A    between atoms: C_2  and  O_4
REMARK    4  A    between atoms: C_2  and  C_5
REMARK    5  A    between atoms: N_8  and  C_9
REMARK    6  A    between atoms: C_9  and  C_10
REMARK    7  A    between atoms: C_14  and  C_15
REMARK                            x       y       z     vdW  Elec       q    Type
REMARK                         _______ _______ _______ _____ _____    ______ ____
ROOT
ATOM      1  C   UNL     1      -2.357  13.157  22.549  0.00  0.00    +0.000 A 
ATOM      2  C   UNL     1      -1.376  13.830  23.247  0.00  0.00    +0.000 A 
ATOM      3  S   UNL     1      -0.061  14.264  22.269  0.00  0.00    +0.000 S 
ATOM      4  C   UNL     1      -0.745  13.528  20.871  0.00  0.00    +0.000 A 
ATOM      5  C   UNL     1      -0.249  13.342  19.579  0.00  0.00    +0.000 A 
ATOM      6  N   UNL     1      -0.990  12.599  18.712  0.00  0.00    +0.000 NA
ATOM      7  C   UNL     1      -2.205  12.148  19.057  0.00  0.00    +0.000 A 
ATOM      8  N   UNL     1      -2.892  11.373  18.168  0.00  0.00    +0.000 N 
ATOM      9  C   UNL     1      -2.263  10.767  16.999  0.00  0.00    +0.000 C 
ATOM     10  C   UNL     1      -3.063  11.144  15.745  0.00  0.00    +0.000 C 
ATOM     11  O   UNL     1      -4.458  10.807  15.884  0.00  0.00    +0.000 OA
ATOM     12  C   UNL     1      -5.030  11.490  17.015  0.00  0.00    +0.000 C 
ATOM     13  C   UNL     1      -4.319  11.110  18.324  0.00  0.00    +0.000 C 
ATOM     14  N   UNL     1      -2.761  12.385  20.241  0.00  0.00    +0.000 NA
ATOM     15  C   UNL     1      -2.003  13.015  21.163  0.00  0.00    +0.000 A 
ENDROOT
BRANCH   5  16
ATOM     16  C   UNL     1       1.033  13.833  19.087  0.00  0.00    +0.000 A 
ATOM     17  C   UNL     1       2.085  12.996  18.768  0.00  0.00    +0.000 A 
ATOM     18  N   UNL     1       3.273  13.415  18.260  0.00  0.00    +0.000 NA
ATOM     19  C   UNL     1       3.396  14.716  18.038  0.00  0.00    +0.000 A 
ATOM     20  N   UNL     1       4.569  15.180  17.486  0.00  0.00    +0.000 N 
ATOM     21  N   UNL     1       2.472  15.631  18.328  0.00  0.00    +0.000 NA
ATOM     22  C   UNL     1       1.308  15.162  18.829  0.00  0.00    +0.000 A 
ATOM     23  H   UNL     1       5.322  14.539  17.682  0.00  0.00    +0.000 HD
ATOM     24  H   UNL     1       4.698  16.148  17.736  0.00  0.00    +0.000 HD
ENDBRANCH   5  16
BRANCH   1  25
ATOM     25  C   UNL     1      -3.593  12.563  23.157  0.00  0.00    +0.000 C 
BRANCH  25  29
ATOM     26  C   UNL     1      -6.054  15.695  21.628  0.00  0.00    +0.000 C 
ATOM     27  C   UNL     1      -5.170  16.002  22.854  0.00  0.00    +0.000 C 
ATOM     28  C   UNL     1      -4.142  14.912  23.159  0.00  0.00    +0.000 C 
ATOM     29  N   UNL     1      -4.694  13.549  23.265  0.00  0.00    +0.000 NA
ATOM     30  C   UNL     1      -5.674  13.232  22.208  0.00  0.00    +0.000 C 
ATOM     31  C   UNL     1      -6.697  14.330  21.921  0.00  0.00    +0.000 C 
BRANCH  26  33
ATOM     32  C   UNL     1      -4.079  16.731  20.386  0.00  0.00    +0.000 C 
ATOM     33  C   UNL     1      -5.316  15.824  20.252  0.00  0.00    +0.000 C 
ATOM     34  C   UNL     1      -6.196  16.395  19.126  0.00  0.00    +0.000 C 
BRANCH  33  35
ATOM     35  O   UNL     1      -4.868  14.547  19.805  0.00  0.00    +0.000 OA
ATOM     36  H   UNL     1      -3.955  14.632  19.481  0.00  0.00    +0.000 HD
ENDBRANCH  33  35
ENDBRANCH  26  33
ENDBRANCH  25  29
ENDBRANCH   1  25
TORSDOF 5
ENDMDL
MODEL 4
REMARK VINA RESULT:      -6.6      7.689     10.245
REMARK  Name = 
REMARK  7 active torsions:
REMARK  status: ('A' for Active; 'I' for Inactive)
REMARK    1  A    between atoms: C_1  and  C_2
REMARK    2  A    between atoms: C_2  and  C_3
REMARK    3  A    between atoms: C_2  and  O_4
REMARK    4  A    between atoms: C_2  and  C_5
REMARK    5  A    between atoms: N_8  and  C_9
REMARK    6  A    between atoms: C_9  and  C_10
REMARK    7  A    between atoms: C_14  and  C_15
REMARK                            x       y       z     vdW  Elec       q    Type
REMARK                         _______ _______ _______ _____ _____    ______ ____
ROOT
ATOM      1  C   UNL     1       2.913  14.831  20.323  0.00  0.00    +0.000 A 
ATOM      2  C   UNL     1       2.717  15.547  19.160  0.00  0.00    +0.000 A 
ATOM      3  S   UNL     1       4.171  16.101  18.484  0.00  0.00    +0.000 S 
ATOM      4  C   UNL     1       5.120  15.428  19.754  0.00  0.00    +0.000 A 
ATOM      5  C   UNL     1       6.486  15.499  20.033  0.00  0.00    +0.000 A 
ATOM      6  N   UNL     1       6.927  14.957  21.201  0.00  0.00    +0.000 NA
ATOM      7  C   UNL     1       6.091  14.286  22.006  0.00  0.00    +0.000 A 
ATOM      8  N   UNL     1       6.572  13.796  23.186  0.00  0.00    +0.000 N 
ATOM      9  C   UNL     1       7.851  14.213  23.751  0.00  0.00    +0.000 C 
ATOM     10  C   UNL     1       8.698  12.969  24.053  0.00  0.00    +0.000 C 
ATOM     11  O   UNL     1       7.985  12.030  24.882  0.00  0.00    +0.000 OA
ATOM     12  C   UNL     1       6.768  11.611  24.236  0.00  0.00    +0.000 C 
ATOM     13  C   UNL     1       5.835  12.800  23.960  0.00  0.00    +0.000 C 
ATOM     14  N   UNL     1       4.803  14.106  21.733  0.00  0.00    +0.000 NA
ATOM     15  C   UNL     1       4.311  14.734  20.644  0.00  0.00    +0.000 A 
ENDROOT
BRANCH   5  16
ATOM     16  C   UNL     1       7.486  16.158  19.201  0.00  0.00    +0.000 A 
ATOM     17  C   UNL     1       7.571  17.531  19.076  0.00  0.00    +0.000 A 
ATOM     18  N   UNL     1       8.520  18.179  18.351  0.00  0.00    +0.000 NA
ATOM     19  C   UNL     1       9.430  17.421  17.756  0.00  0.00    +0.000 A 
ATOM     20  N   UNL     1      10.435  18.037  17.043  0.00  0.00    +0.000 N 
ATOM     21  N   UNL     1       9.444  16.088  17.772  0.00  0.00    +0.000 NA
ATOM     22  C   UNL     1       8.481  15.493  18.509  0.00  0.00    +0.000 A 
ATOM     23  H   UNL     1      10.134  18.950  16.739  0.00  0.00    +0.000 HD
ATOM     24  H   UNL     1      10.789  17.402  16.345  0.00  0.00    +0.000 HD
ENDBRANCH   5  16
BRANCH   1  25
ATOM     25  C   UNL     1       1.818  14.296  21.198  0.00  0.00    +0.000 C 
BRANCH  25  29
ATOM     26  C   UNL     1      -0.635  10.862  20.575  0.00  0.00    +0.000 C 
ATOM     27  C   UNL     1       0.465  11.163  19.537  0.00  0.00    +0.000 C 
ATOM     28  C   UNL     1       1.448  12.246  19.982  0.00  0.00    +0.000 C 
ATOM     29  N   UNL     1       0.825  13.504  20.434  0.00  0.00    +0.000 NA
ATOM     30  C   UNL     1      -0.342  13.294  21.313  0.00  0.00    +0.000 C 
ATOM     31  C   UNL     1      -1.316  12.212  20.850  0.00  0.00    +0.000 C 
BRANCH  26  33
ATOM     32  C   UNL     1      -0.227   8.558  21.594  0.00  0.00    +0.000 C 
ATOM     33  C   UNL     1      -0.137  10.075  21.835  0.00  0.00    +0.000 C 
ATOM     34  C   UNL     1      -0.924  10.394  23.118  0.00  0.00    +0.000 C 
BRANCH  33  35
ATOM     35  O   UNL     1       1.226  10.388  22.111  0.00  0.00    +0.000 OA
ATOM     36  H   UNL     1       1.336  11.354  22.088  0.00  0.00    +0.000 HD
ENDBRANCH  33  35
ENDBRANCH  26  33
ENDBRANCH  25  29
ENDBRANCH   1  25
TORSDOF 5
ENDMDL
MODEL 5
REMARK VINA RESULT:      -6.6      8.007      9.969
REMARK  Name = 
REMARK  7 active torsions:
REMARK  status: ('A' for Active; 'I' for Inactive)
REMARK    1  A    between atoms: C_1  and  C_2
REMARK    2  A    between atoms: C_2  and  C_3
REMARK    3  A    between atoms: C_2  and  O_4
REMARK    4  A    between atoms: C_2  and  C_5
REMARK    5  A    between atoms: N_8  and  C_9
REMARK    6  A    between atoms: C_9  and  C_10
REMARK    7  A    between atoms: C_14  and  C_15
REMARK                            x       y       z     vdW  Elec       q    Type
REMARK                         _______ _______ _______ _____ _____    ______ ____
ROOT
ATOM      1  C   UNL     1       6.698  16.154  19.732  0.00  0.00    +0.000 A 
ATOM      2  C   UNL     1       5.782  16.755  18.894  0.00  0.00    +0.000 A 
ATOM      3  S   UNL     1       4.180  16.375  19.300  0.00  0.00    +0.000 S 
ATOM      4  C   UNL     1       4.660  15.354  20.601  0.00  0.00    +0.000 A 
ATOM      5  C   UNL     1       3.926  14.531  21.458  0.00  0.00    +0.000 A 
ATOM      6  N   UNL     1       4.614  13.737  22.323  0.00  0.00    +0.000 NA
ATOM      7  C   UNL     1       5.949  13.818  22.417  0.00  0.00    +0.000 A 
ATOM      8  N   UNL     1       6.596  12.970  23.269  0.00  0.00    +0.000 N 
ATOM      9  C   UNL     1       5.957  11.795  23.851  0.00  0.00    +0.000 C 
ATOM     10  C   UNL     1       6.122  11.835  25.376  0.00  0.00    +0.000 C 
ATOM     11  O   UNL     1       7.505  11.981  25.757  0.00  0.00    +0.000 OA
ATOM     12  C   UNL     1       8.054  13.192  25.204  0.00  0.00    +0.000 C 
ATOM     13  C   UNL     1       7.982  13.196  23.669  0.00  0.00    +0.000 C 
ATOM     14  N   UNL     1       6.681  14.657  21.693  0.00  0.00    +0.000 NA
ATOM     15  C   UNL     1       6.041  15.371  20.743  0.00  0.00    +0.000 A 
ENDROOT
BRANCH   5  16
ATOM     16  C   UNL     1       2.473  14.408  21.473  0.00  0.00    +0.000 A 
ATOM     17  C   UNL     1       1.652  15.300  22.135  0.00  0.00    +0.000 A 
ATOM     18  N   UNL     1       0.294  15.246  22.128  0.00  0.00    +0.000 NA
ATOM     19  C   UNL     1      -0.255  14.278  21.408  0.00  0.00    +0.000 A 
ATOM     20  N   UNL     1      -1.629  14.208  21.339  0.00  0.00    +0.000 N 
ATOM     21  N   UNL     1       0.421  13.337  20.750  0.00  0.00    +0.000 NA
ATOM     22  C   UNL     1       1.768  13.438  20.786  0.00  0.00    +0.000 A 
ATOM     23  H   UNL     1      -2.039  14.651  22.147  0.00  0.00    +0.000 HD
ATOM     24  H   UNL     1      -1.907  13.262  21.130  0.00  0.00    +0.000 HD
ENDBRANCH   5  16
BRANCH   1  25
ATOM     25  C   UNL     1       8.188  16.223  19.570  0.00  0.00    +0.000 C 
BRANCH  25  29
ATOM     26  C   UNL     1       9.975  12.739  17.877  0.00  0.00    +0.000 C 
ATOM     27  C   UNL     1      10.697  14.088  17.686  0.00  0.00    +0.000 C 
ATOM     28  C   UNL     1      10.125  15.217  18.544  0.00  0.00    +0.000 C 
ATOM     29  N   UNL     1       8.667  15.407  18.429  0.00  0.00    +0.000 NA
ATOM     30  C   UNL     1       7.910  14.140  18.446  0.00  0.00    +0.000 C 
ATOM     31  C   UNL     1       8.494  13.024  17.579  0.00  0.00    +0.000 C 
BRANCH  26  33
ATOM     32  C   UNL     1      11.794  11.853  19.433  0.00  0.00    +0.000 C 
ATOM     33  C   UNL     1      10.277  12.031  19.242  0.00  0.00    +0.000 C 
ATOM     34  C   UNL     1       9.620  10.647  19.383  0.00  0.00    +0.000 C 
BRANCH  33  35
ATOM     35  O   UNL     1       9.795  12.818  20.328  0.00  0.00    +0.000 OA
ATOM     36  H   UNL     1      10.039  13.747  20.174  0.00  0.00    +0.000 HD
ENDBRANCH  33  35
ENDBRANCH  26  33
ENDBRANCH  25  29
ENDBRANCH   1  25
TORSDOF 5
ENDMDL
MODEL 6
REMARK VINA RESULT:      -6.5      9.246     10.949
REMARK  Name = 
REMARK  7 active torsions:
REMARK  status: ('A' for Active; 'I' for Inactive)
REMARK    1  A    between atoms: C_1  and  C_2
REMARK    2  A    between atoms: C_2  and  C_3
REMARK    3  A    between atoms: C_2  and  O_4
REMARK    4  A    between atoms: C_2  and  C_5
REMARK    5  A    between atoms: N_8  and  C_9
REMARK    6  A    between atoms: C_9  and  C_10
REMARK    7  A    between atoms: C_14  and  C_15
REMARK                            x       y       z     vdW  Elec       q    Type
REMARK                         _______ _______ _______ _____ _____    ______ ____
ROOT
ATOM      1  C   UNL     1      10.118  15.839  19.659  0.00  0.00    +0.000 A 
ATOM      2  C   UNL     1       9.812  16.713  18.636  0.00  0.00    +0.000 A 
ATOM      3  S   UNL     1       8.145  16.987  18.491  0.00  0.00    +0.000 S 
ATOM      4  C   UNL     1       7.767  15.910  19.780  0.00  0.00    +0.000 A 
ATOM      5  C   UNL     1       6.547  15.463  20.292  0.00  0.00    +0.000 A 
ATOM      6  N   UNL     1       6.574  14.498  21.252  0.00  0.00    +0.000 NA
ATOM      7  C   UNL     1       7.737  14.068  21.761  0.00  0.00    +0.000 A 
ATOM      8  N   UNL     1       7.713  13.070  22.693  0.00  0.00    +0.000 N 
ATOM      9  C   UNL     1       6.532  12.250  22.941  0.00  0.00    +0.000 C 
ATOM     10  C   UNL     1       6.204  12.281  24.440  0.00  0.00    +0.000 C 
ATOM     11  O   UNL     1       7.342  11.902  25.240  0.00  0.00    +0.000 OA
ATOM     12  C   UNL     1       8.448  12.791  24.995  0.00  0.00    +0.000 C 
ATOM     13  C   UNL     1       8.877  12.765  23.519  0.00  0.00    +0.000 C 
ATOM     14  N   UNL     1       8.919  14.536  21.377  0.00  0.00    +0.000 NA
ATOM     15  C   UNL     1       8.931  15.405  20.344  0.00  0.00    +0.000 A 
ENDROOT
BRANCH   5  16
ATOM     16  C   UNL     1       5.230  15.903  19.846  0.00  0.00    +0.000 A 
ATOM     17  C   UNL     1       5.037  16.640  18.694  0.00  0.00    +0.000 A 
ATOM     18  N   UNL     1       3.822  17.023  18.222  0.00  0.00    +0.000 NA
ATOM     19  C   UNL     1       2.765  16.628  18.918  0.00  0.00    +0.000 A 
ATOM     20  N   UNL     1       1.511  16.960  18.455  0.00  0.00    +0.000 N 
ATOM     21  N   UNL     1       2.815  15.942  20.059  0.00  0.00    +0.000 NA
ATOM     22  C   UNL     1       4.046  15.583  20.483  0.00  0.00    +0.000 A 
ATOM     23  H   UNL     1       1.563  17.782  17.873  0.00  0.00    +0.000 HD
ATOM     24  H   UNL     1       0.861  16.969  19.225  0.00  0.00    +0.000 HD
ENDBRANCH   5  16
BRANCH   1  25
ATOM     25  C   UNL     1      11.494  15.329  19.972  0.00  0.00    +0.000 C 
BRANCH  25  29
ATOM     26  C   UNL     1      10.827  11.530  18.148  0.00  0.00    +0.000 C 
ATOM     27  C   UNL     1      12.017  11.668  19.120  0.00  0.00    +0.000 C 
ATOM     28  C   UNL     1      12.013  12.975  19.914  0.00  0.00    +0.000 C 
ATOM     29  N   UNL     1      11.885  14.197  19.099  0.00  0.00    +0.000 NA
ATOM     30  C   UNL     1      10.866  14.087  18.037  0.00  0.00    +0.000 C 
ATOM     31  C   UNL     1      10.888  12.777  17.250  0.00  0.00    +0.000 C 
BRANCH  26  33
ATOM     32  C   UNL     1       9.659  10.931  20.337  0.00  0.00    +0.000 C 
ATOM     33  C   UNL     1       9.452  11.254  18.846  0.00  0.00    +0.000 C 
ATOM     34  C   UNL     1       8.660  10.092  18.221  0.00  0.00    +0.000 C 
BRANCH  33  35
ATOM     35  O   UNL     1       8.613  12.403  18.766  0.00  0.00    +0.000 OA
ATOM     36  H   UNL     1       8.119  12.371  17.929  0.00  0.00    +0.000 HD
ENDBRANCH  33  35
ENDBRANCH  26  33
ENDBRANCH  25  29
ENDBRANCH   1  25
TORSDOF 5
ENDMDL
MODEL 7
REMARK VINA RESULT:      -6.4      3.814      9.167
REMARK  Name = 
REMARK  7 active torsions:
REMARK  status: ('A' for Active; 'I' for Inactive)
REMARK    1  A    between atoms: C_1  and  C_2
REMARK    2  A    between atoms: C_2  and  C_3
REMARK    3  A    between atoms: C_2  and  O_4
REMARK    4  A    between atoms: C_2  and  C_5
REMARK    5  A    between atoms: N_8  and  C_9
REMARK    6  A    between atoms: C_9  and  C_10
REMARK    7  A    between atoms: C_14  and  C_15
REMARK                            x       y       z     vdW  Elec       q    Type
REMARK                         _______ _______ _______ _____ _____    ______ ____
ROOT
ATOM      1  C   UNL     1      -1.072  11.064  22.778  0.00  0.00    +0.000 A 
ATOM      2  C   UNL     1      -1.248   9.729  23.079  0.00  0.00    +0.000 A 
ATOM      3  S   UNL     1      -0.324   8.711  22.085  0.00  0.00    +0.000 S 
ATOM      4  C   UNL     1       0.322  10.029  21.185  0.00  0.00    +0.000 A 
ATOM      5  C   UNL     1       1.149  10.072  20.061  0.00  0.00    +0.000 A 
ATOM      6  N   UNL     1       1.390  11.286  19.494  0.00  0.00    +0.000 NA
ATOM      7  C   UNL     1       0.932  12.412  20.058  0.00  0.00    +0.000 A 
ATOM      8  N   UNL     1       1.165  13.600  19.428  0.00  0.00    +0.000 N 
ATOM      9  C   UNL     1       1.618  13.685  18.044  0.00  0.00    +0.000 C 
ATOM     10  C   UNL     1       2.879  14.558  17.980  0.00  0.00    +0.000 C 
ATOM     11  O   UNL     1       2.665  15.845  18.591  0.00  0.00    +0.000 OA
ATOM     12  C   UNL     1       2.284  15.691  19.971  0.00  0.00    +0.000 C 
ATOM     13  C   UNL     1       0.988  14.878  20.113  0.00  0.00    +0.000 C 
ATOM     14  N   UNL     1       0.224  12.428  21.183  0.00  0.00    +0.000 NA
ATOM     15  C   UNL     1      -0.133  11.235  21.703  0.00  0.00    +0.000 A 
ENDROOT
BRANCH   5  16
ATOM     16  C   UNL     1       1.741   8.914  19.402  0.00  0.00    +0.000 A 
ATOM     17  C   UNL     1       2.166   8.935  18.088  0.00  0.00    +0.000 A 
ATOM     18  N   UNL     1       2.768   7.892  17.458  0.00  0.00    +0.000 NA
ATOM     19  C   UNL     1       2.974   6.802  18.183  0.00  0.00    +0.000 A 
ATOM     20  N   UNL     1       3.616   5.734  17.597  0.00  0.00    +0.000 N 
ATOM     21  N   UNL     1       2.585   6.641  19.448  0.00  0.00    +0.000 NA
ATOM     22  C   UNL     1       1.995   7.709  20.028  0.00  0.00    +0.000 A 
ATOM     23  H   UNL     1       3.499   5.766  16.596  0.00  0.00    +0.000 HD
ATOM     24  H   UNL     1       3.358   4.885  18.074  0.00  0.00    +0.000 HD
ENDBRANCH   5  16
BRANCH   1  25
ATOM     25  C   UNL     1      -1.821  12.195  23.417  0.00  0.00    +0.000 C 
BRANCH  25  29
ATOM     26  C   UNL     1      -5.753  13.830  23.157  0.00  0.00    +0.000 C 
ATOM     27  C   UNL     1      -5.468  12.804  24.273  0.00  0.00    +0.000 C 
ATOM     28  C   UNL     1      -3.984  12.483  24.446  0.00  0.00    +0.000 C 
ATOM     29  N   UNL     1      -3.285  12.087  23.210  0.00  0.00    +0.000 NA
ATOM     30  C   UNL     1      -3.629  12.932  22.049  0.00  0.00    +0.000 C 
ATOM     31  C   UNL     1      -5.117  13.239  21.889  0.00  0.00    +0.000 C 
BRANCH  26  33
ATOM     32  C   UNL     1      -6.591  16.182  23.688  0.00  0.00    +0.000 C 
ATOM     33  C   UNL     1      -5.342  15.300  23.511  0.00  0.00    +0.000 C 
ATOM     34  C   UNL     1      -4.444  15.966  22.453  0.00  0.00    +0.000 C 
BRANCH  33  35
ATOM     35  O   UNL     1      -4.614  15.333  24.736  0.00  0.00    +0.000 OA
ATOM     36  H   UNL     1      -4.806  16.170  25.191  0.00  0.00    +0.000 HD
ENDBRANCH  33  35
ENDBRANCH  26  33
ENDBRANCH  25  29
ENDBRANCH   1  25
TORSDOF 5
ENDMDL
MODEL 8
REMARK VINA RESULT:      -6.4      0.928      1.430
REMARK  Name = 
REMARK  7 active torsions:
REMARK  status: ('A' for Active; 'I' for Inactive)
REMARK    1  A    between atoms: C_1  and  C_2
REMARK    2  A    between atoms: C_2  and  C_3
REMARK    3  A    between atoms: C_2  and  O_4
REMARK    4  A    between atoms: C_2  and  C_5
REMARK    5  A    between atoms: N_8  and  C_9
REMARK    6  A    between atoms: C_9  and  C_10
REMARK    7  A    between atoms: C_14  and  C_15
REMARK                            x       y       z     vdW  Elec       q    Type
REMARK                         _______ _______ _______ _____ _____    ______ ____
ROOT
ATOM      1  C   UNL     1       1.394   8.571  20.819  0.00  0.00    +0.000 A 
ATOM      2  C   UNL     1       1.784   8.688  22.137  0.00  0.00    +0.000 A 
ATOM      3  S   UNL     1       0.837   9.798  23.001  0.00  0.00    +0.000 S 
ATOM      4  C   UNL     1      -0.114  10.193  21.621  0.00  0.00    +0.000 A 
ATOM      5  C   UNL     1      -1.123  11.139  21.426  0.00  0.00    +0.000 A 
ATOM      6  N   UNL     1      -1.608  11.302  20.164  0.00  0.00    +0.000 NA
ATOM      7  C   UNL     1      -1.202  10.507  19.164  0.00  0.00    +0.000 A 
ATOM      8  N   UNL     1      -1.687  10.738  17.909  0.00  0.00    +0.000 N 
ATOM      9  C   UNL     1      -2.380  11.968  17.544  0.00  0.00    +0.000 C 
ATOM     10  C   UNL     1      -3.732  11.615  16.908  0.00  0.00    +0.000 C 
ATOM     11  O   UNL     1      -3.576  10.697  15.807  0.00  0.00    +0.000 OA
ATOM     12  C   UNL     1      -2.947   9.481  16.250  0.00  0.00    +0.000 C 
ATOM     13  C   UNL     1      -1.554   9.749  16.843  0.00  0.00    +0.000 C 
ATOM     14  N   UNL     1      -0.318   9.528  19.323  0.00  0.00    +0.000 NA
ATOM     15  C   UNL     1       0.270   9.420  20.534  0.00  0.00    +0.000 A 
ENDROOT
BRANCH   5  16
ATOM     16  C   UNL     1      -1.671  12.015  22.454  0.00  0.00    +0.000 A 
ATOM     17  C   UNL     1      -1.056  13.189  22.845  0.00  0.00    +0.000 A 
ATOM     18  N   UNL     1      -1.564  14.054  23.762  0.00  0.00    +0.000 NA
ATOM     19  C   UNL     1      -2.743  13.741  24.281  0.00  0.00    +0.000 A 
ATOM     20  N   UNL     1      -3.314  14.609  25.186  0.00  0.00    +0.000 N 
ATOM     21  N   UNL     1      -3.424  12.627  24.014  0.00  0.00    +0.000 NA
ATOM     22  C   UNL     1      -2.877  11.803  23.094  0.00  0.00    +0.000 A 
ATOM     23  H   UNL     1      -2.600  15.166  25.630  0.00  0.00    +0.000 HD
ATOM     24  H   UNL     1      -3.952  14.102  25.779  0.00  0.00    +0.000 HD
ENDBRANCH   5  16
BRANCH   1  25
ATOM     25  C   UNL     1       2.097   7.743  19.784  0.00  0.00    +0.000 C 
BRANCH  25  29
ATOM     26  C   UNL     1       2.185   3.523  19.164  0.00  0.00    +0.000 C 
ATOM     27  C   UNL     1       1.556   4.403  18.065  0.00  0.00    +0.000 C 
ATOM     28  C   UNL     1       1.808   5.898  18.257  0.00  0.00    +0.000 C 
ATOM     29  N   UNL     1       1.451   6.423  19.588  0.00  0.00    +0.000 NA
ATOM     30  C   UNL     1       1.886   5.551  20.696  0.00  0.00    +0.000 C 
ATOM     31  C   UNL     1       1.621   4.060  20.489  0.00  0.00    +0.000 C 
BRANCH  26  33
ATOM     32  C   UNL     1       4.189   3.125  17.634  0.00  0.00    +0.000 C 
ATOM     33  C   UNL     1       3.746   3.403  19.081  0.00  0.00    +0.000 C 
ATOM     34  C   UNL     1       4.332   2.295  19.973  0.00  0.00    +0.000 C 
BRANCH  33  35
ATOM     35  O   UNL     1       4.361   4.621  19.494  0.00  0.00    +0.000 OA
ATOM     36  H   UNL     1       4.249   5.282  18.790  0.00  0.00    +0.000 HD
ENDBRANCH  33  35
ENDBRANCH  26  33
ENDBRANCH  25  29
ENDBRANCH   1  25
TORSDOF 5
ENDMDL
MODEL 9
REMARK VINA RESULT:      -6.3      3.845      9.337
REMARK  Name = 
REMARK  7 active torsions:
REMARK  status: ('A' for Active; 'I' for Inactive)
REMARK    1  A    between atoms: C_1  and  C_2
REMARK    2  A    between atoms: C_2  and  C_3
REMARK    3  A    between atoms: C_2  and  O_4
REMARK    4  A    between atoms: C_2  and  C_5
REMARK    5  A    between atoms: N_8  and  C_9
REMARK    6  A    between atoms: C_9  and  C_10
REMARK    7  A    between atoms: C_14  and  C_15
REMARK                            x       y       z     vdW  Elec       q    Type
REMARK                         _______ _______ _______ _____ _____    ______ ____
ROOT
ATOM      1  C   UNL     1      -0.966  11.696  22.785  0.00  0.00    +0.000 A 
ATOM      2  C   UNL     1      -1.287  10.403  23.146  0.00  0.00    +0.000 A 
ATOM      3  S   UNL     1      -0.476   9.245  22.209  0.00  0.00    +0.000 S 
ATOM      4  C   UNL     1       0.313  10.442  21.255  0.00  0.00    +0.000 A 
ATOM      5  C   UNL     1       1.146  10.342  20.138  0.00  0.00    +0.000 A 
ATOM      6  N   UNL     1       1.520  11.494  19.517  0.00  0.00    +0.000 NA
ATOM      7  C   UNL     1       1.184  12.689  20.024  0.00  0.00    +0.000 A 
ATOM      8  N   UNL     1       1.548  13.814  19.342  0.00  0.00    +0.000 N 
ATOM      9  C   UNL     1       2.013  13.783  17.960  0.00  0.00    +0.000 C 
ATOM     10  C   UNL     1       3.362  14.510  17.867  0.00  0.00    +0.000 C 
ATOM     11  O   UNL     1       3.285  15.841  18.415  0.00  0.00    +0.000 OA
ATOM     12  C   UNL     1       2.885  15.794  19.797  0.00  0.00    +0.000 C 
ATOM     13  C   UNL     1       1.507  15.134  19.965  0.00  0.00    +0.000 C 
ATOM     14  N   UNL     1       0.477  12.835  21.140  0.00  0.00    +0.000 NA
ATOM     15  C   UNL     1      -0.010  11.713  21.712  0.00  0.00    +0.000 A 
ENDROOT
BRANCH   5  16
ATOM     16  C   UNL     1       1.611   9.097  19.539  0.00  0.00    +0.000 A 
ATOM     17  C   UNL     1       1.944   8.986  18.203  0.00  0.00    +0.000 A 
ATOM     18  N   UNL     1       2.430   7.857  17.623  0.00  0.00    +0.000 NA
ATOM     19  C   UNL     1       2.612   6.814  18.421  0.00  0.00    +0.000 A 
ATOM     20  N   UNL     1       3.139   5.660  17.884  0.00  0.00    +0.000 N 
ATOM     21  N   UNL     1       2.302   6.779  19.716  0.00  0.00    +0.000 NA
ATOM     22  C   UNL     1       1.827   7.928  20.244  0.00  0.00    +0.000 A 
ATOM     23  H   UNL     1       2.955   5.623  16.893  0.00  0.00    +0.000 HD
ATOM     24  H   UNL     1       2.858   4.871  18.444  0.00  0.00    +0.000 HD
ENDBRANCH   5  16
BRANCH   1  25
ATOM     25  C   UNL     1      -1.591  12.930  23.363  0.00  0.00    +0.000 C 
BRANCH  25  29
ATOM     26  C   UNL     1      -5.042  15.218  22.335  0.00  0.00    +0.000 C 
ATOM     27  C   UNL     1      -4.929  13.787  21.773  0.00  0.00    +0.000 C 
ATOM     28  C   UNL     1      -3.804  12.967  22.404  0.00  0.00    +0.000 C 
ATOM     29  N   UNL     1      -2.481  13.616  22.396  0.00  0.00    +0.000 NA
ATOM     30  C   UNL     1      -2.528  15.042  22.774  0.00  0.00    +0.000 C 
ATOM     31  C   UNL     1      -3.655  15.847  22.129  0.00  0.00    +0.000 C 
BRANCH  26  33
ATOM     32  C   UNL     1      -7.129  14.978  23.784  0.00  0.00    +0.000 C 
ATOM     33  C   UNL     1      -5.624  15.298  23.787  0.00  0.00    +0.000 C 
ATOM     34  C   UNL     1      -5.438  16.671  24.457  0.00  0.00    +0.000 C 
BRANCH  33  35
ATOM     35  O   UNL     1      -4.983  14.347  24.634  0.00  0.00    +0.000 OA
ATOM     36  H   UNL     1      -4.962  14.699  25.540  0.00  0.00    +0.000 HD
ENDBRANCH  33  35
ENDBRANCH  26  33
ENDBRANCH  25  29
ENDBRANCH   1  25
TORSDOF 5
ENDMDL
