MODEL 1
REMARK VINA RESULT:      -9.3      0.000      0.000
REMARK  Name = 
REMARK  3 active torsions:
REMARK  status: ('A' for Active; 'I' for Inactive)
REMARK    1  A    between atoms: C_2  and  C_12
REMARK    2  A    between atoms: N_3  and  N_4
REMARK    3  A    between atoms: C_5  and  C_6
REMARK                            x       y       z     vdW  Elec       q    Type
REMARK                         _______ _______ _______ _____ _____    ______ ____
ROOT
ATOM      1  C   UNL     1       5.660   4.940  16.394  0.00  0.00    +0.000 A 
ATOM      2  C   UNL     1       4.946   3.825  16.869  0.00  0.00    +0.000 A 
ATOM      3  C   UNL     1       3.881   4.139  17.759  0.00  0.00    +0.000 A 
ATOM      4  C   UNL     1       3.717   5.481  18.075  0.00  0.00    +0.000 A 
ATOM      5  C   UNL     1       4.161   6.488  17.260  0.00  0.00    +0.000 A 
ATOM      6  N   UNL     1       5.196   6.224  16.471  0.00  0.00    +0.000 NA
ATOM      7  N   UNL     1       3.090   5.518  19.277  0.00  0.00    +0.000 N 
ATOM      8  C   UNL     1       2.276   4.429  19.367  0.00  0.00    +0.000 A 
ATOM      9  C   UNL     1       1.177   4.240  20.207  0.00  0.00    +0.000 A 
ATOM     10  C   UNL     1       0.366   3.152  19.938  0.00  0.00    +0.000 A 
ATOM     11  C   UNL     1       0.717   2.242  18.938  0.00  0.00    +0.000 A 
ATOM     12  C   UNL     1       1.911   2.380  18.190  0.00  0.00    +0.000 A 
ATOM     13  C   UNL     1       2.715   3.532  18.379  0.00  0.00    +0.000 A 
ATOM     14  H   UNL     1       3.084   6.303  19.917  0.00  0.00    +0.000 HD
ENDROOT
BRANCH   1  16
ATOM     15  O   UNL     1       8.004   4.417  16.328  0.00  0.00    +0.000 OA
ATOM     16  C   UNL     1       7.047   4.909  15.766  0.00  0.00    +0.000 C 
ATOM     17  N   UNL     1       6.996   5.532  14.520  0.00  0.00    +0.000 N 
ATOM     18  H   UNL     1       6.087   5.921  14.260  0.00  0.00    +0.000 HD
BRANCH  17  19
ATOM     19  N   UNL     1       8.003   5.589  13.610  0.00  0.00    +0.000 NA
ATOM     20  C   UNL     1       7.839   4.929  12.497  0.00  0.00    +0.000 C 
BRANCH  20  21
ATOM     21  C   UNL     1       6.830   3.877  12.151  0.00  0.00    +0.000 A 
ATOM     22  C   UNL     1       5.465   4.180  12.243  0.00  0.00    +0.000 A 
ATOM     23  C   UNL     1       4.507   3.246  11.825  0.00  0.00    +0.000 A 
ATOM     24  C   UNL     1       4.905   2.001  11.328  0.00  0.00    +0.000 A 
ATOM     25  C   UNL     1       6.258   1.696  11.231  0.00  0.00    +0.000 A 
ATOM     26  C   UNL     1       7.214   2.645  11.611  0.00  0.00    +0.000 A 
ENDBRANCH  20  21
ENDBRANCH  17  19
ENDBRANCH   1  16
TORSDOF 3
ENDMDL
MODEL 2
REMARK VINA RESULT:      -9.0      1.652      7.384
REMARK  Name = 
REMARK  3 active torsions:
REMARK  status: ('A' for Active; 'I' for Inactive)
REMARK    1  A    between atoms: C_2  and  C_12
REMARK    2  A    between atoms: N_3  and  N_4
REMARK    3  A    between atoms: C_5  and  C_6
REMARK                            x       y       z     vdW  Elec       q    Type
REMARK                         _______ _______ _______ _____ _____    ______ ____
ROOT
ATOM      1  C   UNL     1       5.381   4.989  17.726  0.00  0.00    +0.000 A 
ATOM      2  C   UNL     1       4.802   4.751  16.466  0.00  0.00    +0.000 A 
ATOM      3  C   UNL     1       5.736   4.640  15.398  0.00  0.00    +0.000 A 
ATOM      4  C   UNL     1       7.072   4.826  15.725  0.00  0.00    +0.000 A 
ATOM      5  C   UNL     1       7.554   4.626  16.992  0.00  0.00    +0.000 A 
ATOM      6  N   UNL     1       6.706   4.791  18.000  0.00  0.00    +0.000 NA
ATOM      7  N   UNL     1       7.693   5.228  14.588  0.00  0.00    +0.000 N 
ATOM      8  C   UNL     1       7.060   4.650  13.529  0.00  0.00    +0.000 A 
ATOM      9  C   UNL     1       7.548   4.451  12.236  0.00  0.00    +0.000 A 
ATOM     10  C   UNL     1       6.808   3.622  11.412  0.00  0.00    +0.000 A 
ATOM     11  C   UNL     1       5.580   3.114  11.841  0.00  0.00    +0.000 A 
ATOM     12  C   UNL     1       5.039   3.443  13.108  0.00  0.00    +0.000 A 
ATOM     13  C   UNL     1       5.815   4.214  14.011  0.00  0.00    +0.000 A 
ATOM     14  H   UNL     1       8.577   5.720  14.539  0.00  0.00    +0.000 HD
ENDROOT
BRANCH   1  16
ATOM     15  O   UNL     1       5.062   5.342  20.081  0.00  0.00    +0.000 OA
ATOM     16  C   UNL     1       4.657   5.529  18.952  0.00  0.00    +0.000 C 
ATOM     17  N   UNL     1       3.514   6.212  18.541  0.00  0.00    +0.000 N 
ATOM     18  H   UNL     1       3.337   6.207  17.534  0.00  0.00    +0.000 HD
BRANCH  17  19
ATOM     19  N   UNL     1       2.683   6.935  19.335  0.00  0.00    +0.000 NA
ATOM     20  C   UNL     1       1.962   6.277  20.201  0.00  0.00    +0.000 C 
BRANCH  20  21
ATOM     21  C   UNL     1       1.684   4.807  20.290  0.00  0.00    +0.000 A 
ATOM     22  C   UNL     1       1.155   4.142  19.175  0.00  0.00    +0.000 A 
ATOM     23  C   UNL     1       0.986   2.751  19.202  0.00  0.00    +0.000 A 
ATOM     24  C   UNL     1       1.329   2.019  20.344  0.00  0.00    +0.000 A 
ATOM     25  C   UNL     1       1.859   2.674  21.450  0.00  0.00    +0.000 A 
ATOM     26  C   UNL     1       2.064   4.058  21.407  0.00  0.00    +0.000 A 
ENDBRANCH  20  21
ENDBRANCH  17  19
ENDBRANCH   1  16
TORSDOF 3
ENDMDL
MODEL 3
REMARK VINA RESULT:      -8.8      1.641      7.465
REMARK  Name = 
REMARK  3 active torsions:
REMARK  status: ('A' for Active; 'I' for Inactive)
REMARK    1  A    between atoms: C_2  and  C_12
REMARK    2  A    between atoms: N_3  and  N_4
REMARK    3  A    between atoms: C_5  and  C_6
REMARK                            x       y       z     vdW  Elec       q    Type
REMARK                         _______ _______ _______ _____ _____    ______ ____
ROOT
ATOM      1  C   UNL     1       5.396   5.058  17.603  0.00  0.00    +0.000 A 
ATOM      2  C   UNL     1       4.804   4.800  16.354  0.00  0.00    +0.000 A 
ATOM      3  C   UNL     1       5.726   4.651  15.281  0.00  0.00    +0.000 A 
ATOM      4  C   UNL     1       7.068   4.825  15.593  0.00  0.00    +0.000 A 
ATOM      5  C   UNL     1       7.558   4.647  16.860  0.00  0.00    +0.000 A 
ATOM      6  N   UNL     1       6.720   4.846  17.871  0.00  0.00    +0.000 NA
ATOM      7  N   UNL     1       7.685   5.192  14.442  0.00  0.00    +0.000 N 
ATOM      8  C   UNL     1       7.035   4.600  13.402  0.00  0.00    +0.000 A 
ATOM      9  C   UNL     1       7.510   4.364  12.110  0.00  0.00    +0.000 A 
ATOM     10  C   UNL     1       6.750   3.528  11.311  0.00  0.00    +0.000 A 
ATOM     11  C   UNL     1       5.519   3.048  11.762  0.00  0.00    +0.000 A 
ATOM     12  C   UNL     1       4.993   3.413  13.025  0.00  0.00    +0.000 A 
ATOM     13  C   UNL     1       5.788   4.193  13.903  0.00  0.00    +0.000 A 
ATOM     14  H   UNL     1       8.576   5.670  14.375  0.00  0.00    +0.000 HD
ENDROOT
BRANCH   1  16
ATOM     15  O   UNL     1       5.126   5.507  19.948  0.00  0.00    +0.000 OA
ATOM     16  C   UNL     1       4.690   5.636  18.823  0.00  0.00    +0.000 C 
ATOM     17  N   UNL     1       3.522   6.276  18.411  0.00  0.00    +0.000 N 
ATOM     18  H   UNL     1       3.321   6.223  17.410  0.00  0.00    +0.000 HD
BRANCH  17  19
ATOM     19  N   UNL     1       2.695   7.016  19.193  0.00  0.00    +0.000 NA
ATOM     20  C   UNL     1       2.034   6.386  20.126  0.00  0.00    +0.000 C 
BRANCH  20  21
ATOM     21  C   UNL     1       1.816   4.915  20.313  0.00  0.00    +0.000 A 
ATOM     22  C   UNL     1       2.252   4.304  21.496  0.00  0.00    +0.000 A 
ATOM     23  C   UNL     1       1.966   2.953  21.736  0.00  0.00    +0.000 A 
ATOM     24  C   UNL     1       1.258   2.202  20.793  0.00  0.00    +0.000 A 
ATOM     25  C   UNL     1       0.819   2.805  19.619  0.00  0.00    +0.000 A 
ATOM     26  C   UNL     1       1.071   4.164  19.399  0.00  0.00    +0.000 A 
ENDBRANCH  20  21
ENDBRANCH  17  19
ENDBRANCH   1  16
TORSDOF 3
ENDMDL
MODEL 4
REMARK VINA RESULT:      -8.7      1.216      1.770
REMARK  Name = 
REMARK  3 active torsions:
REMARK  status: ('A' for Active; 'I' for Inactive)
REMARK    1  A    between atoms: C_2  and  C_12
REMARK    2  A    between atoms: N_3  and  N_4
REMARK    3  A    between atoms: C_5  and  C_6
REMARK                            x       y       z     vdW  Elec       q    Type
REMARK                         _______ _______ _______ _____ _____    ______ ____
ROOT
ATOM      1  C   UNL     1       5.902   4.867  16.652  0.00  0.00    +0.000 A 
ATOM      2  C   UNL     1       5.164   5.317  17.762  0.00  0.00    +0.000 A 
ATOM      3  C   UNL     1       4.025   4.525  18.076  0.00  0.00    +0.000 A 
ATOM      4  C   UNL     1       3.767   3.454  17.230  0.00  0.00    +0.000 A 
ATOM      5  C   UNL     1       4.743   2.863  16.472  0.00  0.00    +0.000 A 
ATOM      6  N   UNL     1       5.780   3.614  16.120  0.00  0.00    +0.000 NA
ATOM      7  N   UNL     1       2.439   3.196  17.332  0.00  0.00    +0.000 N 
ATOM      8  C   UNL     1       2.041   3.507  18.598  0.00  0.00    +0.000 A 
ATOM      9  C   UNL     1       0.904   3.063  19.278  0.00  0.00    +0.000 A 
ATOM     10  C   UNL     1       0.850   3.324  20.635  0.00  0.00    +0.000 A 
ATOM     11  C   UNL     1       1.844   4.091  21.247  0.00  0.00    +0.000 A 
ATOM     12  C   UNL     1       2.917   4.647  20.509  0.00  0.00    +0.000 A 
ATOM     13  C   UNL     1       3.051   4.322  19.134  0.00  0.00    +0.000 A 
ATOM     14  H   UNL     1       1.881   2.692  16.654  0.00  0.00    +0.000 HD
ENDROOT
BRANCH   1  16
ATOM     15  O   UNL     1       7.494   6.639  16.333  0.00  0.00    +0.000 OA
ATOM     16  C   UNL     1       6.905   5.691  15.855  0.00  0.00    +0.000 C 
ATOM     17  N   UNL     1       6.986   5.180  14.560  0.00  0.00    +0.000 N 
ATOM     18  H   UNL     1       6.361   4.398  14.357  0.00  0.00    +0.000 HD
BRANCH  17  19
ATOM     19  N   UNL     1       7.861   5.570  13.598  0.00  0.00    +0.000 NA
ATOM     20  C   UNL     1       7.771   4.983  12.436  0.00  0.00    +0.000 C 
BRANCH  20  21
ATOM     21  C   UNL     1       7.033   3.736  12.052  0.00  0.00    +0.000 A 
ATOM     22  C   UNL     1       5.636   3.708  12.157  0.00  0.00    +0.000 A 
ATOM     23  C   UNL     1       4.920   2.590  11.706  0.00  0.00    +0.000 A 
ATOM     24  C   UNL     1       5.594   1.492  11.162  0.00  0.00    +0.000 A 
ATOM     25  C   UNL     1       6.979   1.518  11.051  0.00  0.00    +0.000 A 
ATOM     26  C   UNL     1       7.690   2.650  11.466  0.00  0.00    +0.000 A 
ENDBRANCH  20  21
ENDBRANCH  17  19
ENDBRANCH   1  16
TORSDOF 3
ENDMDL
MODEL 5
REMARK VINA RESULT:      -8.7      1.235      1.994
REMARK  Name = 
REMARK  3 active torsions:
REMARK  status: ('A' for Active; 'I' for Inactive)
REMARK    1  A    between atoms: C_2  and  C_12
REMARK    2  A    between atoms: N_3  and  N_4
REMARK    3  A    between atoms: C_5  and  C_6
REMARK                            x       y       z     vdW  Elec       q    Type
REMARK                         _______ _______ _______ _____ _____    ______ ____
ROOT
ATOM      1  C   UNL     1       5.906   4.822  16.762  0.00  0.00    +0.000 A 
ATOM      2  C   UNL     1       5.275   5.160  17.973  0.00  0.00    +0.000 A 
ATOM      3  C   UNL     1       4.086   4.429  18.246  0.00  0.00    +0.000 A 
ATOM      4  C   UNL     1       3.683   3.523  17.273  0.00  0.00    +0.000 A 
ATOM      5  C   UNL     1       4.556   2.972  16.373  0.00  0.00    +0.000 A 
ATOM      6  N   UNL     1       5.638   3.678  16.063  0.00  0.00    +0.000 NA
ATOM      7  N   UNL     1       2.344   3.366  17.428  0.00  0.00    +0.000 N 
ATOM      8  C   UNL     1       2.047   3.515  18.749  0.00  0.00    +0.000 A 
ATOM      9  C   UNL     1       0.913   3.072  19.433  0.00  0.00    +0.000 A 
ATOM     10  C   UNL     1       0.958   3.129  20.815  0.00  0.00    +0.000 A 
ATOM     11  C   UNL     1       2.052   3.709  21.462  0.00  0.00    +0.000 A 
ATOM     12  C   UNL     1       3.130   4.277  20.741  0.00  0.00    +0.000 A 
ATOM     13  C   UNL     1       3.156   4.152  19.328  0.00  0.00    +0.000 A 
ATOM     14  H   UNL     1       1.704   3.019  16.723  0.00  0.00    +0.000 HD
ENDROOT
BRANCH   1  16
ATOM     15  O   UNL     1       7.476   6.627  16.539  0.00  0.00    +0.000 OA
ATOM     16  C   UNL     1       6.936   5.668  16.026  0.00  0.00    +0.000 C 
ATOM     17  N   UNL     1       7.102   5.164  14.737  0.00  0.00    +0.000 N 
ATOM     18  H   UNL     1       6.507   4.369  14.496  0.00  0.00    +0.000 HD
BRANCH  17  19
ATOM     19  N   UNL     1       8.023   5.574  13.828  0.00  0.00    +0.000 NA
ATOM     20  C   UNL     1       7.905   5.119  12.611  0.00  0.00    +0.000 C 
BRANCH  20  21
ATOM     21  C   UNL     1       7.073   3.984  12.094  0.00  0.00    +0.000 A 
ATOM     22  C   UNL     1       7.711   2.854  11.564  0.00  0.00    +0.000 A 
ATOM     23  C   UNL     1       6.955   1.740  11.171  0.00  0.00    +0.000 A 
ATOM     24  C   UNL     1       5.563   1.754  11.292  0.00  0.00    +0.000 A 
ATOM     25  C   UNL     1       4.926   2.870  11.821  0.00  0.00    +0.000 A 
ATOM     26  C   UNL     1       5.684   3.966  12.249  0.00  0.00    +0.000 A 
ENDBRANCH  20  21
ENDBRANCH  17  19
ENDBRANCH   1  16
TORSDOF 3
ENDMDL
MODEL 6
REMARK VINA RESULT:      -8.6      4.294      7.228
REMARK  Name = 
REMARK  3 active torsions:
REMARK  status: ('A' for Active; 'I' for Inactive)
REMARK    1  A    between atoms: C_2  and  C_12
REMARK    2  A    between atoms: N_3  and  N_4
REMARK    3  A    between atoms: C_5  and  C_6
REMARK                            x       y       z     vdW  Elec       q    Type
REMARK                         _______ _______ _______ _____ _____    ______ ____
ROOT
ATOM      1  C   UNL     1       2.533   7.703  18.364  0.00  0.00    +0.000 A 
ATOM      2  C   UNL     1       2.167   7.730  19.722  0.00  0.00    +0.000 A 
ATOM      3  C   UNL     1       1.450   8.894  20.118  0.00  0.00    +0.000 A 
ATOM      4  C   UNL     1       1.250   9.858  19.139  0.00  0.00    +0.000 A 
ATOM      5  C   UNL     1       1.258   9.561  17.802  0.00  0.00    +0.000 A 
ATOM      6  N   UNL     1       1.977   8.514  17.414  0.00  0.00    +0.000 NA
ATOM      7  N   UNL     1       1.082  11.036  19.790  0.00  0.00    +0.000 N 
ATOM      8  C   UNL     1       0.486  10.781  20.988  0.00  0.00    +0.000 A 
ATOM      9  C   UNL     1      -0.220  11.665  21.806  0.00  0.00    +0.000 A 
ATOM     10  C   UNL     1      -0.939  11.109  22.849  0.00  0.00    +0.000 A 
ATOM     11  C   UNL     1      -0.855   9.740  23.113  0.00  0.00    +0.000 A 
ATOM     12  C   UNL     1      -0.022   8.884  22.353  0.00  0.00    +0.000 A 
ATOM     13  C   UNL     1       0.655   9.406  21.221  0.00  0.00    +0.000 A 
ATOM     14  H   UNL     1       1.207  11.958  19.387  0.00  0.00    +0.000 HD
ENDROOT
BRANCH   1  16
ATOM     15  O   UNL     1       4.688   7.248  17.405  0.00  0.00    +0.000 OA
ATOM     16  C   UNL     1       3.607   6.816  17.748  0.00  0.00    +0.000 C 
ATOM     17  N   UNL     1       3.120   5.514  17.649  0.00  0.00    +0.000 N 
ATOM     18  H   UNL     1       2.155   5.380  17.958  0.00  0.00    +0.000 HD
BRANCH  17  19
ATOM     19  N   UNL     1       3.828   4.420  17.267  0.00  0.00    +0.000 NA
ATOM     20  C   UNL     1       3.557   3.293  17.868  0.00  0.00    +0.000 C 
BRANCH  20  21
ATOM     21  C   UNL     1       2.775   3.046  19.122  0.00  0.00    +0.000 A 
ATOM     22  C   UNL     1       3.458   2.725  20.303  0.00  0.00    +0.000 A 
ATOM     23  C   UNL     1       2.755   2.592  21.508  0.00  0.00    +0.000 A 
ATOM     24  C   UNL     1       1.368   2.763  21.539  0.00  0.00    +0.000 A 
ATOM     25  C   UNL     1       0.686   3.087  20.371  0.00  0.00    +0.000 A 
ATOM     26  C   UNL     1       1.394   3.258  19.176  0.00  0.00    +0.000 A 
ENDBRANCH  20  21
ENDBRANCH  17  19
ENDBRANCH   1  16
TORSDOF 3
ENDMDL
MODEL 7
REMARK VINA RESULT:      -8.6      2.463      7.545
REMARK  Name = 
REMARK  3 active torsions:
REMARK  status: ('A' for Active; 'I' for Inactive)
REMARK    1  A    between atoms: C_2  and  C_12
REMARK    2  A    between atoms: N_3  and  N_4
REMARK    3  A    between atoms: C_5  and  C_6
REMARK                            x       y       z     vdW  Elec       q    Type
REMARK                         _______ _______ _______ _____ _____    ______ ____
ROOT
ATOM      1  C   UNL     1       4.827   3.772  18.146  0.00  0.00    +0.000 A 
ATOM      2  C   UNL     1       4.596   3.630  16.765  0.00  0.00    +0.000 A 
ATOM      3  C   UNL     1       5.607   4.191  15.936  0.00  0.00    +0.000 A 
ATOM      4  C   UNL     1       6.649   4.838  16.586  0.00  0.00    +0.000 A 
ATOM      5  C   UNL     1       6.996   4.557  17.881  0.00  0.00    +0.000 A 
ATOM      6  N   UNL     1       6.043   4.093  18.681  0.00  0.00    +0.000 NA
ATOM      7  N   UNL     1       7.157   5.732  15.701  0.00  0.00    +0.000 N 
ATOM      8  C   UNL     1       7.010   5.221  14.446  0.00  0.00    +0.000 A 
ATOM      9  C   UNL     1       7.701   5.571  13.285  0.00  0.00    +0.000 A 
ATOM     10  C   UNL     1       7.545   4.738  12.192  0.00  0.00    +0.000 A 
ATOM     11  C   UNL     1       6.647   3.670  12.242  0.00  0.00    +0.000 A 
ATOM     12  C   UNL     1       5.853   3.415  13.386  0.00  0.00    +0.000 A 
ATOM     13  C   UNL     1       6.057   4.195  14.554  0.00  0.00    +0.000 A 
ATOM     14  H   UNL     1       7.711   6.547  15.935  0.00  0.00    +0.000 HD
ENDROOT
BRANCH   1  16
ATOM     15  O   UNL     1       3.355   2.556  19.606  0.00  0.00    +0.000 OA
ATOM     16  C   UNL     1       3.780   3.635  19.243  0.00  0.00    +0.000 C 
ATOM     17  N   UNL     1       3.426   4.905  19.696  0.00  0.00    +0.000 N 
ATOM     18  H   UNL     1       3.878   5.685  19.214  0.00  0.00    +0.000 HD
BRANCH  17  19
ATOM     19  N   UNL     1       2.617   5.184  20.750  0.00  0.00    +0.000 NA
ATOM     20  C   UNL     1       1.882   6.259  20.670  0.00  0.00    +0.000 C 
BRANCH  20  21
ATOM     21  C   UNL     1       1.977   7.411  19.716  0.00  0.00    +0.000 A 
ATOM     22  C   UNL     1       2.597   7.220  18.473  0.00  0.00    +0.000 A 
ATOM     23  C   UNL     1       2.604   8.254  17.526  0.00  0.00    +0.000 A 
ATOM     24  C   UNL     1       2.007   9.484  17.818  0.00  0.00    +0.000 A 
ATOM     25  C   UNL     1       1.387   9.676  19.047  0.00  0.00    +0.000 A 
ATOM     26  C   UNL     1       1.347   8.631  19.977  0.00  0.00    +0.000 A 
ENDBRANCH  20  21
ENDBRANCH  17  19
ENDBRANCH   1  16
TORSDOF 3
ENDMDL
MODEL 8
REMARK VINA RESULT:      -8.4      2.077      7.370
REMARK  Name = 
REMARK  3 active torsions:
REMARK  status: ('A' for Active; 'I' for Inactive)
REMARK    1  A    between atoms: C_2  and  C_12
REMARK    2  A    between atoms: N_3  and  N_4
REMARK    3  A    between atoms: C_5  and  C_6
REMARK                            x       y       z     vdW  Elec       q    Type
REMARK                         _______ _______ _______ _____ _____    ______ ____
ROOT
ATOM      1  C   UNL     1       5.410   3.943  18.068  0.00  0.00    +0.000 A 
ATOM      2  C   UNL     1       4.995   3.760  16.737  0.00  0.00    +0.000 A 
ATOM      3  C   UNL     1       5.921   4.219  15.759  0.00  0.00    +0.000 A 
ATOM      4  C   UNL     1       7.076   4.821  16.240  0.00  0.00    +0.000 A 
ATOM      5  C   UNL     1       7.571   4.571  17.492  0.00  0.00    +0.000 A 
ATOM      6  N   UNL     1       6.703   4.204  18.428  0.00  0.00    +0.000 NA
ATOM      7  N   UNL     1       7.518   5.643  15.254  0.00  0.00    +0.000 N 
ATOM      8  C   UNL     1       7.179   5.092  14.055  0.00  0.00    +0.000 A 
ATOM      9  C   UNL     1       7.734   5.348  12.800  0.00  0.00    +0.000 A 
ATOM     10  C   UNL     1       7.386   4.484  11.778  0.00  0.00    +0.000 A 
ATOM     11  C   UNL     1       6.440   3.480  11.993  0.00  0.00    +0.000 A 
ATOM     12  C   UNL     1       5.787   3.325  13.240  0.00  0.00    +0.000 A 
ATOM     13  C   UNL     1       6.187   4.136  14.333  0.00  0.00    +0.000 A 
ATOM     14  H   UNL     1       8.146   6.428  15.377  0.00  0.00    +0.000 HD
ENDROOT
BRANCH   1  16
ATOM     15  O   UNL     1       4.801   4.488  20.328  0.00  0.00    +0.000 OA
ATOM     16  C   UNL     1       4.508   3.920  19.295  0.00  0.00    +0.000 C 
ATOM     17  N   UNL     1       3.377   3.156  19.014  0.00  0.00    +0.000 N 
ATOM     18  H   UNL     1       3.356   2.726  18.087  0.00  0.00    +0.000 HD
BRANCH  17  19
ATOM     19  N   UNL     1       2.290   3.007  19.814  0.00  0.00    +0.000 NA
ATOM     20  C   UNL     1       1.475   4.022  19.908  0.00  0.00    +0.000 C 
BRANCH  20  21
ATOM     21  C   UNL     1       1.675   5.448  19.492  0.00  0.00    +0.000 A 
ATOM     22  C   UNL     1       1.655   6.454  20.467  0.00  0.00    +0.000 A 
ATOM     23  C   UNL     1       1.943   7.780  20.114  0.00  0.00    +0.000 A 
ATOM     24  C   UNL     1       2.237   8.110  18.787  0.00  0.00    +0.000 A 
ATOM     25  C   UNL     1       2.262   7.114  17.817  0.00  0.00    +0.000 A 
ATOM     26  C   UNL     1       2.013   5.785  18.178  0.00  0.00    +0.000 A 
ENDBRANCH  20  21
ENDBRANCH  17  19
ENDBRANCH   1  16
TORSDOF 3
ENDMDL
MODEL 9
REMARK VINA RESULT:      -8.3      4.802      7.322
REMARK  Name = 
REMARK  3 active torsions:
REMARK  status: ('A' for Active; 'I' for Inactive)
REMARK    1  A    between atoms: C_2  and  C_12
REMARK    2  A    between atoms: N_3  and  N_4
REMARK    3  A    between atoms: C_5  and  C_6
REMARK                            x       y       z     vdW  Elec       q    Type
REMARK                         _______ _______ _______ _____ _____    ______ ____
ROOT
ATOM      1  C   UNL     1       2.270   7.747  18.868  0.00  0.00    +0.000 A 
ATOM      2  C   UNL     1       1.844   7.938  20.195  0.00  0.00    +0.000 A 
ATOM      3  C   UNL     1       1.206   9.187  20.439  0.00  0.00    +0.000 A 
ATOM      4  C   UNL     1       1.131  10.060  19.362  0.00  0.00    +0.000 A 
ATOM      5  C   UNL     1       1.177   9.631  18.061  0.00  0.00    +0.000 A 
ATOM      6  N   UNL     1       1.827   8.499  17.816  0.00  0.00    +0.000 NA
ATOM      7  N   UNL     1       1.028  11.307  19.886  0.00  0.00    +0.000 N 
ATOM      8  C   UNL     1       0.358  11.218  21.069  0.00  0.00    +0.000 A 
ATOM      9  C   UNL     1      -0.312  12.231  21.759  0.00  0.00    +0.000 A 
ATOM     10  C   UNL     1      -1.121  11.838  22.810  0.00  0.00    +0.000 A 
ATOM     11  C   UNL     1      -1.160  10.500  23.208  0.00  0.00    +0.000 A 
ATOM     12  C   UNL     1      -0.365   9.511  22.580  0.00  0.00    +0.000 A 
ATOM     13  C   UNL     1       0.405   9.865  21.442  0.00  0.00    +0.000 A 
ATOM     14  H   UNL     1       1.246  12.171  19.404  0.00  0.00    +0.000 HD
ENDROOT
BRANCH   1  16
ATOM     15  O   UNL     1       3.500   6.500  17.223  0.00  0.00    +0.000 OA
ATOM     16  C   UNL     1       3.296   6.725  18.399  0.00  0.00    +0.000 C 
ATOM     17  N   UNL     1       3.892   6.135  19.513  0.00  0.00    +0.000 N 
ATOM     18  H   UNL     1       3.533   6.443  20.418  0.00  0.00    +0.000 HD
BRANCH  17  19
ATOM     19  N   UNL     1       4.939   5.269  19.498  0.00  0.00    +0.000 NA
ATOM     20  C   UNL     1       4.665   4.003  19.340  0.00  0.00    +0.000 C 
BRANCH  20  21
ATOM     21  C   UNL     1       3.350   3.292  19.445  0.00  0.00    +0.000 A 
ATOM     22  C   UNL     1       2.774   3.102  20.709  0.00  0.00    +0.000 A 
ATOM     23  C   UNL     1       1.498   2.532  20.821  0.00  0.00    +0.000 A 
ATOM     24  C   UNL     1       0.798   2.137  19.678  0.00  0.00    +0.000 A 
ATOM     25  C   UNL     1       1.363   2.328  18.422  0.00  0.00    +0.000 A 
ATOM     26  C   UNL     1       2.620   2.933  18.309  0.00  0.00    +0.000 A 
ENDBRANCH  20  21
ENDBRANCH  17  19
ENDBRANCH   1  16
TORSDOF 3
ENDMDL
