MODEL 1
REMARK VINA RESULT:      -8.6      0.000      0.000
REMARK  Name = 
REMARK  12 active torsions:
REMARK  status: ('A' for Active; 'I' for Inactive)
REMARK    1  A    between atoms: C_1  and  C_2
REMARK    2  A    between atoms: C_2  and  C_3
REMARK    3  A    between atoms: C_2  and  O_4
REMARK    4  A    between atoms: C_2  and  C_5
REMARK    5  A    between atoms: C_5  and  C_7
REMARK    6  A    between atoms: C_7  and  N_8
REMARK    7  A    between atoms: C_9  and  C_11
REMARK    8  A    between atoms: C_14  and  N_15
REMARK    9  A    between atoms: C_20  and  C_21
REMARK   10  A    between atoms: C_27  and  N_28
REMARK   11  A    between atoms: N_28  and  C_29
REMARK   12  A    between atoms: C_32  and  N_33
REMARK                            x       y       z     vdW  Elec       q    Type
REMARK                         _______ _______ _______ _____ _____    ______ ____
ROOT
ATOM      1  C   UNL     1       2.614   7.131  18.737  0.00  0.00    +0.000 A 
ATOM      2  C   UNL     1       2.031   8.351  18.434  0.00  0.00    +0.000 A 
ATOM      3  N   UNL     1       1.276   9.085  19.297  0.00  0.00    +0.000 NA
ATOM      4  C   UNL     1       1.043   8.590  20.542  0.00  0.00    +0.000 A 
ATOM      5  C   UNL     1       1.443   7.316  20.876  0.00  0.00    +0.000 A 
ATOM      6  C   UNL     1       2.288   6.585  19.999  0.00  0.00    +0.000 A 
ENDROOT
BRANCH   4   7
ATOM      7  N   UNL     1       0.530   9.512  21.515  0.00  0.00    +0.000 N 
ATOM      8  C   UNL     1      -0.460   9.106  22.404  0.00  0.00    +0.000 A 
ATOM      9  C   UNL     1      -0.736  10.142  23.257  0.00  0.00    +0.000 A 
ATOM     10  C   UNL     1      -0.502  11.257  22.430  0.00  0.00    +0.000 A 
ATOM     11  C   UNL     1      -1.138  12.494  22.239  0.00  0.00    +0.000 A 
ATOM     12  C   UNL     1      -0.484  13.429  21.443  0.00  0.00    +0.000 A 
ATOM     13  C   UNL     1       0.765  13.082  20.938  0.00  0.00    +0.000 A 
ATOM     14  N   UNL     1       1.323  11.827  20.923  0.00  0.00    +0.000 NA
ATOM     15  C   UNL     1       0.587  10.920  21.613  0.00  0.00    +0.000 A 
BRANCH  12  16
ATOM     16  C   UNL     1      -1.109  14.681  21.126  0.00  0.00    +0.000 C 
ATOM     17  N   UNL     1      -1.628  15.692  20.821  0.00  0.00    +0.000 NA
ENDBRANCH  12  16
ENDBRANCH   4   7
BRANCH   1  19
ATOM     18  N   UNL     1       4.582   7.295  17.223  0.00  0.00    +0.000 N 
ATOM     19  C   UNL     1       3.514   6.522  17.681  0.00  0.00    +0.000 C 
ATOM     20  O   UNL     1       3.297   5.403  17.269  0.00  0.00    +0.000 OA
ATOM     21  H   UNL     1       4.599   8.276  17.495  0.00  0.00    +0.000 HD
BRANCH  18  22
ATOM     22  C   UNL     1       5.636   6.814  16.303  0.00  0.00    +0.000 C 
BRANCH  22  23
ATOM     23  C   UNL     1       6.875   6.193  16.989  0.00  0.00    +0.000 C 
ATOM     24  F   UNL     1       7.011   6.820  18.207  0.00  0.00    +0.000 F 
BRANCH  23  26
ATOM     25  C   UNL     1       6.145   3.918  16.102  0.00  0.00    +0.000 C 
ATOM     26  C   UNL     1       6.841   4.645  17.268  0.00  0.00    +0.000 C 
ATOM     27  C   UNL     1       6.117   4.268  18.566  0.00  0.00    +0.000 C 
BRANCH  26  28
ATOM     28  O   UNL     1       8.179   4.128  17.371  0.00  0.00    +0.000 OA
ATOM     29  H   UNL     1       8.582   4.121  16.483  0.00  0.00    +0.000 HD
ENDBRANCH  26  28
ENDBRANCH  23  26
ENDBRANCH  22  23
ENDBRANCH  18  22
ENDBRANCH   1  19
BRANCH   6  30
ATOM     30  N   UNL     1       2.902   5.404  20.425  0.00  0.00    +0.000 N 
ATOM     31  H   UNL     1       3.677   5.141  19.815  0.00  0.00    +0.000 HD
BRANCH  30  32
ATOM     32  C   UNL     1       2.168   4.272  20.996  0.00  0.00    +0.000 C 
ATOM     33  C   UNL     1       0.877   4.106  20.190  0.00  0.00    +0.000 C 
ATOM     34  C   UNL     1       1.281   3.302  18.942  0.00  0.00    +0.000 C 
ATOM     35  C   UNL     1       2.674   2.735  19.236  0.00  0.00    +0.000 C 
ATOM     36  C   UNL     1       2.834   2.911  20.738  0.00  0.00    +0.000 C 
BRANCH  35  37
ATOM     37  N   UNL     1       2.862   1.363  18.793  0.00  0.00    +0.000 NA
ATOM     38  H   UNL     1       2.440   0.712  19.451  0.00  0.00    +0.000 HD
ATOM     39  H   UNL     1       3.859   1.144  18.771  0.00  0.00    +0.000 HD
ENDBRANCH  35  37
ENDBRANCH  30  32
ENDBRANCH   6  30
TORSDOF 10
ENDMDL
MODEL 2
REMARK VINA RESULT:      -8.1      0.931      1.145
REMARK  Name = 
REMARK  12 active torsions:
REMARK  status: ('A' for Active; 'I' for Inactive)
REMARK    1  A    between atoms: C_1  and  C_2
REMARK    2  A    between atoms: C_2  and  C_3
REMARK    3  A    between atoms: C_2  and  O_4
REMARK    4  A    between atoms: C_2  and  C_5
REMARK    5  A    between atoms: C_5  and  C_7
REMARK    6  A    between atoms: C_7  and  N_8
REMARK    7  A    between atoms: C_9  and  C_11
REMARK    8  A    between atoms: C_14  and  N_15
REMARK    9  A    between atoms: C_20  and  C_21
REMARK   10  A    between atoms: C_27  and  N_28
REMARK   11  A    between atoms: N_28  and  C_29
REMARK   12  A    between atoms: C_32  and  N_33
REMARK                            x       y       z     vdW  Elec       q    Type
REMARK                         _______ _______ _______ _____ _____    ______ ____
ROOT
ATOM      1  C   UNL     1       2.562   7.152  18.815  0.00  0.00    +0.000 A 
ATOM      2  C   UNL     1       2.002   8.381  18.500  0.00  0.00    +0.000 A 
ATOM      3  N   UNL     1       1.235   9.123  19.346  0.00  0.00    +0.000 NA
ATOM      4  C   UNL     1       0.966   8.628  20.583  0.00  0.00    +0.000 A 
ATOM      5  C   UNL     1       1.340   7.350  20.924  0.00  0.00    +0.000 A 
ATOM      6  C   UNL     1       2.198   6.608  20.067  0.00  0.00    +0.000 A 
ENDROOT
BRANCH   4   7
ATOM      7  N   UNL     1       0.441   9.556  21.545  0.00  0.00    +0.000 N 
ATOM      8  C   UNL     1      -0.214   9.086  22.678  0.00  0.00    +0.000 A 
ATOM      9  C   UNL     1      -0.569  10.156  23.457  0.00  0.00    +0.000 A 
ATOM     10  C   UNL     1      -0.796  11.148  22.484  0.00  0.00    +0.000 A 
ATOM     11  C   UNL     1      -1.750  12.163  22.316  0.00  0.00    +0.000 A 
ATOM     12  C   UNL     1      -1.530  13.082  21.294  0.00  0.00    +0.000 A 
ATOM     13  C   UNL     1      -0.360  12.948  20.552  0.00  0.00    +0.000 A 
ATOM     14  N   UNL     1       0.484  11.865  20.541  0.00  0.00    +0.000 NA
ATOM     15  C   UNL     1       0.156  10.938  21.477  0.00  0.00    +0.000 A 
BRANCH  12  16
ATOM     16  C   UNL     1      -2.503  14.095  21.001  0.00  0.00    +0.000 C 
ATOM     17  N   UNL     1      -3.312  14.900  20.720  0.00  0.00    +0.000 NA
ENDBRANCH  12  16
ENDBRANCH   4   7
BRANCH   1  19
ATOM     18  N   UNL     1       4.531   7.317  17.303  0.00  0.00    +0.000 N 
ATOM     19  C   UNL     1       3.480   6.533  17.781  0.00  0.00    +0.000 C 
ATOM     20  O   UNL     1       3.290   5.398  17.401  0.00  0.00    +0.000 OA
ATOM     21  H   UNL     1       4.525   8.305  17.546  0.00  0.00    +0.000 HD
BRANCH  18  22
ATOM     22  C   UNL     1       5.600   6.834  16.401  0.00  0.00    +0.000 C 
BRANCH  22  23
ATOM     23  C   UNL     1       7.005   6.730  17.041  0.00  0.00    +0.000 C 
ATOM     24  F   UNL     1       7.240   7.928  17.677  0.00  0.00    +0.000 F 
BRANCH  23  26
ATOM     25  C   UNL     1       8.144   6.101  19.233  0.00  0.00    +0.000 C 
ATOM     26  C   UNL     1       7.228   5.592  18.103  0.00  0.00    +0.000 C 
ATOM     27  C   UNL     1       7.851   4.318  17.520  0.00  0.00    +0.000 C 
BRANCH  26  28
ATOM     28  O   UNL     1       5.974   5.210  18.695  0.00  0.00    +0.000 OA
ATOM     29  H   UNL     1       5.370   5.975  18.673  0.00  0.00    +0.000 HD
ENDBRANCH  26  28
ENDBRANCH  23  26
ENDBRANCH  22  23
ENDBRANCH  18  22
ENDBRANCH   1  19
BRANCH   6  30
ATOM     30  N   UNL     1       2.785   5.419  20.506  0.00  0.00    +0.000 N 
ATOM     31  H   UNL     1       3.587   5.159  19.929  0.00  0.00    +0.000 HD
BRANCH  30  32
ATOM     32  C   UNL     1       2.020   4.284  21.028  0.00  0.00    +0.000 C 
ATOM     33  C   UNL     1       0.793   4.103  20.130  0.00  0.00    +0.000 C 
ATOM     34  C   UNL     1       1.294   3.297  18.919  0.00  0.00    +0.000 C 
ATOM     35  C   UNL     1       2.666   2.743  19.318  0.00  0.00    +0.000 C 
ATOM     36  C   UNL     1       2.714   2.927  20.827  0.00  0.00    +0.000 C 
BRANCH  35  37
ATOM     37  N   UNL     1       2.897   1.369  18.898  0.00  0.00    +0.000 NA
ATOM     38  H   UNL     1       2.019   0.915  18.659  0.00  0.00    +0.000 HD
ATOM     39  H   UNL     1       3.294   0.837  19.674  0.00  0.00    +0.000 HD
ENDBRANCH  35  37
ENDBRANCH  30  32
ENDBRANCH   6  30
TORSDOF 10
ENDMDL
MODEL 3
REMARK VINA RESULT:      -8.0      3.161      4.880
REMARK  Name = 
REMARK  12 active torsions:
REMARK  status: ('A' for Active; 'I' for Inactive)
REMARK    1  A    between atoms: C_1  and  C_2
REMARK    2  A    between atoms: C_2  and  C_3
REMARK    3  A    between atoms: C_2  and  O_4
REMARK    4  A    between atoms: C_2  and  C_5
REMARK    5  A    between atoms: C_5  and  C_7
REMARK    6  A    between atoms: C_7  and  N_8
REMARK    7  A    between atoms: C_9  and  C_11
REMARK    8  A    between atoms: C_14  and  N_15
REMARK    9  A    between atoms: C_20  and  C_21
REMARK   10  A    between atoms: C_27  and  N_28
REMARK   11  A    between atoms: N_28  and  C_29
REMARK   12  A    between atoms: C_32  and  N_33
REMARK                            x       y       z     vdW  Elec       q    Type
REMARK                         _______ _______ _______ _____ _____    ______ ____
ROOT
ATOM      1  C   UNL     1       2.359   6.919  19.650  0.00  0.00    +0.000 A 
ATOM      2  C   UNL     1       1.573   7.666  20.514  0.00  0.00    +0.000 A 
ATOM      3  N   UNL     1       1.020   8.872  20.213  0.00  0.00    +0.000 NA
ATOM      4  C   UNL     1       1.265   9.413  18.990  0.00  0.00    +0.000 A 
ATOM      5  C   UNL     1       2.162   8.825  18.130  0.00  0.00    +0.000 A 
ATOM      6  C   UNL     1       2.682   7.534  18.420  0.00  0.00    +0.000 A 
ENDROOT
BRANCH   4   7
ATOM      7  N   UNL     1       0.422  10.504  18.589  0.00  0.00    +0.000 N 
ATOM      8  C   UNL     1       0.617  11.769  19.133  0.00  0.00    +0.000 A 
ATOM      9  C   UNL     1      -0.270  12.639  18.554  0.00  0.00    +0.000 A 
ATOM     10  C   UNL     1      -1.368  11.793  18.304  0.00  0.00    +0.000 A 
ATOM     11  C   UNL     1      -2.761  11.930  18.408  0.00  0.00    +0.000 A 
ATOM     12  C   UNL     1      -3.542  10.906  17.881  0.00  0.00    +0.000 A 
ATOM     13  C   UNL     1      -2.883   9.854  17.252  0.00  0.00    +0.000 A 
ATOM     14  N   UNL     1      -1.539   9.577  17.311  0.00  0.00    +0.000 NA
ATOM     15  C   UNL     1      -0.833  10.549  17.942  0.00  0.00    +0.000 A 
BRANCH  12  16
ATOM     16  C   UNL     1      -4.969  10.928  18.027  0.00  0.00    +0.000 C 
ATOM     17  N   UNL     1      -6.136  10.907  18.176  0.00  0.00    +0.000 NA
ENDBRANCH  12  16
ENDBRANCH   4   7
BRANCH   1  19
ATOM     18  N   UNL     1       1.793   4.685  20.588  0.00  0.00    +0.000 N 
ATOM     19  C   UNL     1       2.789   5.548  20.128  0.00  0.00    +0.000 C 
ATOM     20  O   UNL     1       3.959   5.233  20.099  0.00  0.00    +0.000 OA
ATOM     21  H   UNL     1       0.865   5.078  20.733  0.00  0.00    +0.000 HD
BRANCH  18  22
ATOM     22  C   UNL     1       2.010   3.270  20.960  0.00  0.00    +0.000 C 
BRANCH  22  23
ATOM     23  C   UNL     1       1.891   2.257  19.796  0.00  0.00    +0.000 C 
ATOM     24  F   UNL     1       0.960   2.767  18.920  0.00  0.00    +0.000 F 
BRANCH  23  26
ATOM     25  C   UNL     1       4.440   2.242  19.828  0.00  0.00    +0.000 C 
ATOM     26  C   UNL     1       3.194   1.963  18.966  0.00  0.00    +0.000 C 
ATOM     27  C   UNL     1       3.308   2.792  17.681  0.00  0.00    +0.000 C 
BRANCH  26  28
ATOM     28  O   UNL     1       3.234   0.580  18.574  0.00  0.00    +0.000 OA
ATOM     29  H   UNL     1       3.713   0.506  17.728  0.00  0.00    +0.000 HD
ENDBRANCH  26  28
ENDBRANCH  23  26
ENDBRANCH  22  23
ENDBRANCH  18  22
ENDBRANCH   1  19
BRANCH   6  30
ATOM     30  N   UNL     1       3.392   6.820  17.451  0.00  0.00    +0.000 N 
ATOM     31  H   UNL     1       3.323   5.812  17.599  0.00  0.00    +0.000 HD
BRANCH  30  32
ATOM     32  C   UNL     1       4.672   7.265  16.895  0.00  0.00    +0.000 C 
ATOM     33  C   UNL     1       5.784   6.638  17.741  0.00  0.00    +0.000 C 
ATOM     34  C   UNL     1       5.960   5.215  17.185  0.00  0.00    +0.000 C 
ATOM     35  C   UNL     1       5.220   5.190  15.843  0.00  0.00    +0.000 C 
ATOM     36  C   UNL     1       4.993   6.658  15.520  0.00  0.00    +0.000 C 
BRANCH  35  37
ATOM     37  N   UNL     1       5.922   4.470  14.791  0.00  0.00    +0.000 NA
ATOM     38  H   UNL     1       6.772   4.962  14.526  0.00  0.00    +0.000 HD
ATOM     39  H   UNL     1       5.338   4.433  13.955  0.00  0.00    +0.000 HD
ENDBRANCH  35  37
ENDBRANCH  30  32
ENDBRANCH   6  30
TORSDOF 10
ENDMDL
MODEL 4
REMARK VINA RESULT:      -8.0      1.136      1.277
REMARK  Name = 
REMARK  12 active torsions:
REMARK  status: ('A' for Active; 'I' for Inactive)
REMARK    1  A    between atoms: C_1  and  C_2
REMARK    2  A    between atoms: C_2  and  C_3
REMARK    3  A    between atoms: C_2  and  O_4
REMARK    4  A    between atoms: C_2  and  C_5
REMARK    5  A    between atoms: C_5  and  C_7
REMARK    6  A    between atoms: C_7  and  N_8
REMARK    7  A    between atoms: C_9  and  C_11
REMARK    8  A    between atoms: C_14  and  N_15
REMARK    9  A    between atoms: C_20  and  C_21
REMARK   10  A    between atoms: C_27  and  N_28
REMARK   11  A    between atoms: N_28  and  C_29
REMARK   12  A    between atoms: C_32  and  N_33
REMARK                            x       y       z     vdW  Elec       q    Type
REMARK                         _______ _______ _______ _____ _____    ______ ____
ROOT
ATOM      1  C   UNL     1       2.664   7.079  18.913  0.00  0.00    +0.000 A 
ATOM      2  C   UNL     1       2.122   8.310  18.577  0.00  0.00    +0.000 A 
ATOM      3  N   UNL     1       1.329   9.057  19.394  0.00  0.00    +0.000 NA
ATOM      4  C   UNL     1       1.014   8.566  20.621  0.00  0.00    +0.000 A 
ATOM      5  C   UNL     1       1.370   7.286  20.978  0.00  0.00    +0.000 A 
ATOM      6  C   UNL     1       2.253   6.539  20.153  0.00  0.00    +0.000 A 
ENDROOT
BRANCH   4   7
ATOM      7  N   UNL     1       0.461   9.498  21.563  0.00  0.00    +0.000 N 
ATOM      8  C   UNL     1      -0.549   9.093  22.430  0.00  0.00    +0.000 A 
ATOM      9  C   UNL     1      -0.864  10.140  23.257  0.00  0.00    +0.000 A 
ATOM     10  C   UNL     1      -0.622  11.243  22.416  0.00  0.00    +0.000 A 
ATOM     11  C   UNL     1      -1.269  12.467  22.186  0.00  0.00    +0.000 A 
ATOM     12  C   UNL     1      -0.606  13.398  21.392  0.00  0.00    +0.000 A 
ATOM     13  C   UNL     1       0.662  13.061  20.929  0.00  0.00    +0.000 A 
ATOM     14  N   UNL     1       1.238  11.814  20.953  0.00  0.00    +0.000 NA
ATOM     15  C   UNL     1       0.494  10.908  21.638  0.00  0.00    +0.000 A 
BRANCH  12  16
ATOM     16  C   UNL     1      -1.239  14.635  21.035  0.00  0.00    +0.000 C 
ATOM     17  N   UNL     1      -1.796  15.637  20.770  0.00  0.00    +0.000 NA
ENDBRANCH  12  16
ENDBRANCH   4   7
BRANCH   1  19
ATOM     18  N   UNL     1       4.730   7.200  17.532  0.00  0.00    +0.000 N 
ATOM     19  C   UNL     1       3.614   6.453  17.913  0.00  0.00    +0.000 C 
ATOM     20  O   UNL     1       3.395   5.344  17.477  0.00  0.00    +0.000 OA
ATOM     21  H   UNL     1       4.756   8.178  17.814  0.00  0.00    +0.000 HD
BRANCH  18  22
ATOM     22  C   UNL     1       5.829   6.698  16.678  0.00  0.00    +0.000 C 
BRANCH  22  23
ATOM     23  C   UNL     1       5.384   5.852  15.462  0.00  0.00    +0.000 C 
ATOM     24  F   UNL     1       5.046   6.739  14.464  0.00  0.00    +0.000 F 
BRANCH  23  26
ATOM     25  C   UNL     1       5.787   4.019  13.737  0.00  0.00    +0.000 C 
ATOM     26  C   UNL     1       6.439   4.855  14.856  0.00  0.00    +0.000 C 
ATOM     27  C   UNL     1       7.037   3.889  15.886  0.00  0.00    +0.000 C 
BRANCH  26  28
ATOM     28  O   UNL     1       7.536   5.581  14.278  0.00  0.00    +0.000 OA
ATOM     29  H   UNL     1       8.298   4.979  14.186  0.00  0.00    +0.000 HD
ENDBRANCH  26  28
ENDBRANCH  23  26
ENDBRANCH  22  23
ENDBRANCH  18  22
ENDBRANCH   1  19
BRANCH   6  30
ATOM     30  N   UNL     1       2.819   5.348  20.614  0.00  0.00    +0.000 N 
ATOM     31  H   UNL     1       3.643   5.086  20.070  0.00  0.00    +0.000 HD
BRANCH  30  32
ATOM     32  C   UNL     1       2.031   4.214  21.103  0.00  0.00    +0.000 C 
ATOM     33  C   UNL     1       0.793   4.095  20.210  0.00  0.00    +0.000 C 
ATOM     34  C   UNL     1       1.264   3.319  18.968  0.00  0.00    +0.000 C 
ATOM     35  C   UNL     1       2.625   2.718  19.336  0.00  0.00    +0.000 C 
ATOM     36  C   UNL     1       2.689   2.849  20.850  0.00  0.00    +0.000 C 
BRANCH  35  37
ATOM     37  N   UNL     1       2.819   1.355  18.867  0.00  0.00    +0.000 NA
ATOM     38  H   UNL     1       2.051   0.759  19.169  0.00  0.00    +0.000 HD
ATOM     39  H   UNL     1       3.666   0.967  19.285  0.00  0.00    +0.000 HD
ENDBRANCH  35  37
ENDBRANCH  30  32
ENDBRANCH   6  30
TORSDOF 10
ENDMDL
MODEL 5
REMARK VINA RESULT:      -7.9      1.079      1.381
REMARK  Name = 
REMARK  12 active torsions:
REMARK  status: ('A' for Active; 'I' for Inactive)
REMARK    1  A    between atoms: C_1  and  C_2
REMARK    2  A    between atoms: C_2  and  C_3
REMARK    3  A    between atoms: C_2  and  O_4
REMARK    4  A    between atoms: C_2  and  C_5
REMARK    5  A    between atoms: C_5  and  C_7
REMARK    6  A    between atoms: C_7  and  N_8
REMARK    7  A    between atoms: C_9  and  C_11
REMARK    8  A    between atoms: C_14  and  N_15
REMARK    9  A    between atoms: C_20  and  C_21
REMARK   10  A    between atoms: C_27  and  N_28
REMARK   11  A    between atoms: N_28  and  C_29
REMARK   12  A    between atoms: C_32  and  N_33
REMARK                            x       y       z     vdW  Elec       q    Type
REMARK                         _______ _______ _______ _____ _____    ______ ____
ROOT
ATOM      1  C   UNL     1       2.692   6.683  19.216  0.00  0.00    +0.000 A 
ATOM      2  C   UNL     1       2.275   7.931  18.780  0.00  0.00    +0.000 A 
ATOM      3  N   UNL     1       1.496   8.784  19.501  0.00  0.00    +0.000 NA
ATOM      4  C   UNL     1       1.064   8.390  20.728  0.00  0.00    +0.000 A 
ATOM      5  C   UNL     1       1.289   7.109  21.174  0.00  0.00    +0.000 A 
ATOM      6  C   UNL     1       2.159   6.249  20.451  0.00  0.00    +0.000 A 
ENDROOT
BRANCH   4   7
ATOM      7  N   UNL     1       0.529   9.415  21.580  0.00  0.00    +0.000 N 
ATOM      8  C   UNL     1      -0.502   9.116  22.465  0.00  0.00    +0.000 A 
ATOM      9  C   UNL     1      -0.793  10.239  23.196  0.00  0.00    +0.000 A 
ATOM     10  C   UNL     1      -0.507  11.259  22.268  0.00  0.00    +0.000 A 
ATOM     11  C   UNL     1      -1.113  12.478  21.926  0.00  0.00    +0.000 A 
ATOM     12  C   UNL     1      -0.413  13.317  21.065  0.00  0.00    +0.000 A 
ATOM     13  C   UNL     1       0.849  12.903  20.650  0.00  0.00    +0.000 A 
ATOM     14  N   UNL     1       1.386  11.646  20.787  0.00  0.00    +0.000 NA
ATOM     15  C   UNL     1       0.606  10.825  21.536  0.00  0.00    +0.000 A 
BRANCH  12  16
ATOM     16  C   UNL     1      -1.003  14.538  20.597  0.00  0.00    +0.000 C 
ATOM     17  N   UNL     1      -1.455  15.564  20.241  0.00  0.00    +0.000 NA
ENDBRANCH  12  16
ENDBRANCH   4   7
BRANCH   1  19
ATOM     18  N   UNL     1       4.854   5.501  18.877  0.00  0.00    +0.000 N 
ATOM     19  C   UNL     1       3.649   5.928  18.317  0.00  0.00    +0.000 C 
ATOM     20  O   UNL     1       3.357   5.713  17.161  0.00  0.00    +0.000 OA
ATOM     21  H   UNL     1       5.095   5.860  19.798  0.00  0.00    +0.000 HD
BRANCH  18  22
ATOM     22  C   UNL     1       5.842   4.638  18.192  0.00  0.00    +0.000 C 
BRANCH  22  23
ATOM     23  C   UNL     1       6.717   5.350  17.134  0.00  0.00    +0.000 C 
ATOM     24  F   UNL     1       7.988   4.835  17.259  0.00  0.00    +0.000 F 
BRANCH  23  26
ATOM     25  C   UNL     1       5.518   3.869  15.441  0.00  0.00    +0.000 C 
ATOM     26  C   UNL     1       6.298   5.185  15.627  0.00  0.00    +0.000 C 
ATOM     27  C   UNL     1       7.483   5.179  14.654  0.00  0.00    +0.000 C 
BRANCH  26  28
ATOM     28  O   UNL     1       5.436   6.264  15.228  0.00  0.00    +0.000 OA
ATOM     29  H   UNL     1       5.801   6.677  14.424  0.00  0.00    +0.000 HD
ENDBRANCH  26  28
ENDBRANCH  23  26
ENDBRANCH  22  23
ENDBRANCH  18  22
ENDBRANCH   1  19
BRANCH   6  30
ATOM     30  N   UNL     1       2.594   5.045  21.011  0.00  0.00    +0.000 N 
ATOM     31  H   UNL     1       3.549   4.820  20.727  0.00  0.00    +0.000 HD
BRANCH  30  32
ATOM     32  C   UNL     1       1.727   3.879  21.196  0.00  0.00    +0.000 C 
ATOM     33  C   UNL     1       0.680   3.902  20.079  0.00  0.00    +0.000 C 
ATOM     34  C   UNL     1       1.377   3.274  18.860  0.00  0.00    +0.000 C 
ATOM     35  C   UNL     1       2.644   2.599  19.397  0.00  0.00    +0.000 C 
ATOM     36  C   UNL     1       2.420   2.540  20.900  0.00  0.00    +0.000 C 
BRANCH  35  37
ATOM     37  N   UNL     1       2.921   1.300  18.804  0.00  0.00    +0.000 NA
ATOM     38  H   UNL     1       3.795   0.922  19.162  0.00  0.00    +0.000 HD
ATOM     39  H   UNL     1       3.046   1.405  17.796  0.00  0.00    +0.000 HD
ENDBRANCH  35  37
ENDBRANCH  30  32
ENDBRANCH   6  30
TORSDOF 10
ENDMDL
MODEL 6
REMARK VINA RESULT:      -7.8      2.748      3.706
REMARK  Name = 
REMARK  12 active torsions:
REMARK  status: ('A' for Active; 'I' for Inactive)
REMARK    1  A    between atoms: C_1  and  C_2
REMARK    2  A    between atoms: C_2  and  C_3
REMARK    3  A    between atoms: C_2  and  O_4
REMARK    4  A    between atoms: C_2  and  C_5
REMARK    5  A    between atoms: C_5  and  C_7
REMARK    6  A    between atoms: C_7  and  N_8
REMARK    7  A    between atoms: C_9  and  C_11
REMARK    8  A    between atoms: C_14  and  N_15
REMARK    9  A    between atoms: C_20  and  C_21
REMARK   10  A    between atoms: C_27  and  N_28
REMARK   11  A    between atoms: N_28  and  C_29
REMARK   12  A    between atoms: C_32  and  N_33
REMARK                            x       y       z     vdW  Elec       q    Type
REMARK                         _______ _______ _______ _____ _____    ______ ____
ROOT
ATOM      1  C   UNL     1       4.741   5.764  17.221  0.00  0.00    +0.000 A 
ATOM      2  C   UNL     1       4.418   7.087  16.962  0.00  0.00    +0.000 A 
ATOM      3  N   UNL     1       3.485   7.805  17.645  0.00  0.00    +0.000 NA
ATOM      4  C   UNL     1       2.790   7.192  18.639  0.00  0.00    +0.000 A 
ATOM      5  C   UNL     1       2.925   5.840  18.858  0.00  0.00    +0.000 A 
ATOM      6  C   UNL     1       3.947   5.112  18.192  0.00  0.00    +0.000 A 
ENDROOT
BRANCH   4   7
ATOM      7  N   UNL     1       2.064   8.045  19.537  0.00  0.00    +0.000 N 
ATOM      8  C   UNL     1       1.665   7.567  20.780  0.00  0.00    +0.000 A 
ATOM      9  C   UNL     1       1.043   8.580  21.462  0.00  0.00    +0.000 A 
ATOM     10  C   UNL     1       0.452   9.304  20.409  0.00  0.00    +0.000 A 
ATOM     11  C   UNL     1      -0.782   9.947  20.227  0.00  0.00    +0.000 A 
ATOM     12  C   UNL     1      -0.929  10.731  19.087  0.00  0.00    +0.000 A 
ATOM     13  C   UNL     1       0.172  10.853  18.244  0.00  0.00    +0.000 A 
ATOM     14  N   UNL     1       1.312  10.088  18.271  0.00  0.00    +0.000 NA
ATOM     15  C   UNL     1       1.354   9.250  19.338  0.00  0.00    +0.000 A 
BRANCH  12  16
ATOM     16  C   UNL     1      -2.189  11.348  18.782  0.00  0.00    +0.000 C 
ATOM     17  N   UNL     1      -3.235  11.845  18.579  0.00  0.00    +0.000 NA
ENDBRANCH  12  16
ENDBRANCH   4   7
BRANCH   1  19
ATOM     18  N   UNL     1       6.020   5.566  15.096  0.00  0.00    +0.000 N 
ATOM     19  C   UNL     1       5.887   5.171  16.428  0.00  0.00    +0.000 C 
ATOM     20  O   UNL     1       6.648   4.387  16.953  0.00  0.00    +0.000 OA
ATOM     21  H   UNL     1       5.252   6.094  14.687  0.00  0.00    +0.000 HD
BRANCH  18  22
ATOM     22  C   UNL     1       7.152   5.199  14.217  0.00  0.00    +0.000 C 
BRANCH  22  23
ATOM     23  C   UNL     1       6.768   4.859  12.758  0.00  0.00    +0.000 C 
ATOM     24  F   UNL     1       7.934   4.880  12.026  0.00  0.00    +0.000 F 
BRANCH  23  26
ATOM     25  C   UNL     1       6.998   2.590  11.617  0.00  0.00    +0.000 C 
ATOM     26  C   UNL     1       6.087   3.464  12.501  0.00  0.00    +0.000 C 
ATOM     27  C   UNL     1       4.715   3.563  11.822  0.00  0.00    +0.000 C 
BRANCH  26  28
ATOM     28  O   UNL     1       5.888   2.771  13.745  0.00  0.00    +0.000 OA
ATOM     29  H   UNL     1       5.648   3.420  14.432  0.00  0.00    +0.000 HD
ENDBRANCH  26  28
ENDBRANCH  23  26
ENDBRANCH  22  23
ENDBRANCH  18  22
ENDBRANCH   1  19
BRANCH   6  30
ATOM     30  N   UNL     1       4.260   3.807  18.583  0.00  0.00    +0.000 N 
ATOM     31  H   UNL     1       5.208   3.742  18.956  0.00  0.00    +0.000 HD
BRANCH  30  32
ATOM     32  C   UNL     1       3.811   2.617  17.857  0.00  0.00    +0.000 C 
ATOM     33  C   UNL     1       3.720   1.469  18.866  0.00  0.00    +0.000 C 
ATOM     34  C   UNL     1       2.356   1.645  19.556  0.00  0.00    +0.000 C 
ATOM     35  C   UNL     1       1.573   2.643  18.697  0.00  0.00    +0.000 C 
ATOM     36  C   UNL     1       2.349   2.693  17.390  0.00  0.00    +0.000 C 
BRANCH  35  37
ATOM     37  N   UNL     1       0.170   2.302  18.521  0.00  0.00    +0.000 NA
ATOM     38  H   UNL     1      -0.427   3.021  18.922  0.00  0.00    +0.000 HD
ATOM     39  H   UNL     1      -0.038   1.440  19.028  0.00  0.00    +0.000 HD
ENDBRANCH  35  37
ENDBRANCH  30  32
ENDBRANCH   6  30
TORSDOF 10
ENDMDL
MODEL 7
REMARK VINA RESULT:      -7.7      1.299      1.570
REMARK  Name = 
REMARK  12 active torsions:
REMARK  status: ('A' for Active; 'I' for Inactive)
REMARK    1  A    between atoms: C_1  and  C_2
REMARK    2  A    between atoms: C_2  and  C_3
REMARK    3  A    between atoms: C_2  and  O_4
REMARK    4  A    between atoms: C_2  and  C_5
REMARK    5  A    between atoms: C_5  and  C_7
REMARK    6  A    between atoms: C_7  and  N_8
REMARK    7  A    between atoms: C_9  and  C_11
REMARK    8  A    between atoms: C_14  and  N_15
REMARK    9  A    between atoms: C_20  and  C_21
REMARK   10  A    between atoms: C_27  and  N_28
REMARK   11  A    between atoms: N_28  and  C_29
REMARK   12  A    between atoms: C_32  and  N_33
REMARK                            x       y       z     vdW  Elec       q    Type
REMARK                         _______ _______ _______ _____ _____    ______ ____
ROOT
ATOM      1  C   UNL     1       2.655   6.625  19.251  0.00  0.00    +0.000 A 
ATOM      2  C   UNL     1       2.268   7.876  18.797  0.00  0.00    +0.000 A 
ATOM      3  N   UNL     1       1.479   8.742  19.489  0.00  0.00    +0.000 NA
ATOM      4  C   UNL     1       1.003   8.361  20.704  0.00  0.00    +0.000 A 
ATOM      5  C   UNL     1       1.198   7.079  21.163  0.00  0.00    +0.000 A 
ATOM      6  C   UNL     1       2.079   6.204  20.471  0.00  0.00    +0.000 A 
ENDROOT
BRANCH   4   7
ATOM      7  N   UNL     1       0.455   9.397  21.534  0.00  0.00    +0.000 N 
ATOM      8  C   UNL     1       0.051   9.107  22.832  0.00  0.00    +0.000 A 
ATOM      9  C   UNL     1      -0.379  10.264  23.428  0.00  0.00    +0.000 A 
ATOM     10  C   UNL     1      -0.907  10.965  22.327  0.00  0.00    +0.000 A 
ATOM     11  C   UNL     1      -2.040  11.768  22.121  0.00  0.00    +0.000 A 
ATOM     12  C   UNL     1      -2.124  12.453  20.913  0.00  0.00    +0.000 A 
ATOM     13  C   UNL     1      -1.060  12.324  20.026  0.00  0.00    +0.000 A 
ATOM     14  N   UNL     1      -0.046  11.400  20.092  0.00  0.00    +0.000 NA
ATOM     15  C   UNL     1      -0.077  10.672  21.237  0.00  0.00    +0.000 A 
BRANCH  12  16
ATOM     16  C   UNL     1      -3.292  13.222  20.590  0.00  0.00    +0.000 C 
ATOM     17  N   UNL     1      -4.256  13.859  20.372  0.00  0.00    +0.000 NA
ENDBRANCH  12  16
ENDBRANCH   4   7
BRANCH   1  19
ATOM     18  N   UNL     1       4.861   5.515  18.951  0.00  0.00    +0.000 N 
ATOM     19  C   UNL     1       3.631   5.854  18.387  0.00  0.00    +0.000 C 
ATOM     20  O   UNL     1       3.330   5.551  17.252  0.00  0.00    +0.000 OA
ATOM     21  H   UNL     1       5.100   5.943  19.843  0.00  0.00    +0.000 HD
BRANCH  18  22
ATOM     22  C   UNL     1       5.874   4.650  18.307  0.00  0.00    +0.000 C 
BRANCH  22  23
ATOM     23  C   UNL     1       6.820   5.370  17.317  0.00  0.00    +0.000 C 
ATOM     24  F   UNL     1       8.090   4.903  17.572  0.00  0.00    +0.000 F 
BRANCH  23  26
ATOM     25  C   UNL     1       5.525   6.196  15.283  0.00  0.00    +0.000 C 
ATOM     26  C   UNL     1       6.549   5.158  15.782  0.00  0.00    +0.000 C 
ATOM     27  C   UNL     1       6.021   3.761  15.435  0.00  0.00    +0.000 C 
BRANCH  26  28
ATOM     28  O   UNL     1       7.762   5.344  15.032  0.00  0.00    +0.000 OA
ATOM     29  H   UNL     1       7.552   5.305  14.080  0.00  0.00    +0.000 HD
ENDBRANCH  26  28
ENDBRANCH  23  26
ENDBRANCH  22  23
ENDBRANCH  18  22
ENDBRANCH   1  19
BRANCH   6  30
ATOM     30  N   UNL     1       2.481   4.998  21.050  0.00  0.00    +0.000 N 
ATOM     31  H   UNL     1       3.449   4.771  20.817  0.00  0.00    +0.000 HD
BRANCH  30  32
ATOM     32  C   UNL     1       1.602   3.834  21.187  0.00  0.00    +0.000 C 
ATOM     33  C   UNL     1       0.610   3.867  20.021  0.00  0.00    +0.000 C 
ATOM     34  C   UNL     1       1.362   3.243  18.833  0.00  0.00    +0.000 C 
ATOM     35  C   UNL     1       2.599   2.561  19.427  0.00  0.00    +0.000 C 
ATOM     36  C   UNL     1       2.304   2.494  20.917  0.00  0.00    +0.000 C 
BRANCH  35  37
ATOM     37  N   UNL     1       2.901   1.265  18.840  0.00  0.00    +0.000 NA
ATOM     38  H   UNL     1       3.625   0.789  19.374  0.00  0.00    +0.000 HD
ATOM     39  H   UNL     1       3.277   1.394  17.900  0.00  0.00    +0.000 HD
ENDBRANCH  35  37
ENDBRANCH  30  32
ENDBRANCH   6  30
TORSDOF 10
ENDMDL
MODEL 8
REMARK VINA RESULT:      -7.7      1.003      1.314
REMARK  Name = 
REMARK  12 active torsions:
REMARK  status: ('A' for Active; 'I' for Inactive)
REMARK    1  A    between atoms: C_1  and  C_2
REMARK    2  A    between atoms: C_2  and  C_3
REMARK    3  A    between atoms: C_2  and  O_4
REMARK    4  A    between atoms: C_2  and  C_5
REMARK    5  A    between atoms: C_5  and  C_7
REMARK    6  A    between atoms: C_7  and  N_8
REMARK    7  A    between atoms: C_9  and  C_11
REMARK    8  A    between atoms: C_14  and  N_15
REMARK    9  A    between atoms: C_20  and  C_21
REMARK   10  A    between atoms: C_27  and  N_28
REMARK   11  A    between atoms: N_28  and  C_29
REMARK   12  A    between atoms: C_32  and  N_33
REMARK                            x       y       z     vdW  Elec       q    Type
REMARK                         _______ _______ _______ _____ _____    ______ ____
ROOT
ATOM      1  C   UNL     1       2.865   7.269  18.557  0.00  0.00    +0.000 A 
ATOM      2  C   UNL     1       2.412   8.558  18.328  0.00  0.00    +0.000 A 
ATOM      3  N   UNL     1       1.614   9.262  19.178  0.00  0.00    +0.000 NA
ATOM      4  C   UNL     1       1.200   8.665  20.327  0.00  0.00    +0.000 A 
ATOM      5  C   UNL     1       1.463   7.336  20.561  0.00  0.00    +0.000 A 
ATOM      6  C   UNL     1       2.352   6.627  19.707  0.00  0.00    +0.000 A 
ENDROOT
BRANCH   4   7
ATOM      7  N   UNL     1       0.643   9.525  21.333  0.00  0.00    +0.000 N 
ATOM      8  C   UNL     1      -0.041   8.978  22.414  0.00  0.00    +0.000 A 
ATOM      9  C   UNL     1      -0.423   9.993  23.252  0.00  0.00    +0.000 A 
ATOM     10  C   UNL     1      -0.630  11.045  22.340  0.00  0.00    +0.000 A 
ATOM     11  C   UNL     1      -1.585  12.066  22.213  0.00  0.00    +0.000 A 
ATOM     12  C   UNL     1      -1.342  13.051  21.260  0.00  0.00    +0.000 A 
ATOM     13  C   UNL     1      -0.152  12.971  20.544  0.00  0.00    +0.000 A 
ATOM     14  N   UNL     1       0.699  11.895  20.485  0.00  0.00    +0.000 NA
ATOM     15  C   UNL     1       0.351  10.907  21.348  0.00  0.00    +0.000 A 
BRANCH  12  16
ATOM     16  C   UNL     1      -2.313  14.077  21.007  0.00  0.00    +0.000 C 
ATOM     17  N   UNL     1      -3.143  14.888  20.817  0.00  0.00    +0.000 NA
ENDBRANCH  12  16
ENDBRANCH   4   7
BRANCH   1  19
ATOM     18  N   UNL     1       5.007   7.415  17.302  0.00  0.00    +0.000 N 
ATOM     19  C   UNL     1       3.837   6.696  17.547  0.00  0.00    +0.000 C 
ATOM     20  O   UNL     1       3.589   5.649  16.990  0.00  0.00    +0.000 OA
ATOM     21  H   UNL     1       5.065   8.357  17.683  0.00  0.00    +0.000 HD
BRANCH  18  22
ATOM     22  C   UNL     1       6.126   6.942  16.457  0.00  0.00    +0.000 C 
BRANCH  22  23
ATOM     23  C   UNL     1       7.270   6.230  17.218  0.00  0.00    +0.000 C 
ATOM     24  F   UNL     1       7.410   6.880  18.423  0.00  0.00    +0.000 F 
BRANCH  23  26
ATOM     25  C   UNL     1       6.349   4.009  16.368  0.00  0.00    +0.000 C 
ATOM     26  C   UNL     1       7.077   4.701  17.538  0.00  0.00    +0.000 C 
ATOM     27  C   UNL     1       6.279   4.435  18.820  0.00  0.00    +0.000 C 
BRANCH  26  28
ATOM     28  O   UNL     1       8.354   4.061  17.699  0.00  0.00    +0.000 OA
ATOM     29  H   UNL     1       8.984   4.453  17.067  0.00  0.00    +0.000 HD
ENDBRANCH  26  28
ENDBRANCH  23  26
ENDBRANCH  22  23
ENDBRANCH  18  22
ENDBRANCH   1  19
BRANCH   6  30
ATOM     30  N   UNL     1       2.824   5.362  20.066  0.00  0.00    +0.000 N 
ATOM     31  H   UNL     1       3.840   5.351  20.161  0.00  0.00    +0.000 HD
BRANCH  30  32
ATOM     32  C   UNL     1       2.249   4.112  19.563  0.00  0.00    +0.000 C 
ATOM     33  C   UNL     1       3.275   3.002  19.805  0.00  0.00    +0.000 C 
ATOM     34  C   UNL     1       3.076   2.582  21.272  0.00  0.00    +0.000 C 
ATOM     35  C   UNL     1       1.739   3.191  21.709  0.00  0.00    +0.000 C 
ATOM     36  C   UNL     1       1.072   3.592  20.402  0.00  0.00    +0.000 C 
BRANCH  35  37
ATOM     37  N   UNL     1       0.923   2.307  22.526  0.00  0.00    +0.000 NA
ATOM     38  H   UNL     1       0.539   2.808  23.323  0.00  0.00    +0.000 HD
ATOM     39  H   UNL     1       1.506   1.561  22.908  0.00  0.00    +0.000 HD
ENDBRANCH  35  37
ENDBRANCH  30  32
ENDBRANCH   6  30
TORSDOF 10
ENDMDL
MODEL 9
REMARK VINA RESULT:      -7.7      2.701      3.439
REMARK  Name = 
REMARK  12 active torsions:
REMARK  status: ('A' for Active; 'I' for Inactive)
REMARK    1  A    between atoms: C_1  and  C_2
REMARK    2  A    between atoms: C_2  and  C_3
REMARK    3  A    between atoms: C_2  and  O_4
REMARK    4  A    between atoms: C_2  and  C_5
REMARK    5  A    between atoms: C_5  and  C_7
REMARK    6  A    between atoms: C_7  and  N_8
REMARK    7  A    between atoms: C_9  and  C_11
REMARK    8  A    between atoms: C_14  and  N_15
REMARK    9  A    between atoms: C_20  and  C_21
REMARK   10  A    between atoms: C_27  and  N_28
REMARK   11  A    between atoms: N_28  and  C_29
REMARK   12  A    between atoms: C_32  and  N_33
REMARK                            x       y       z     vdW  Elec       q    Type
REMARK                         _______ _______ _______ _____ _____    ______ ____
ROOT
ATOM      1  C   UNL     1       4.425   6.040  17.671  0.00  0.00    +0.000 A 
ATOM      2  C   UNL     1       3.894   7.220  17.173  0.00  0.00    +0.000 A 
ATOM      3  N   UNL     1       2.959   7.978  17.808  0.00  0.00    +0.000 NA
ATOM      4  C   UNL     1       2.478   7.551  19.005  0.00  0.00    +0.000 A 
ATOM      5  C   UNL     1       2.823   6.314  19.499  0.00  0.00    +0.000 A 
ATOM      6  C   UNL     1       3.850   5.560  18.869  0.00  0.00    +0.000 A 
ENDROOT
BRANCH   4   7
ATOM      7  N   UNL     1       1.752   8.513  19.787  0.00  0.00    +0.000 N 
ATOM      8  C   UNL     1       1.446   8.239  21.115  0.00  0.00    +0.000 A 
ATOM      9  C   UNL     1       0.804   9.326  21.651  0.00  0.00    +0.000 A 
ATOM     10  C   UNL     1       0.120   9.828  20.527  0.00  0.00    +0.000 A 
ATOM     11  C   UNL     1      -1.156  10.372  20.312  0.00  0.00    +0.000 A 
ATOM     12  C   UNL     1      -1.405  10.939  19.067  0.00  0.00    +0.000 A 
ATOM     13  C   UNL     1      -0.357  10.964  18.151  0.00  0.00    +0.000 A 
ATOM     14  N   UNL     1       0.823  10.268  18.238  0.00  0.00    +0.000 NA
ATOM     15  C   UNL     1       0.967   9.631  19.428  0.00  0.00    +0.000 A 
BRANCH  12  16
ATOM     16  C   UNL     1      -2.711  11.435  18.738  0.00  0.00    +0.000 C 
ATOM     17  N   UNL     1      -3.765  11.853  18.425  0.00  0.00    +0.000 NA
ENDBRANCH  12  16
ENDBRANCH   4   7
BRANCH   1  19
ATOM     18  N   UNL     1       5.503   5.548  15.484  0.00  0.00    +0.000 N 
ATOM     19  C   UNL     1       5.540   5.399  16.870  0.00  0.00    +0.000 C 
ATOM     20  O   UNL     1       6.421   4.789  17.436  0.00  0.00    +0.000 OA
ATOM     21  H   UNL     1       4.651   5.930  15.077  0.00  0.00    +0.000 HD
BRANCH  18  22
ATOM     22  C   UNL     1       6.574   5.112  14.560  0.00  0.00    +0.000 C 
BRANCH  22  23
ATOM     23  C   UNL     1       6.403   3.688  13.980  0.00  0.00    +0.000 C 
ATOM     24  F   UNL     1       5.226   3.189  14.493  0.00  0.00    +0.000 F 
BRANCH  23  26
ATOM     25  C   UNL     1       7.166   4.657  11.749  0.00  0.00    +0.000 C 
ATOM     26  C   UNL     1       6.317   3.556  12.415  0.00  0.00    +0.000 C 
ATOM     27  C   UNL     1       4.890   3.655  11.864  0.00  0.00    +0.000 C 
BRANCH  26  28
ATOM     28  O   UNL     1       6.840   2.285  11.993  0.00  0.00    +0.000 OA
ATOM     29  H   UNL     1       7.118   2.353  11.061  0.00  0.00    +0.000 HD
ENDBRANCH  26  28
ENDBRANCH  23  26
ENDBRANCH  22  23
ENDBRANCH  18  22
ENDBRANCH   1  19
BRANCH   6  30
ATOM     30  N   UNL     1       4.383   4.428  19.491  0.00  0.00    +0.000 N 
ATOM     31  H   UNL     1       5.387   4.523  19.651  0.00  0.00    +0.000 HD
BRANCH  30  32
ATOM     32  C   UNL     1       3.943   3.062  19.199  0.00  0.00    +0.000 C 
ATOM     33  C   UNL     1       3.990   2.273  20.510  0.00  0.00    +0.000 C 
ATOM     34  C   UNL     1       2.676   2.614  21.234  0.00  0.00    +0.000 C 
ATOM     35  C   UNL     1       1.778   3.282  20.188  0.00  0.00    +0.000 C 
ATOM     36  C   UNL     1       2.448   2.954  18.863  0.00  0.00    +0.000 C 
BRANCH  35  37
ATOM     37  N   UNL     1       0.385   2.867  20.249  0.00  0.00    +0.000 NA
ATOM     38  H   UNL     1       0.280   1.913  19.910  0.00  0.00    +0.000 HD
ATOM     39  H   UNL     1      -0.174   3.455  19.630  0.00  0.00    +0.000 HD
ENDBRANCH  35  37
ENDBRANCH  30  32
ENDBRANCH   6  30
TORSDOF 10
ENDMDL
