MODEL 1
REMARK VINA RESULT:      -7.8      0.000      0.000
REMARK  Name = 
REMARK  6 active torsions:
REMARK  status: ('A' for Active; 'I' for Inactive)
REMARK    1  A    between atoms: C_2  and  C_3
REMARK    2  A    between atoms: C_3  and  N_4
REMARK    3  A    between atoms: C_7  and  C_8
REMARK    4  A    between atoms: C_11  and  C_12
REMARK    5  A    between atoms: N_14  and  O_15
REMARK    6  A    between atoms: N_18  and  C_19
REMARK                            x       y       z     vdW  Elec       q    Type
REMARK                         _______ _______ _______ _____ _____    ______ ____
ROOT
ATOM      1  N   UNL     1       1.631   9.502  19.164  0.00  0.00    +0.000 N 
ATOM      2  C   UNL     1       2.195   9.355  17.932  0.00  0.00    +0.000 A 
ATOM      3  C   UNL     1       2.539   8.029  17.836  0.00  0.00    +0.000 A 
ATOM      4  C   UNL     1       2.137   7.446  19.062  0.00  0.00    +0.000 A 
ATOM      5  N   UNL     1       1.568   8.353  19.869  0.00  0.00    +0.000 NA
ENDROOT
BRANCH   4   6
ATOM      6  C   UNL     1       2.345   6.012  19.446  0.00  0.00    +0.000 A 
ATOM      7  C   UNL     1       1.957   5.428  20.634  0.00  0.00    +0.000 A 
ATOM      8  C   UNL     1       2.397   4.068  20.730  0.00  0.00    +0.000 A 
ATOM      9  C   UNL     1       3.115   3.664  19.617  0.00  0.00    +0.000 A 
ATOM     10  S   UNL     1       3.151   4.901  18.437  0.00  0.00    +0.000 S 
BRANCH   9  11
ATOM     11  C   UNL     1       3.777   2.388  19.389  0.00  0.00    +0.000 C 
ATOM     12  O   UNL     1       3.429   1.572  18.537  0.00  0.00    +0.000 OA
ATOM     13  N   UNL     1       4.831   2.105  20.232  0.00  0.00    +0.000 N 
ATOM     14  H   UNL     1       5.088   2.694  21.016  0.00  0.00    +0.000 HD
BRANCH  13  15
ATOM     15  O   UNL     1       5.444   0.839  20.137  0.00  0.00    +0.000 OA
ATOM     16  H   UNL     1       4.750   0.241  20.485  0.00  0.00    +0.000 HD
ENDBRANCH  13  15
ENDBRANCH   9  11
ENDBRANCH   4   6
BRANCH   1  17
ATOM     17  C   UNL     1       1.094  10.725  19.731  0.00  0.00    +0.000 C 
BRANCH  17  19
ATOM     18  O   UNL     1      -0.067  12.453  18.580  0.00  0.00    +0.000 OA
ATOM     19  C   UNL     1      -0.069  11.274  18.931  0.00  0.00    +0.000 C 
ATOM     20  N   UNL     1      -1.060  10.348  18.636  0.00  0.00    +0.000 N 
ATOM     21  H   UNL     1      -1.057   9.482  19.169  0.00  0.00    +0.000 HD
BRANCH  20  22
ATOM     22  C   UNL     1      -2.172  10.562  17.787  0.00  0.00    +0.000 A 
ATOM     23  C   UNL     1      -2.242  10.073  16.476  0.00  0.00    +0.000 A 
ATOM     24  C   UNL     1      -3.359  10.326  15.673  0.00  0.00    +0.000 A 
ATOM     25  C   UNL     1      -4.421  11.076  16.173  0.00  0.00    +0.000 A 
ATOM     26  C   UNL     1      -4.369  11.545  17.482  0.00  0.00    +0.000 A 
ATOM     27 CL   UNL     1      -5.681  12.468  18.104  0.00  0.00    +0.000 Cl
ATOM     28  C   UNL     1      -3.260  11.282  18.293  0.00  0.00    +0.000 A 
ENDBRANCH  20  22
ENDBRANCH  17  19
ENDBRANCH   1  17
TORSDOF 6
ENDMDL
MODEL 2
REMARK VINA RESULT:      -7.7      2.485      2.747
REMARK  Name = 
REMARK  6 active torsions:
REMARK  status: ('A' for Active; 'I' for Inactive)
REMARK    1  A    between atoms: C_2  and  C_3
REMARK    2  A    between atoms: C_3  and  N_4
REMARK    3  A    between atoms: C_7  and  C_8
REMARK    4  A    between atoms: C_11  and  C_12
REMARK    5  A    between atoms: N_14  and  O_15
REMARK    6  A    between atoms: N_18  and  C_19
REMARK                            x       y       z     vdW  Elec       q    Type
REMARK                         _______ _______ _______ _____ _____    ______ ____
ROOT
ATOM      1  N   UNL     1       1.185   9.212  20.320  0.00  0.00    +0.000 N 
ATOM      2  C   UNL     1       0.946   8.262  21.268  0.00  0.00    +0.000 A 
ATOM      3  C   UNL     1       1.480   7.099  20.772  0.00  0.00    +0.000 A 
ATOM      4  C   UNL     1       2.029   7.442  19.513  0.00  0.00    +0.000 A 
ATOM      5  N   UNL     1       1.856   8.745  19.246  0.00  0.00    +0.000 NA
ENDROOT
BRANCH   4   6
ATOM      6  C   UNL     1       2.689   6.485  18.566  0.00  0.00    +0.000 A 
ATOM      7  C   UNL     1       2.275   5.197  18.299  0.00  0.00    +0.000 A 
ATOM      8  C   UNL     1       3.184   4.514  17.427  0.00  0.00    +0.000 A 
ATOM      9  C   UNL     1       4.265   5.301  17.067  0.00  0.00    +0.000 A 
ATOM     10  S   UNL     1       4.105   6.880  17.705  0.00  0.00    +0.000 S 
BRANCH   9  11
ATOM     11  C   UNL     1       5.419   4.930  16.262  0.00  0.00    +0.000 C 
ATOM     12  O   UNL     1       5.720   3.771  15.979  0.00  0.00    +0.000 OA
ATOM     13  N   UNL     1       6.217   5.975  15.846  0.00  0.00    +0.000 N 
ATOM     14  H   UNL     1       6.072   6.934  16.142  0.00  0.00    +0.000 HD
BRANCH  13  15
ATOM     15  O   UNL     1       7.410   5.676  15.157  0.00  0.00    +0.000 OA
ATOM     16  H   UNL     1       8.068   6.235  15.621  0.00  0.00    +0.000 HD
ENDBRANCH  13  15
ENDBRANCH   9  11
ENDBRANCH   4   6
BRANCH   1  17
ATOM     17  C   UNL     1       0.820  10.615  20.387  0.00  0.00    +0.000 C 
BRANCH  17  19
ATOM     18  O   UNL     1       0.349  11.971  18.491  0.00  0.00    +0.000 OA
ATOM     19  C   UNL     1      -0.031  11.050  19.213  0.00  0.00    +0.000 C 
ATOM     20  N   UNL     1      -1.199  10.321  19.039  0.00  0.00    +0.000 N 
ATOM     21  H   UNL     1      -1.508   9.750  19.822  0.00  0.00    +0.000 HD
BRANCH  20  22
ATOM     22  C   UNL     1      -2.091  10.426  17.945  0.00  0.00    +0.000 A 
ATOM     23  C   UNL     1      -1.869   9.800  16.712  0.00  0.00    +0.000 A 
ATOM     24  C   UNL     1      -2.775   9.949  15.657  0.00  0.00    +0.000 A 
ATOM     25  C   UNL     1      -3.915  10.730  15.823  0.00  0.00    +0.000 A 
ATOM     26  C   UNL     1      -4.155  11.336  17.053  0.00  0.00    +0.000 A 
ATOM     27 CL   UNL     1      -5.565  12.300  17.263  0.00  0.00    +0.000 Cl
ATOM     28  C   UNL     1      -3.258  11.179  18.115  0.00  0.00    +0.000 A 
ENDBRANCH  20  22
ENDBRANCH  17  19
ENDBRANCH   1  17
TORSDOF 6
ENDMDL
MODEL 3
REMARK VINA RESULT:      -7.6      5.386      9.540
REMARK  Name = 
REMARK  6 active torsions:
REMARK  status: ('A' for Active; 'I' for Inactive)
REMARK    1  A    between atoms: C_2  and  C_3
REMARK    2  A    between atoms: C_3  and  N_4
REMARK    3  A    between atoms: C_7  and  C_8
REMARK    4  A    between atoms: C_11  and  C_12
REMARK    5  A    between atoms: N_14  and  O_15
REMARK    6  A    between atoms: N_18  and  C_19
REMARK                            x       y       z     vdW  Elec       q    Type
REMARK                         _______ _______ _______ _____ _____    ______ ____
ROOT
ATOM      1  N   UNL     1       4.746   4.904  18.333  0.00  0.00    +0.000 N 
ATOM      2  C   UNL     1       3.646   4.182  17.979  0.00  0.00    +0.000 A 
ATOM      3  C   UNL     1       2.596   5.066  18.007  0.00  0.00    +0.000 A 
ATOM      4  C   UNL     1       3.158   6.309  18.386  0.00  0.00    +0.000 A 
ATOM      5  N   UNL     1       4.483   6.205  18.573  0.00  0.00    +0.000 NA
ENDROOT
BRANCH   4   6
ATOM      6  C   UNL     1       2.390   7.579  18.595  0.00  0.00    +0.000 A 
ATOM      7  C   UNL     1       2.144   8.542  17.639  0.00  0.00    +0.000 A 
ATOM      8  C   UNL     1       1.471   9.681  18.190  0.00  0.00    +0.000 A 
ATOM      9  C   UNL     1       1.236   9.552  19.548  0.00  0.00    +0.000 A 
ATOM     10  S   UNL     1       1.739   8.015  20.107  0.00  0.00    +0.000 S 
BRANCH   9  11
ATOM     11  C   UNL     1       0.648  10.525  20.455  0.00  0.00    +0.000 C 
ATOM     12  O   UNL     1       0.787  10.504  21.677  0.00  0.00    +0.000 OA
ATOM     13  N   UNL     1      -0.141  11.491  19.864  0.00  0.00    +0.000 N 
ATOM     14  H   UNL     1      -0.374  11.487  18.877  0.00  0.00    +0.000 HD
BRANCH  13  15
ATOM     15  O   UNL     1      -0.830  12.396  20.696  0.00  0.00    +0.000 OA
ATOM     16  H   UNL     1      -0.111  12.981  21.015  0.00  0.00    +0.000 HD
ENDBRANCH  13  15
ENDBRANCH   9  11
ENDBRANCH   4   6
BRANCH   1  17
ATOM     17  C   UNL     1       6.108   4.413  18.437  0.00  0.00    +0.000 C 
BRANCH  17  19
ATOM     18  O   UNL     1       8.046   4.235  17.070  0.00  0.00    +0.000 OA
ATOM     19  C   UNL     1       6.830   4.418  17.106  0.00  0.00    +0.000 C 
ATOM     20  N   UNL     1       6.012   4.613  16.002  0.00  0.00    +0.000 N 
ATOM     21  H   UNL     1       5.078   4.976  16.177  0.00  0.00    +0.000 HD
BRANCH  20  22
ATOM     22  C   UNL     1       6.407   4.518  14.646  0.00  0.00    +0.000 A 
ATOM     23  C   UNL     1       7.416   5.311  14.084  0.00  0.00    +0.000 A 
ATOM     24  C   UNL     1       7.758   5.188  12.734  0.00  0.00    +0.000 A 
ATOM     25  C   UNL     1       7.092   4.269  11.927  0.00  0.00    +0.000 A 
ATOM     26  C   UNL     1       6.105   3.460  12.484  0.00  0.00    +0.000 A 
ATOM     27 CL   UNL     1       5.283   2.321  11.492  0.00  0.00    +0.000 Cl
ATOM     28  C   UNL     1       5.769   3.570  13.838  0.00  0.00    +0.000 A 
ENDBRANCH  20  22
ENDBRANCH  17  19
ENDBRANCH   1  17
TORSDOF 6
ENDMDL
MODEL 4
REMARK VINA RESULT:      -7.5      1.552      2.188
REMARK  Name = 
REMARK  6 active torsions:
REMARK  status: ('A' for Active; 'I' for Inactive)
REMARK    1  A    between atoms: C_2  and  C_3
REMARK    2  A    between atoms: C_3  and  N_4
REMARK    3  A    between atoms: C_7  and  C_8
REMARK    4  A    between atoms: C_11  and  C_12
REMARK    5  A    between atoms: N_14  and  O_15
REMARK    6  A    between atoms: N_18  and  C_19
REMARK                            x       y       z     vdW  Elec       q    Type
REMARK                         _______ _______ _______ _____ _____    ______ ____
ROOT
ATOM      1  N   UNL     1       0.795  10.507  20.754  0.00  0.00    +0.000 N 
ATOM      2  C   UNL     1       0.570   9.856  21.929  0.00  0.00    +0.000 A 
ATOM      3  C   UNL     1       1.016   8.572  21.735  0.00  0.00    +0.000 A 
ATOM      4  C   UNL     1       1.501   8.538  20.405  0.00  0.00    +0.000 A 
ATOM      5  N   UNL     1       1.374   9.734  19.811  0.00  0.00    +0.000 NA
ENDROOT
BRANCH   4   6
ATOM      6  C   UNL     1       2.053   7.327  19.716  0.00  0.00    +0.000 A 
ATOM      7  C   UNL     1       2.605   7.296  18.452  0.00  0.00    +0.000 A 
ATOM      8  C   UNL     1       2.941   5.963  18.050  0.00  0.00    +0.000 A 
ATOM      9  C   UNL     1       2.626   5.021  19.014  0.00  0.00    +0.000 A 
ATOM     10  S   UNL     1       2.027   5.779  20.427  0.00  0.00    +0.000 S 
BRANCH   9  11
ATOM     11  C   UNL     1       2.753   3.574  18.934  0.00  0.00    +0.000 C 
ATOM     12  O   UNL     1       3.354   2.887  19.759  0.00  0.00    +0.000 OA
ATOM     13  N   UNL     1       2.181   2.986  17.826  0.00  0.00    +0.000 N 
ATOM     14  H   UNL     1       1.770   3.517  17.067  0.00  0.00    +0.000 HD
BRANCH  13  15
ATOM     15  O   UNL     1       2.364   1.602  17.631  0.00  0.00    +0.000 OA
ATOM     16  H   UNL     1       2.177   1.236  18.522  0.00  0.00    +0.000 HD
ENDBRANCH  13  15
ENDBRANCH   9  11
ENDBRANCH   4   6
BRANCH   1  17
ATOM     17  C   UNL     1       0.502  11.899  20.464  0.00  0.00    +0.000 C 
BRANCH  17  19
ATOM     18  O   UNL     1      -0.354  13.057  18.571  0.00  0.00    +0.000 OA
ATOM     19  C   UNL     1      -0.439  12.062  19.289  0.00  0.00    +0.000 C 
ATOM     20  N   UNL     1      -1.333  11.014  19.110  0.00  0.00    +0.000 N 
ATOM     21  H   UNL     1      -1.455  10.374  19.890  0.00  0.00    +0.000 HD
BRANCH  20  22
ATOM     22  C   UNL     1      -2.213  10.850  18.015  0.00  0.00    +0.000 A 
ATOM     23  C   UNL     1      -1.944   9.999  16.936  0.00  0.00    +0.000 A 
ATOM     24  C   UNL     1      -2.842   9.884  15.869  0.00  0.00    +0.000 A 
ATOM     25  C   UNL     1      -4.022  10.624  15.869  0.00  0.00    +0.000 A 
ATOM     26  C   UNL     1      -4.307  11.453  16.950  0.00  0.00    +0.000 A 
ATOM     27 CL   UNL     1      -5.766  12.366  16.955  0.00  0.00    +0.000 Cl
ATOM     28  C   UNL     1      -3.418  11.561  18.025  0.00  0.00    +0.000 A 
ENDBRANCH  20  22
ENDBRANCH  17  19
ENDBRANCH   1  17
TORSDOF 6
ENDMDL
MODEL 5
REMARK VINA RESULT:      -7.4      0.998      1.140
REMARK  Name = 
REMARK  6 active torsions:
REMARK  status: ('A' for Active; 'I' for Inactive)
REMARK    1  A    between atoms: C_2  and  C_3
REMARK    2  A    between atoms: C_3  and  N_4
REMARK    3  A    between atoms: C_7  and  C_8
REMARK    4  A    between atoms: C_11  and  C_12
REMARK    5  A    between atoms: N_14  and  O_15
REMARK    6  A    between atoms: N_18  and  C_19
REMARK                            x       y       z     vdW  Elec       q    Type
REMARK                         _______ _______ _______ _____ _____    ______ ____
ROOT
ATOM      1  N   UNL     1       1.560   9.320  19.093  0.00  0.00    +0.000 N 
ATOM      2  C   UNL     1       2.239   9.568  17.938  0.00  0.00    +0.000 A 
ATOM      3  C   UNL     1       2.693   8.347  17.503  0.00  0.00    +0.000 A 
ATOM      4  C   UNL     1       2.234   7.411  18.461  0.00  0.00    +0.000 A 
ATOM      5  N   UNL     1       1.528   8.013  19.429  0.00  0.00    +0.000 NA
ENDROOT
BRANCH   4   6
ATOM      6  C   UNL     1       2.520   5.940  18.439  0.00  0.00    +0.000 A 
ATOM      7  C   UNL     1       1.726   4.969  17.865  0.00  0.00    +0.000 A 
ATOM      8  C   UNL     1       2.232   3.651  18.110  0.00  0.00    +0.000 A 
ATOM      9  C   UNL     1       3.388   3.660  18.871  0.00  0.00    +0.000 A 
ATOM     10  S   UNL     1       3.895   5.264  19.184  0.00  0.00    +0.000 S 
BRANCH   9  11
ATOM     11  C   UNL     1       4.140   2.523  19.378  0.00  0.00    +0.000 C 
ATOM     12  O   UNL     1       4.902   2.572  20.343  0.00  0.00    +0.000 OA
ATOM     13  N   UNL     1       3.987   1.346  18.674  0.00  0.00    +0.000 N 
ATOM     14  H   UNL     1       3.458   1.281  17.812  0.00  0.00    +0.000 HD
BRANCH  13  15
ATOM     15  O   UNL     1       4.773   0.236  19.045  0.00  0.00    +0.000 OA
ATOM     16  H   UNL     1       4.968  -0.184  18.180  0.00  0.00    +0.000 HD
ENDBRANCH  13  15
ENDBRANCH   9  11
ENDBRANCH   4   6
BRANCH   1  17
ATOM     17  C   UNL     1       0.881  10.295  19.926  0.00  0.00    +0.000 C 
BRANCH  17  19
ATOM     18  O   UNL     1      -0.249  12.225  19.117  0.00  0.00    +0.000 OA
ATOM     19  C   UNL     1      -0.245  10.997  19.198  0.00  0.00    +0.000 C 
ATOM     20  N   UNL     1      -1.195  10.151  18.643  0.00  0.00    +0.000 N 
ATOM     21  H   UNL     1      -1.204   9.188  18.969  0.00  0.00    +0.000 HD
BRANCH  20  22
ATOM     22  C   UNL     1      -2.261  10.538  17.795  0.00  0.00    +0.000 A 
ATOM     23  C   UNL     1      -2.279  10.277  16.419  0.00  0.00    +0.000 A 
ATOM     24  C   UNL     1      -3.351  10.696  15.623  0.00  0.00    +0.000 A 
ATOM     25  C   UNL     1      -4.417  11.384  16.196  0.00  0.00    +0.000 A 
ATOM     26  C   UNL     1      -4.417  11.626  17.567  0.00  0.00    +0.000 A 
ATOM     27 CL   UNL     1      -5.734  12.473  18.278  0.00  0.00    +0.000 Cl
ATOM     28  C   UNL     1      -3.354  11.197  18.369  0.00  0.00    +0.000 A 
ENDBRANCH  20  22
ENDBRANCH  17  19
ENDBRANCH   1  17
TORSDOF 6
ENDMDL
MODEL 6
REMARK VINA RESULT:      -7.4      4.014      4.874
REMARK  Name = 
REMARK  6 active torsions:
REMARK  status: ('A' for Active; 'I' for Inactive)
REMARK    1  A    between atoms: C_2  and  C_3
REMARK    2  A    between atoms: C_3  and  N_4
REMARK    3  A    between atoms: C_7  and  C_8
REMARK    4  A    between atoms: C_11  and  C_12
REMARK    5  A    between atoms: N_14  and  O_15
REMARK    6  A    between atoms: N_18  and  C_19
REMARK                            x       y       z     vdW  Elec       q    Type
REMARK                         _______ _______ _______ _____ _____    ______ ____
ROOT
ATOM      1  N   UNL     1       1.671   7.778  20.096  0.00  0.00    +0.000 N 
ATOM      2  C   UNL     1       1.603   8.753  19.147  0.00  0.00    +0.000 A 
ATOM      3  C   UNL     1       2.354   8.297  18.091  0.00  0.00    +0.000 A 
ATOM      4  C   UNL     1       2.837   7.028  18.492  0.00  0.00    +0.000 A 
ATOM      5  N   UNL     1       2.402   6.708  19.720  0.00  0.00    +0.000 NA
ENDROOT
BRANCH   4   6
ATOM      6  C   UNL     1       3.746   6.153  17.683  0.00  0.00    +0.000 A 
ATOM      7  C   UNL     1       3.621   4.789  17.516  0.00  0.00    +0.000 A 
ATOM      8  C   UNL     1       4.714   4.240  16.770  0.00  0.00    +0.000 A 
ATOM      9  C   UNL     1       5.640   5.201  16.401  0.00  0.00    +0.000 A 
ATOM     10  S   UNL     1       5.117   6.760  16.874  0.00  0.00    +0.000 S 
BRANCH   9  11
ATOM     11  C   UNL     1       6.904   5.011  15.706  0.00  0.00    +0.000 C 
ATOM     12  O   UNL     1       7.892   4.472  16.202  0.00  0.00    +0.000 OA
ATOM     13  N   UNL     1       6.961   5.519  14.425  0.00  0.00    +0.000 N 
ATOM     14  H   UNL     1       6.214   6.065  14.011  0.00  0.00    +0.000 HD
BRANCH  13  15
ATOM     15  O   UNL     1       8.191   5.468  13.737  0.00  0.00    +0.000 OA
ATOM     16  H   UNL     1       8.155   4.589  13.305  0.00  0.00    +0.000 HD
ENDBRANCH  13  15
ENDBRANCH   9  11
ENDBRANCH   4   6
BRANCH   1  17
ATOM     17  C   UNL     1       1.025   7.788  21.396  0.00  0.00    +0.000 C 
BRANCH  17  19
ATOM     18  O   UNL     1       1.741   9.691  22.630  0.00  0.00    +0.000 OA
ATOM     19  C   UNL     1       0.851   9.187  21.947  0.00  0.00    +0.000 C 
ATOM     20  N   UNL     1      -0.340   9.808  21.591  0.00  0.00    +0.000 N 
ATOM     21  H   UNL     1      -1.078   9.214  21.223  0.00  0.00    +0.000 HD
BRANCH  20  22
ATOM     22  C   UNL     1      -0.685  11.156  21.849  0.00  0.00    +0.000 A 
ATOM     23  C   UNL     1      -1.349  11.568  23.011  0.00  0.00    +0.000 A 
ATOM     24  C   UNL     1      -1.682  12.912  23.210  0.00  0.00    +0.000 A 
ATOM     25  C   UNL     1      -1.353  13.861  22.245  0.00  0.00    +0.000 A 
ATOM     26  C   UNL     1      -0.671  13.462  21.099  0.00  0.00    +0.000 A 
ATOM     27 CL   UNL     1      -0.261  14.633  19.907  0.00  0.00    +0.000 Cl
ATOM     28  C   UNL     1      -0.326  12.121  20.902  0.00  0.00    +0.000 A 
ENDBRANCH  20  22
ENDBRANCH  17  19
ENDBRANCH   1  17
TORSDOF 6
ENDMDL
MODEL 7
REMARK VINA RESULT:      -7.3      1.590      2.175
REMARK  Name = 
REMARK  6 active torsions:
REMARK  status: ('A' for Active; 'I' for Inactive)
REMARK    1  A    between atoms: C_2  and  C_3
REMARK    2  A    between atoms: C_3  and  N_4
REMARK    3  A    between atoms: C_7  and  C_8
REMARK    4  A    between atoms: C_11  and  C_12
REMARK    5  A    between atoms: N_14  and  O_15
REMARK    6  A    between atoms: N_18  and  C_19
REMARK                            x       y       z     vdW  Elec       q    Type
REMARK                         _______ _______ _______ _____ _____    ______ ____
ROOT
ATOM      1  N   UNL     1       1.015  10.081  20.428  0.00  0.00    +0.000 N 
ATOM      2  C   UNL     1       0.385   9.379  21.411  0.00  0.00    +0.000 A 
ATOM      3  C   UNL     1       0.755   8.069  21.229  0.00  0.00    +0.000 A 
ATOM      4  C   UNL     1       1.619   8.074  20.108  0.00  0.00    +0.000 A 
ATOM      5  N   UNL     1       1.785   9.315  19.627  0.00  0.00    +0.000 NA
ENDROOT
BRANCH   4   6
ATOM      6  C   UNL     1       2.248   6.859  19.495  0.00  0.00    +0.000 A 
ATOM      7  C   UNL     1       2.560   6.695  18.161  0.00  0.00    +0.000 A 
ATOM      8  C   UNL     1       3.054   5.378  17.887  0.00  0.00    +0.000 A 
ATOM      9  C   UNL     1       3.093   4.580  19.018  0.00  0.00    +0.000 A 
ATOM     10  S   UNL     1       2.630   5.470  20.404  0.00  0.00    +0.000 S 
BRANCH   9  11
ATOM     11  C   UNL     1       3.463   3.176  19.116  0.00  0.00    +0.000 C 
ATOM     12  O   UNL     1       2.715   2.242  18.829  0.00  0.00    +0.000 OA
ATOM     13  N   UNL     1       4.729   2.926  19.603  0.00  0.00    +0.000 N 
ATOM     14  H   UNL     1       5.341   3.655  19.953  0.00  0.00    +0.000 HD
BRANCH  13  15
ATOM     15  O   UNL     1       5.109   1.588  19.827  0.00  0.00    +0.000 OA
ATOM     16  H   UNL     1       6.028   1.568  19.484  0.00  0.00    +0.000 HD
ENDBRANCH  13  15
ENDBRANCH   9  11
ENDBRANCH   4   6
BRANCH   1  17
ATOM     17  C   UNL     1       0.948  11.514  20.207  0.00  0.00    +0.000 C 
BRANCH  17  19
ATOM     18  O   UNL     1      -0.044  12.937  18.579  0.00  0.00    +0.000 OA
ATOM     19  C   UNL     1      -0.147  11.901  19.235  0.00  0.00    +0.000 C 
ATOM     20  N   UNL     1      -1.198  10.998  19.153  0.00  0.00    +0.000 N 
ATOM     21  H   UNL     1      -1.277  10.312  19.899  0.00  0.00    +0.000 HD
BRANCH  20  22
ATOM     22  C   UNL     1      -2.267  11.046  18.226  0.00  0.00    +0.000 A 
ATOM     23  C   UNL     1      -3.532  11.557  18.542  0.00  0.00    +0.000 A 
ATOM     24  C   UNL     1      -4.560  11.567  17.593  0.00  0.00    +0.000 A 
ATOM     25  C   UNL     1      -4.332  11.064  16.314  0.00  0.00    +0.000 A 
ATOM     26  C   UNL     1      -3.070  10.578  15.986  0.00  0.00    +0.000 A 
ATOM     27 CL   UNL     1      -2.785   9.958  14.407  0.00  0.00    +0.000 Cl
ATOM     28  C   UNL     1      -2.036  10.577  16.928  0.00  0.00    +0.000 A 
ENDBRANCH  20  22
ENDBRANCH  17  19
ENDBRANCH   1  17
TORSDOF 6
ENDMDL
MODEL 8
REMARK VINA RESULT:      -7.2      5.164      9.486
REMARK  Name = 
REMARK  6 active torsions:
REMARK  status: ('A' for Active; 'I' for Inactive)
REMARK    1  A    between atoms: C_2  and  C_3
REMARK    2  A    between atoms: C_3  and  N_4
REMARK    3  A    between atoms: C_7  and  C_8
REMARK    4  A    between atoms: C_11  and  C_12
REMARK    5  A    between atoms: N_14  and  O_15
REMARK    6  A    between atoms: N_18  and  C_19
REMARK                            x       y       z     vdW  Elec       q    Type
REMARK                         _______ _______ _______ _____ _____    ______ ____
ROOT
ATOM      1  N   UNL     1       4.127   5.041  18.987  0.00  0.00    +0.000 N 
ATOM      2  C   UNL     1       3.180   4.342  19.673  0.00  0.00    +0.000 A 
ATOM      3  C   UNL     1       2.214   5.257  20.011  0.00  0.00    +0.000 A 
ATOM      4  C   UNL     1       2.661   6.491  19.479  0.00  0.00    +0.000 A 
ATOM      5  N   UNL     1       3.831   6.349  18.840  0.00  0.00    +0.000 NA
ENDROOT
BRANCH   4   6
ATOM      6  C   UNL     1       1.955   7.805  19.632  0.00  0.00    +0.000 A 
ATOM      7  C   UNL     1       1.365   8.277  20.785  0.00  0.00    +0.000 A 
ATOM      8  C   UNL     1       0.686   9.520  20.567  0.00  0.00    +0.000 A 
ATOM      9  C   UNL     1       0.772   9.947  19.253  0.00  0.00    +0.000 A 
ATOM     10  S   UNL     1       1.759   8.893  18.336  0.00  0.00    +0.000 S 
BRANCH   9  11
ATOM     11  C   UNL     1       0.152  11.114  18.644  0.00  0.00    +0.000 C 
ATOM     12  O   UNL     1       0.435  12.277  18.933  0.00  0.00    +0.000 OA
ATOM     13  N   UNL     1      -0.837  10.850  17.720  0.00  0.00    +0.000 N 
ATOM     14  H   UNL     1      -1.181   9.916  17.528  0.00  0.00    +0.000 HD
BRANCH  13  15
ATOM     15  O   UNL     1      -1.554  11.935  17.176  0.00  0.00    +0.000 OA
ATOM     16  H   UNL     1      -1.914  12.374  17.976  0.00  0.00    +0.000 HD
ENDBRANCH  13  15
ENDBRANCH   9  11
ENDBRANCH   4   6
BRANCH   1  17
ATOM     17  C   UNL     1       5.347   4.509  18.407  0.00  0.00    +0.000 C 
BRANCH  17  19
ATOM     18  O   UNL     1       4.190   4.446  16.330  0.00  0.00    +0.000 OA
ATOM     19  C   UNL     1       5.282   4.420  16.897  0.00  0.00    +0.000 C 
ATOM     20  N   UNL     1       6.516   4.339  16.265  0.00  0.00    +0.000 N 
ATOM     21  H   UNL     1       7.316   4.098  16.844  0.00  0.00    +0.000 HD
BRANCH  20  22
ATOM     22  C   UNL     1       6.740   4.392  14.869  0.00  0.00    +0.000 A 
ATOM     23  C   UNL     1       7.645   5.279  14.272  0.00  0.00    +0.000 A 
ATOM     24  C   UNL     1       7.818   5.301  12.883  0.00  0.00    +0.000 A 
ATOM     25  C   UNL     1       7.085   4.436  12.076  0.00  0.00    +0.000 A 
ATOM     26  C   UNL     1       6.201   3.536  12.665  0.00  0.00    +0.000 A 
ATOM     27 CL   UNL     1       5.296   2.463  11.670  0.00  0.00    +0.000 Cl
ATOM     28  C   UNL     1       6.035   3.501  14.053  0.00  0.00    +0.000 A 
ENDBRANCH  20  22
ENDBRANCH  17  19
ENDBRANCH   1  17
TORSDOF 6
ENDMDL
MODEL 9
REMARK VINA RESULT:      -7.2      2.709      3.094
REMARK  Name = 
REMARK  6 active torsions:
REMARK  status: ('A' for Active; 'I' for Inactive)
REMARK    1  A    between atoms: C_2  and  C_3
REMARK    2  A    between atoms: C_3  and  N_4
REMARK    3  A    between atoms: C_7  and  C_8
REMARK    4  A    between atoms: C_11  and  C_12
REMARK    5  A    between atoms: N_14  and  O_15
REMARK    6  A    between atoms: N_18  and  C_19
REMARK                            x       y       z     vdW  Elec       q    Type
REMARK                         _______ _______ _______ _____ _____    ______ ____
ROOT
ATOM      1  N   UNL     1       1.129   9.417  20.306  0.00  0.00    +0.000 N 
ATOM      2  C   UNL     1       0.828   8.486  21.254  0.00  0.00    +0.000 A 
ATOM      3  C   UNL     1       1.340   7.300  20.787  0.00  0.00    +0.000 A 
ATOM      4  C   UNL     1       1.941   7.612  19.544  0.00  0.00    +0.000 A 
ATOM      5  N   UNL     1       1.819   8.917  19.259  0.00  0.00    +0.000 NA
ENDROOT
BRANCH   4   6
ATOM      6  C   UNL     1       2.599   6.624  18.629  0.00  0.00    +0.000 A 
ATOM      7  C   UNL     1       2.205   5.317  18.431  0.00  0.00    +0.000 A 
ATOM      8  C   UNL     1       3.109   4.612  17.572  0.00  0.00    +0.000 A 
ATOM      9  C   UNL     1       4.166   5.400  17.152  0.00  0.00    +0.000 A 
ATOM     10  S   UNL     1       3.988   7.005  17.719  0.00  0.00    +0.000 S 
BRANCH   9  11
ATOM     11  C   UNL     1       5.309   5.013  16.340  0.00  0.00    +0.000 C 
ATOM     12  O   UNL     1       5.557   3.857  16.001  0.00  0.00    +0.000 OA
ATOM     13  N   UNL     1       6.162   6.037  15.984  0.00  0.00    +0.000 N 
ATOM     14  H   UNL     1       6.061   6.986  16.327  0.00  0.00    +0.000 HD
BRANCH  13  15
ATOM     15  O   UNL     1       7.347   5.714  15.292  0.00  0.00    +0.000 OA
ATOM     16  H   UNL     1       7.091   5.856  14.356  0.00  0.00    +0.000 HD
ENDBRANCH  13  15
ENDBRANCH   9  11
ENDBRANCH   4   6
BRANCH   1  17
ATOM     17  C   UNL     1       0.808  10.832  20.348  0.00  0.00    +0.000 C 
BRANCH  17  19
ATOM     18  O   UNL     1      -1.288  11.955  20.377  0.00  0.00    +0.000 OA
ATOM     19  C   UNL     1      -0.575  11.130  19.808  0.00  0.00    +0.000 C 
ATOM     20  N   UNL     1      -0.914  10.430  18.657  0.00  0.00    +0.000 N 
ATOM     21  H   UNL     1      -0.341   9.624  18.422  0.00  0.00    +0.000 HD
BRANCH  20  22
ATOM     22  C   UNL     1      -2.077  10.628  17.876  0.00  0.00    +0.000 A 
ATOM     23  C   UNL     1      -3.266  11.157  18.392  0.00  0.00    +0.000 A 
ATOM     24  C   UNL     1      -4.394  11.317  17.579  0.00  0.00    +0.000 A 
ATOM     25  C   UNL     1      -4.344  10.947  16.238  0.00  0.00    +0.000 A 
ATOM     26  C   UNL     1      -3.157  10.443  15.712  0.00  0.00    +0.000 A 
ATOM     27 CL   UNL     1      -3.091   9.987  14.054  0.00  0.00    +0.000 Cl
ATOM     28  C   UNL     1      -2.024  10.293  16.518  0.00  0.00    +0.000 A 
ENDBRANCH  20  22
ENDBRANCH  17  19
ENDBRANCH   1  17
TORSDOF 6
ENDMDL
