MODEL 1
REMARK VINA RESULT:      -8.5      0.000      0.000
REMARK  Name = 
REMARK  5 active torsions:
REMARK  status: ('A' for Active; 'I' for Inactive)
REMARK    1  A    between atoms: C_1  and  C_2
REMARK    2  A    between atoms: C_7  and  C_8
REMARK    3  A    between atoms: C_8  and  C_10
REMARK    4  A    between atoms: C_13  and  C_14
REMARK    5  A    between atoms: C_17  and  O_18
REMARK                            x       y       z     vdW  Elec       q    Type
REMARK                         _______ _______ _______ _____ _____    ______ ____
ROOT
ATOM      1  C   UNL     1       1.424   9.667  18.957  0.00  0.00    +0.000 A 
ATOM      2  C   UNL     1       1.273   8.863  20.102  0.00  0.00    +0.000 A 
ATOM      3  C   UNL     1       1.819   7.559  20.190  0.00  0.00    +0.000 A 
ATOM      4  C   UNL     1       2.531   6.970  19.133  0.00  0.00    +0.000 A 
ATOM      5  C   UNL     1       2.645   7.760  17.978  0.00  0.00    +0.000 A 
ATOM      6  C   UNL     1       2.113   9.079  17.893  0.00  0.00    +0.000 A 
ENDROOT
BRANCH   4   7
ATOM      7  C   UNL     1       3.136   5.605  19.257  0.00  0.00    +0.000 A 
ATOM      8  C   UNL     1       2.574   4.620  20.100  0.00  0.00    +0.000 A 
ATOM      9  C   UNL     1       3.170   3.361  20.288  0.00  0.00    +0.000 A 
ATOM     10  C   UNL     1       4.345   3.052  19.620  0.00  0.00    +0.000 A 
ATOM     11  C   UNL     1       4.916   3.978  18.760  0.00  0.00    +0.000 A 
ATOM     12  C   UNL     1       4.317   5.239  18.580  0.00  0.00    +0.000 A 
BRANCH  10  13
ATOM     13  O   UNL     1       4.971   1.853  19.784  0.00  0.00    +0.000 OA
ATOM     14  H   UNL     1       4.323   1.138  19.667  0.00  0.00    +0.000 HD
ENDBRANCH  10  13
ENDBRANCH   4   7
BRANCH   1  15
ATOM     15  C   UNL     1       0.785  11.062  18.996  0.00  0.00    +0.000 C 
ATOM     16  O   UNL     1       1.493  11.972  19.448  0.00  0.00    +0.000 OA
BRANCH  15  23
ATOM     17  C   UNL     1      -7.217  11.857  18.246  0.00  0.00    +0.000 C 
ATOM     18  C   UNL     1      -5.747  11.869  18.552  0.00  0.00    +0.000 C 
ATOM     19  C   UNL     1      -4.876  11.160  17.806  0.00  0.00    +0.000 C 
ATOM     20  C   UNL     1      -3.426  11.162  18.175  0.00  0.00    +0.000 C 
ATOM     21  N   UNL     1      -2.699  10.342  17.498  0.00  0.00    +0.000 NA
ATOM     22  C   UNL     1      -1.300  10.176  17.862  0.00  0.00    +0.000 C 
ATOM     23  C   UNL     1      -0.628  11.401  18.443  0.00  0.00    +0.000 C 
ATOM     24  C   UNL     1      -1.542  11.982  19.564  0.00  0.00    +0.000 C 
ATOM     25  N   UNL     1      -2.977  11.991  19.202  0.00  0.00    +0.000 N 
ATOM     26  C   UNL     1      -3.936  12.679  19.953  0.00  0.00    +0.000 C 
ATOM     27  C   UNL     1      -5.260  12.639  19.682  0.00  0.00    +0.000 C 
ENDBRANCH  15  23
ENDBRANCH   1  15
TORSDOF 4
ENDMDL
MODEL 2
REMARK VINA RESULT:      -8.5      0.754      1.756
REMARK  Name = 
REMARK  5 active torsions:
REMARK  status: ('A' for Active; 'I' for Inactive)
REMARK    1  A    between atoms: C_1  and  C_2
REMARK    2  A    between atoms: C_7  and  C_8
REMARK    3  A    between atoms: C_8  and  C_10
REMARK    4  A    between atoms: C_13  and  C_14
REMARK    5  A    between atoms: C_17  and  O_18
REMARK                            x       y       z     vdW  Elec       q    Type
REMARK                         _______ _______ _______ _____ _____    ______ ____
ROOT
ATOM      1  C   UNL     1       1.101   9.498  19.263  0.00  0.00    +0.000 A 
ATOM      2  C   UNL     1       1.082   8.712  20.429  0.00  0.00    +0.000 A 
ATOM      3  C   UNL     1       1.742   7.462  20.513  0.00  0.00    +0.000 A 
ATOM      4  C   UNL     1       2.446   6.910  19.431  0.00  0.00    +0.000 A 
ATOM      5  C   UNL     1       2.429   7.679  18.255  0.00  0.00    +0.000 A 
ATOM      6  C   UNL     1       1.781   8.944  18.174  0.00  0.00    +0.000 A 
ENDROOT
BRANCH   4   7
ATOM      7  C   UNL     1       3.173   5.605  19.548  0.00  0.00    +0.000 A 
ATOM      8  C   UNL     1       4.452   5.416  18.980  0.00  0.00    +0.000 A 
ATOM      9  C   UNL     1       5.115   4.177  19.013  0.00  0.00    +0.000 A 
ATOM     10  C   UNL     1       4.512   3.094  19.634  0.00  0.00    +0.000 A 
ATOM     11  C   UNL     1       3.270   3.241  20.231  0.00  0.00    +0.000 A 
ATOM     12  C   UNL     1       2.609   4.483  20.189  0.00  0.00    +0.000 A 
BRANCH  10  13
ATOM     13  O   UNL     1       5.107   1.868  19.676  0.00  0.00    +0.000 OA
ATOM     14  H   UNL     1       5.317   1.648  20.599  0.00  0.00    +0.000 HD
ENDBRANCH  10  13
ENDBRANCH   4   7
BRANCH   1  15
ATOM     15  C   UNL     1       0.347  10.833  19.309  0.00  0.00    +0.000 C 
ATOM     16  O   UNL     1       1.030  11.850  19.130  0.00  0.00    +0.000 OA
BRANCH  15  23
ATOM     17  C   UNL     1      -7.348  13.098  18.363  0.00  0.00    +0.000 C 
ATOM     18  C   UNL     1      -5.941  12.573  18.333  0.00  0.00    +0.000 C 
ATOM     19  C   UNL     1      -5.121  12.724  19.393  0.00  0.00    +0.000 C 
ATOM     20  C   UNL     1      -3.712  12.228  19.303  0.00  0.00    +0.000 C 
ATOM     21  N   UNL     1      -2.966  12.548  20.303  0.00  0.00    +0.000 NA
ATOM     22  C   UNL     1      -1.548  12.222  20.257  0.00  0.00    +0.000 C 
ATOM     23  C   UNL     1      -1.192  10.972  19.482  0.00  0.00    +0.000 C 
ATOM     24  C   UNL     1      -1.907  11.027  18.098  0.00  0.00    +0.000 C 
ATOM     25  N   UNL     1      -3.304  11.509  18.180  0.00  0.00    +0.000 N 
ATOM     26  C   UNL     1      -4.196  11.413  17.106  0.00  0.00    +0.000 C 
ATOM     27  C   UNL     1      -5.451  11.913  17.136  0.00  0.00    +0.000 C 
ENDBRANCH  15  23
ENDBRANCH   1  15
TORSDOF 4
ENDMDL
MODEL 3
REMARK VINA RESULT:      -8.4      0.830      1.271
REMARK  Name = 
REMARK  5 active torsions:
REMARK  status: ('A' for Active; 'I' for Inactive)
REMARK    1  A    between atoms: C_1  and  C_2
REMARK    2  A    between atoms: C_7  and  C_8
REMARK    3  A    between atoms: C_8  and  C_10
REMARK    4  A    between atoms: C_13  and  C_14
REMARK    5  A    between atoms: C_17  and  O_18
REMARK                            x       y       z     vdW  Elec       q    Type
REMARK                         _______ _______ _______ _____ _____    ______ ____
ROOT
ATOM      1  C   UNL     1       1.270   9.609  19.210  0.00  0.00    +0.000 A 
ATOM      2  C   UNL     1       1.829   9.163  17.999  0.00  0.00    +0.000 A 
ATOM      3  C   UNL     1       2.354   7.857  17.841  0.00  0.00    +0.000 A 
ATOM      4  C   UNL     1       2.372   6.923  18.889  0.00  0.00    +0.000 A 
ATOM      5  C   UNL     1       1.849   7.385  20.108  0.00  0.00    +0.000 A 
ATOM      6  C   UNL     1       1.304   8.692  20.264  0.00  0.00    +0.000 A 
ENDROOT
BRANCH   4   7
ATOM      7  C   UNL     1       2.895   5.532  18.694  0.00  0.00    +0.000 A 
ATOM      8  C   UNL     1       2.256   4.615  17.831  0.00  0.00    +0.000 A 
ATOM      9  C   UNL     1       2.686   3.284  17.694  0.00  0.00    +0.000 A 
ATOM     10  C   UNL     1       3.785   2.842  18.415  0.00  0.00    +0.000 A 
ATOM     11  C   UNL     1       4.461   3.716  19.252  0.00  0.00    +0.000 A 
ATOM     12  C   UNL     1       4.022   5.046  19.388  0.00  0.00    +0.000 A 
BRANCH  10  13
ATOM     13  O   UNL     1       4.229   1.556  18.331  0.00  0.00    +0.000 OA
ATOM     14  H   UNL     1       3.640   1.054  17.743  0.00  0.00    +0.000 HD
ENDBRANCH  10  13
ENDBRANCH   4   7
BRANCH   1  15
ATOM     15  C   UNL     1       0.734  11.047  19.243  0.00  0.00    +0.000 C 
ATOM     16  O   UNL     1       1.482  11.894  19.748  0.00  0.00    +0.000 OA
BRANCH  15  23
ATOM     17  C   UNL     1      -7.157  12.190  17.954  0.00  0.00    +0.000 C 
ATOM     18  C   UNL     1      -5.718  12.116  18.378  0.00  0.00    +0.000 C 
ATOM     19  C   UNL     1      -4.802  11.478  17.620  0.00  0.00    +0.000 C 
ATOM     20  C   UNL     1      -3.389  11.386  18.103  0.00  0.00    +0.000 C 
ATOM     21  N   UNL     1      -2.626  10.635  17.388  0.00  0.00    +0.000 NA
ATOM     22  C   UNL     1      -1.266  10.379  17.840  0.00  0.00    +0.000 C 
ATOM     23  C   UNL     1      -0.619  11.499  18.625  0.00  0.00    +0.000 C 
ATOM     24  C   UNL     1      -1.612  11.964  19.734  0.00  0.00    +0.000 C 
ATOM     25  N   UNL     1      -3.011  12.064  19.261  0.00  0.00    +0.000 N 
ATOM     26  C   UNL     1      -4.015  12.684  20.013  0.00  0.00    +0.000 C 
ATOM     27  C   UNL     1      -5.311  12.721  19.633  0.00  0.00    +0.000 C 
ENDBRANCH  15  23
ENDBRANCH   1  15
TORSDOF 4
ENDMDL
MODEL 4
REMARK VINA RESULT:      -8.4      1.589      2.581
REMARK  Name = 
REMARK  5 active torsions:
REMARK  status: ('A' for Active; 'I' for Inactive)
REMARK    1  A    between atoms: C_1  and  C_2
REMARK    2  A    between atoms: C_7  and  C_8
REMARK    3  A    between atoms: C_8  and  C_10
REMARK    4  A    between atoms: C_13  and  C_14
REMARK    5  A    between atoms: C_17  and  O_18
REMARK                            x       y       z     vdW  Elec       q    Type
REMARK                         _______ _______ _______ _____ _____    ______ ____
ROOT
ATOM      1  C   UNL     1       1.324   9.296  19.442  0.00  0.00    +0.000 A 
ATOM      2  C   UNL     1       1.893   9.415  18.161  0.00  0.00    +0.000 A 
ATOM      3  C   UNL     1       2.675   8.388  17.580  0.00  0.00    +0.000 A 
ATOM      4  C   UNL     1       2.954   7.186  18.249  0.00  0.00    +0.000 A 
ATOM      5  C   UNL     1       2.418   7.087  19.543  0.00  0.00    +0.000 A 
ATOM      6  C   UNL     1       1.616   8.112  20.124  0.00  0.00    +0.000 A 
ENDROOT
BRANCH   4   7
ATOM      7  C   UNL     1       3.750   6.092  17.604  0.00  0.00    +0.000 A 
ATOM      8  C   UNL     1       4.829   6.374  16.738  0.00  0.00    +0.000 A 
ATOM      9  C   UNL     1       5.538   5.365  16.064  0.00  0.00    +0.000 A 
ATOM     10  C   UNL     1       5.186   4.037  16.254  0.00  0.00    +0.000 A 
ATOM     11  C   UNL     1       4.152   3.712  17.118  0.00  0.00    +0.000 A 
ATOM     12  C   UNL     1       3.443   4.728  17.786  0.00  0.00    +0.000 A 
BRANCH  10  13
ATOM     13  O   UNL     1       5.830   3.024  15.609  0.00  0.00    +0.000 OA
ATOM     14  H   UNL     1       5.829   3.204  14.654  0.00  0.00    +0.000 HD
ENDBRANCH  10  13
ENDBRANCH   4   7
BRANCH   1  15
ATOM     15  C   UNL     1       0.496  10.484  19.951  0.00  0.00    +0.000 C 
ATOM     16  O   UNL     1       1.135  11.413  20.461  0.00  0.00    +0.000 OA
BRANCH  15  23
ATOM     17  C   UNL     1      -6.829  12.611  17.297  0.00  0.00    +0.000 C 
ATOM     18  C   UNL     1      -5.448  12.099  17.591  0.00  0.00    +0.000 C 
ATOM     19  C   UNL     1      -4.864  12.322  18.786  0.00  0.00    +0.000 C 
ATOM     20  C   UNL     1      -3.469  11.836  19.020  0.00  0.00    +0.000 C 
ATOM     21  N   UNL     1      -2.946  12.223  20.131  0.00  0.00    +0.000 NA
ATOM     22  C   UNL     1      -1.550  11.909  20.399  0.00  0.00    +0.000 C 
ATOM     23  C   UNL     1      -1.045  10.618  19.793  0.00  0.00    +0.000 C 
ATOM     24  C   UNL     1      -1.458  10.582  18.290  0.00  0.00    +0.000 C 
ATOM     25  N   UNL     1      -2.840  11.054  18.052  0.00  0.00    +0.000 N 
ATOM     26  C   UNL     1      -3.491  10.884  16.826  0.00  0.00    +0.000 C 
ATOM     27  C   UNL     1      -4.723  11.373  16.565  0.00  0.00    +0.000 C 
ENDBRANCH  15  23
ENDBRANCH   1  15
TORSDOF 4
ENDMDL
MODEL 5
REMARK VINA RESULT:      -8.4      1.516      2.316
REMARK  Name = 
REMARK  5 active torsions:
REMARK  status: ('A' for Active; 'I' for Inactive)
REMARK    1  A    between atoms: C_1  and  C_2
REMARK    2  A    between atoms: C_7  and  C_8
REMARK    3  A    between atoms: C_8  and  C_10
REMARK    4  A    between atoms: C_13  and  C_14
REMARK    5  A    between atoms: C_17  and  O_18
REMARK                            x       y       z     vdW  Elec       q    Type
REMARK                         _______ _______ _______ _____ _____    ______ ____
ROOT
ATOM      1  C   UNL     1       0.991   9.756  19.530  0.00  0.00    +0.000 A 
ATOM      2  C   UNL     1       1.513   9.800  18.224  0.00  0.00    +0.000 A 
ATOM      3  C   UNL     1       2.275   8.740  17.676  0.00  0.00    +0.000 A 
ATOM      4  C   UNL     1       2.581   7.580  18.404  0.00  0.00    +0.000 A 
ATOM      5  C   UNL     1       2.093   7.557  19.721  0.00  0.00    +0.000 A 
ATOM      6  C   UNL     1       1.311   8.614  20.269  0.00  0.00    +0.000 A 
ENDROOT
BRANCH   4   7
ATOM      7  C   UNL     1       3.356   6.450  17.796  0.00  0.00    +0.000 A 
ATOM      8  C   UNL     1       2.951   5.106  17.951  0.00  0.00    +0.000 A 
ATOM      9  C   UNL     1       3.705   4.030  17.454  0.00  0.00    +0.000 A 
ATOM     10  C   UNL     1       4.886   4.278  16.772  0.00  0.00    +0.000 A 
ATOM     11  C   UNL     1       5.307   5.584  16.569  0.00  0.00    +0.000 A 
ATOM     12  C   UNL     1       4.550   6.657  17.074  0.00  0.00    +0.000 A 
BRANCH  10  13
ATOM     13  O   UNL     1       5.662   3.268  16.287  0.00  0.00    +0.000 OA
ATOM     14  H   UNL     1       6.031   3.535  15.428  0.00  0.00    +0.000 HD
ENDBRANCH  10  13
ENDBRANCH   4   7
BRANCH   1  15
ATOM     15  C   UNL     1       0.179  10.972  19.998  0.00  0.00    +0.000 C 
ATOM     16  O   UNL     1       0.836  11.952  20.370  0.00  0.00    +0.000 OA
BRANCH  15  23
ATOM     17  C   UNL     1      -7.371  13.015  17.987  0.00  0.00    +0.000 C 
ATOM     18  C   UNL     1      -5.960  12.530  18.154  0.00  0.00    +0.000 C 
ATOM     19  C   UNL     1      -5.298  12.705  19.317  0.00  0.00    +0.000 C 
ATOM     20  C   UNL     1      -3.877  12.249  19.425  0.00  0.00    +0.000 C 
ATOM     21  N   UNL     1      -3.286  12.591  20.516  0.00  0.00    +0.000 NA
ATOM     22  C   UNL     1      -1.867  12.306  20.668  0.00  0.00    +0.000 C 
ATOM     23  C   UNL     1      -1.372  11.066  19.956  0.00  0.00    +0.000 C 
ATOM     24  C   UNL     1      -1.890  11.100  18.486  0.00  0.00    +0.000 C 
ATOM     25  N   UNL     1      -3.298  11.542  18.372  0.00  0.00    +0.000 N 
ATOM     26  C   UNL     1      -4.030  11.420  17.186  0.00  0.00    +0.000 C 
ATOM     27  C   UNL     1      -5.290  11.884  17.040  0.00  0.00    +0.000 C 
ENDBRANCH  15  23
ENDBRANCH   1  15
TORSDOF 4
ENDMDL
MODEL 6
REMARK VINA RESULT:      -8.4      1.557      2.352
REMARK  Name = 
REMARK  5 active torsions:
REMARK  status: ('A' for Active; 'I' for Inactive)
REMARK    1  A    between atoms: C_1  and  C_2
REMARK    2  A    between atoms: C_7  and  C_8
REMARK    3  A    between atoms: C_8  and  C_10
REMARK    4  A    between atoms: C_13  and  C_14
REMARK    5  A    between atoms: C_17  and  O_18
REMARK                            x       y       z     vdW  Elec       q    Type
REMARK                         _______ _______ _______ _____ _____    ______ ____
ROOT
ATOM      1  C   UNL     1       1.101   9.670  19.482  0.00  0.00    +0.000 A 
ATOM      2  C   UNL     1       1.402   8.508  20.216  0.00  0.00    +0.000 A 
ATOM      3  C   UNL     1       2.172   7.449  19.677  0.00  0.00    +0.000 A 
ATOM      4  C   UNL     1       2.672   7.475  18.365  0.00  0.00    +0.000 A 
ATOM      5  C   UNL     1       2.335   8.618  17.622  0.00  0.00    +0.000 A 
ATOM      6  C   UNL     1       1.576   9.693  18.168  0.00  0.00    +0.000 A 
ENDROOT
BRANCH   4   7
ATOM      7  C   UNL     1       3.518   6.363  17.823  0.00  0.00    +0.000 A 
ATOM      8  C   UNL     1       4.755   6.616  17.191  0.00  0.00    +0.000 A 
ATOM      9  C   UNL     1       5.526   5.594  16.609  0.00  0.00    +0.000 A 
ATOM     10  C   UNL     1       5.076   4.284  16.659  0.00  0.00    +0.000 A 
ATOM     11  C   UNL     1       3.882   3.986  17.296  0.00  0.00    +0.000 A 
ATOM     12  C   UNL     1       3.112   5.014  17.872  0.00  0.00    +0.000 A 
BRANCH  10  13
ATOM     13  O   UNL     1       5.778   3.261  16.093  0.00  0.00    +0.000 OA
ATOM     14  H   UNL     1       6.070   3.529  15.206  0.00  0.00    +0.000 HD
ENDBRANCH  10  13
ENDBRANCH   4   7
BRANCH   1  15
ATOM     15  C   UNL     1       0.260  10.742  20.189  0.00  0.00    +0.000 C 
ATOM     16  O   UNL     1       0.890  11.578  20.850  0.00  0.00    +0.000 OA
BRANCH  15  23
ATOM     17  C   UNL     1      -7.106  12.826  17.616  0.00  0.00    +0.000 C 
ATOM     18  C   UNL     1      -5.723  12.315  17.898  0.00  0.00    +0.000 C 
ATOM     19  C   UNL     1      -5.112  12.575  19.073  0.00  0.00    +0.000 C 
ATOM     20  C   UNL     1      -3.715  12.087  19.295  0.00  0.00    +0.000 C 
ATOM     21  N   UNL     1      -3.167  12.510  20.380  0.00  0.00    +0.000 NA
ATOM     22  C   UNL     1      -1.767  12.195  20.630  0.00  0.00    +0.000 C 
ATOM     23  C   UNL     1      -1.283  10.881  20.059  0.00  0.00    +0.000 C 
ATOM     24  C   UNL     1      -1.727  10.796  18.567  0.00  0.00    +0.000 C 
ATOM     25  N   UNL     1      -3.112  11.269  18.342  0.00  0.00    +0.000 N 
ATOM     26  C   UNL     1      -3.789  11.061  17.135  0.00  0.00    +0.000 C 
ATOM     27  C   UNL     1      -5.024  11.549  16.883  0.00  0.00    +0.000 C 
ENDBRANCH  15  23
ENDBRANCH   1  15
TORSDOF 4
ENDMDL
MODEL 7
REMARK VINA RESULT:      -8.4      1.441      2.106
REMARK  Name = 
REMARK  5 active torsions:
REMARK  status: ('A' for Active; 'I' for Inactive)
REMARK    1  A    between atoms: C_1  and  C_2
REMARK    2  A    between atoms: C_7  and  C_8
REMARK    3  A    between atoms: C_8  and  C_10
REMARK    4  A    between atoms: C_13  and  C_14
REMARK    5  A    between atoms: C_17  and  O_18
REMARK                            x       y       z     vdW  Elec       q    Type
REMARK                         _______ _______ _______ _____ _____    ______ ____
ROOT
ATOM      1  C   UNL     1       1.162   9.468  19.427  0.00  0.00    +0.000 A 
ATOM      2  C   UNL     1       1.752   9.570  18.154  0.00  0.00    +0.000 A 
ATOM      3  C   UNL     1       2.568   8.549  17.612  0.00  0.00    +0.000 A 
ATOM      4  C   UNL     1       2.864   7.370  18.316  0.00  0.00    +0.000 A 
ATOM      5  C   UNL     1       2.307   7.290  19.602  0.00  0.00    +0.000 A 
ATOM      6  C   UNL     1       1.471   8.308  20.143  0.00  0.00    +0.000 A 
ENDROOT
BRANCH   4   7
ATOM      7  C   UNL     1       3.698   6.282  17.712  0.00  0.00    +0.000 A 
ATOM      8  C   UNL     1       4.730   6.565  16.791  0.00  0.00    +0.000 A 
ATOM      9  C   UNL     1       5.472   5.553  16.156  0.00  0.00    +0.000 A 
ATOM     10  C   UNL     1       5.202   4.224  16.443  0.00  0.00    +0.000 A 
ATOM     11  C   UNL     1       4.217   3.900  17.363  0.00  0.00    +0.000 A 
ATOM     12  C   UNL     1       3.475   4.918  17.991  0.00  0.00    +0.000 A 
BRANCH  10  13
ATOM     13  O   UNL     1       5.880   3.207  15.840  0.00  0.00    +0.000 OA
ATOM     14  H   UNL     1       6.793   3.492  15.667  0.00  0.00    +0.000 HD
ENDBRANCH  10  13
ENDBRANCH   4   7
BRANCH   1  15
ATOM     15  C   UNL     1       0.296  10.647  19.892  0.00  0.00    +0.000 C 
ATOM     16  O   UNL     1       0.649  11.199  20.942  0.00  0.00    +0.000 OA
BRANCH  15  23
ATOM     17  C   UNL     1      -7.195  12.672  17.654  0.00  0.00    +0.000 C 
ATOM     18  C   UNL     1      -5.831  12.448  18.242  0.00  0.00    +0.000 C 
ATOM     19  C   UNL     1      -4.933  11.650  17.629  0.00  0.00    +0.000 C 
ATOM     20  C   UNL     1      -3.603  11.417  18.274  0.00  0.00    +0.000 C 
ATOM     21  N   UNL     1      -2.874  10.529  17.693  0.00  0.00    +0.000 NA
ATOM     22  C   UNL     1      -1.615  10.137  18.310  0.00  0.00    +0.000 C 
ATOM     23  C   UNL     1      -0.913  11.220  19.100  0.00  0.00    +0.000 C 
ATOM     24  C   UNL     1      -1.947  11.881  20.061  0.00  0.00    +0.000 C 
ATOM     25  N   UNL     1      -3.263  12.122  19.427  0.00  0.00    +0.000 N 
ATOM     26  C   UNL     1      -4.251  12.912  20.025  0.00  0.00    +0.000 C 
ATOM     27  C   UNL     1      -5.483  13.084  19.499  0.00  0.00    +0.000 C 
ENDBRANCH  15  23
ENDBRANCH   1  15
TORSDOF 4
ENDMDL
MODEL 8
REMARK VINA RESULT:      -8.3      0.264      1.345
REMARK  Name = 
REMARK  5 active torsions:
REMARK  status: ('A' for Active; 'I' for Inactive)
REMARK    1  A    between atoms: C_1  and  C_2
REMARK    2  A    between atoms: C_7  and  C_8
REMARK    3  A    between atoms: C_8  and  C_10
REMARK    4  A    between atoms: C_13  and  C_14
REMARK    5  A    between atoms: C_17  and  O_18
REMARK                            x       y       z     vdW  Elec       q    Type
REMARK                         _______ _______ _______ _____ _____    ______ ____
ROOT
ATOM      1  C   UNL     1       1.331   9.696  18.958  0.00  0.00    +0.000 A 
ATOM      2  C   UNL     1       2.160   9.123  17.977  0.00  0.00    +0.000 A 
ATOM      3  C   UNL     1       2.757   7.849  18.137  0.00  0.00    +0.000 A 
ATOM      4  C   UNL     1       2.579   7.077  19.296  0.00  0.00    +0.000 A 
ATOM      5  C   UNL     1       1.784   7.669  20.290  0.00  0.00    +0.000 A 
ATOM      6  C   UNL     1       1.168   8.943  20.124  0.00  0.00    +0.000 A 
ENDROOT
BRANCH   4   7
ATOM      7  C   UNL     1       3.186   5.713  19.434  0.00  0.00    +0.000 A 
ATOM      8  C   UNL     1       4.428   5.393  18.843  0.00  0.00    +0.000 A 
ATOM      9  C   UNL     1       4.976   4.099  18.896  0.00  0.00    +0.000 A 
ATOM     10  C   UNL     1       4.292   3.093  19.559  0.00  0.00    +0.000 A 
ATOM     11  C   UNL     1       3.083   3.369  20.179  0.00  0.00    +0.000 A 
ATOM     12  C   UNL     1       2.537   4.665  20.118  0.00  0.00    +0.000 A 
BRANCH  10  13
ATOM     13  O   UNL     1       4.772   1.818  19.622  0.00  0.00    +0.000 OA
ATOM     14  H   UNL     1       4.139   1.218  19.194  0.00  0.00    +0.000 HD
ENDBRANCH  10  13
ENDBRANCH   4   7
BRANCH   1  15
ATOM     15  C   UNL     1       0.746  11.082  18.655  0.00  0.00    +0.000 C 
ATOM     16  O   UNL     1       1.540  12.030  18.705  0.00  0.00    +0.000 OA
BRANCH  15  23
ATOM     17  C   UNL     1      -7.313  11.610  18.650  0.00  0.00    +0.000 C 
ATOM     18  C   UNL     1      -5.821  11.683  18.807  0.00  0.00    +0.000 C 
ATOM     19  C   UNL     1      -5.004  10.946  18.028  0.00  0.00    +0.000 C 
ATOM     20  C   UNL     1      -3.526  11.012  18.250  0.00  0.00    +0.000 C 
ATOM     21  N   UNL     1      -2.841  10.166  17.561  0.00  0.00    +0.000 NA
ATOM     22  C   UNL     1      -1.408  10.063  17.795  0.00  0.00    +0.000 C 
ATOM     23  C   UNL     1      -0.724  11.344  18.222  0.00  0.00    +0.000 C 
ATOM     24  C   UNL     1      -1.544  11.978  19.387  0.00  0.00    +0.000 C 
ATOM     25  N   UNL     1      -3.007  11.923  19.169  0.00  0.00    +0.000 N 
ATOM     26  C   UNL     1      -3.911  12.637  19.963  0.00  0.00    +0.000 C 
ATOM     27  C   UNL     1      -5.253  12.543  19.829  0.00  0.00    +0.000 C 
ENDBRANCH  15  23
ENDBRANCH   1  15
TORSDOF 4
ENDMDL
MODEL 9
REMARK VINA RESULT:      -8.2      0.859      1.826
REMARK  Name = 
REMARK  5 active torsions:
REMARK  status: ('A' for Active; 'I' for Inactive)
REMARK    1  A    between atoms: C_1  and  C_2
REMARK    2  A    between atoms: C_7  and  C_8
REMARK    3  A    between atoms: C_8  and  C_10
REMARK    4  A    between atoms: C_13  and  C_14
REMARK    5  A    between atoms: C_17  and  O_18
REMARK                            x       y       z     vdW  Elec       q    Type
REMARK                         _______ _______ _______ _____ _____    ______ ____
ROOT
ATOM      1  C   UNL     1       0.824   9.586  19.385  0.00  0.00    +0.000 A 
ATOM      2  C   UNL     1       1.447   9.060  18.239  0.00  0.00    +0.000 A 
ATOM      3  C   UNL     1       2.178   7.848  18.262  0.00  0.00    +0.000 A 
ATOM      4  C   UNL     1       2.350   7.097  19.435  0.00  0.00    +0.000 A 
ATOM      5  C   UNL     1       1.761   7.646  20.586  0.00  0.00    +0.000 A 
ATOM      6  C   UNL     1       1.010   8.856  20.562  0.00  0.00    +0.000 A 
ENDROOT
BRANCH   4   7
ATOM      7  C   UNL     1       3.094   5.796  19.434  0.00  0.00    +0.000 A 
ATOM      8  C   UNL     1       2.501   4.604  19.906  0.00  0.00    +0.000 A 
ATOM      9  C   UNL     1       3.207   3.391  19.985  0.00  0.00    +0.000 A 
ATOM     10  C   UNL     1       4.531   3.342  19.577  0.00  0.00    +0.000 A 
ATOM     11  C   UNL     1       5.145   4.481  19.079  0.00  0.00    +0.000 A 
ATOM     12  C   UNL     1       4.434   5.693  19.008  0.00  0.00    +0.000 A 
BRANCH  10  13
ATOM     13  O   UNL     1       5.263   2.195  19.651  0.00  0.00    +0.000 OA
ATOM     14  H   UNL     1       5.965   2.221  18.979  0.00  0.00    +0.000 HD
ENDBRANCH  10  13
ENDBRANCH   4   7
BRANCH   1  15
ATOM     15  C   UNL     1       0.059  10.907  19.219  0.00  0.00    +0.000 C 
ATOM     16  O   UNL     1       0.722  11.871  18.815  0.00  0.00    +0.000 OA
BRANCH  15  23
ATOM     17  C   UNL     1      -7.609  13.358  18.572  0.00  0.00    +0.000 C 
ATOM     18  C   UNL     1      -6.216  12.802  18.485  0.00  0.00    +0.000 C 
ATOM     19  C   UNL     1      -5.357  12.917  19.519  0.00  0.00    +0.000 C 
ATOM     20  C   UNL     1      -3.964  12.391  19.374  0.00  0.00    +0.000 C 
ATOM     21  N   UNL     1      -3.178  12.677  20.353  0.00  0.00    +0.000 NA
ATOM     22  C   UNL     1      -1.771  12.321  20.253  0.00  0.00    +0.000 C 
ATOM     23  C   UNL     1      -1.469  11.077  19.446  0.00  0.00    +0.000 C 
ATOM     24  C   UNL     1      -2.229  11.172  18.088  0.00  0.00    +0.000 C 
ATOM     25  N   UNL     1      -3.611  11.683  18.226  0.00  0.00    +0.000 N 
ATOM     26  C   UNL     1      -4.540  11.625  17.182  0.00  0.00    +0.000 C 
ATOM     27  C   UNL     1      -5.782  12.152  17.263  0.00  0.00    +0.000 C 
ENDBRANCH  15  23
ENDBRANCH   1  15
TORSDOF 4
ENDMDL
