MODEL 1
REMARK VINA RESULT:      -8.0      0.000      0.000
REMARK  Name = 
REMARK  9 active torsions:
REMARK  status: ('A' for Active; 'I' for Inactive)
REMARK    1  A    between atoms: C_1  and  O_2
REMARK    2  A    between atoms: O_2  and  C_3
REMARK    3  A    between atoms: C_6  and  C_7
REMARK    4  A    between atoms: C_11  and  C_13
REMARK    5  A    between atoms: C_13  and  O_14
REMARK    6  A    between atoms: O_14  and  C_15
REMARK    7  A    between atoms: C_18  and  C_19
REMARK    8  A    between atoms: C_19  and  C_20
REMARK    9  A    between atoms: C_25  and  C_26
REMARK                            x       y       z     vdW  Elec       q    Type
REMARK                         _______ _______ _______ _____ _____    ______ ____
ROOT
ATOM      1  C   UNL     1       5.176   4.619  18.369  0.00  0.00    +0.000 A 
ATOM      2  N   UNL     1       4.774   4.232  19.649  0.00  0.00    +0.000 NA
ATOM      3  C   UNL     1       3.969   3.209  19.552  0.00  0.00    +0.000 A 
ATOM      4  N   UNL     1       3.263   2.592  20.542  0.00  0.00    +0.000 N 
ATOM      5  C   UNL     1       2.134   3.156  21.075  0.00  0.00    +0.000 C 
ATOM      6  O   UNL     1       1.633   2.664  22.089  0.00  0.00    +0.000 OA
ATOM      7  S   UNL     1       3.712   2.566  18.003  0.00  0.00    +0.000 S 
ATOM      8  C   UNL     1       4.679   3.824  17.339  0.00  0.00    +0.000 A 
ATOM      9  C   UNL     1       4.873   3.869  15.863  0.00  0.00    +0.000 C 
ATOM     10  H   UNL     1       3.768   1.985  21.173  0.00  0.00    +0.000 HD
ENDROOT
BRANCH   1  14
ATOM     11  C   UNL     1       7.764   8.002  17.855  0.00  0.00    +0.000 A 
ATOM     12  C   UNL     1       6.543   7.924  17.185  0.00  0.00    +0.000 A 
ATOM     13  C   UNL     1       5.703   6.817  17.361  0.00  0.00    +0.000 A 
ATOM     14  C   UNL     1       6.079   5.758  18.197  0.00  0.00    +0.000 A 
ATOM     15  C   UNL     1       7.331   5.827  18.822  0.00  0.00    +0.000 A 
ATOM     16  C   UNL     1       8.160   6.944  18.667  0.00  0.00    +0.000 A 
BRANCH  11  18
ATOM     17  C   UNL     1       8.933   9.841  18.762  0.00  0.00    +0.000 C 
ATOM     18  O   UNL     1       8.510   9.120  17.608  0.00  0.00    +0.000 OA
ENDBRANCH  11  18
ENDBRANCH   1  14
BRANCH   5  19
ATOM     19  C   UNL     1       1.496   4.365  20.371  0.00  0.00    +0.000 C 
BRANCH  19  20
ATOM     20  O   UNL     1       2.006   5.532  21.000  0.00  0.00    +0.000 OA
BRANCH  20  21
ATOM     21  C   UNL     1       1.836   6.717  20.346  0.00  0.00    +0.000 A 
ATOM     22  C   UNL     1       1.104   7.665  21.060  0.00  0.00    +0.000 A 
ATOM     23  C   UNL     1       0.876   8.945  20.544  0.00  0.00    +0.000 A 
ATOM     24  C   UNL     1       1.401   9.299  19.303  0.00  0.00    +0.000 A 
ATOM     25  C   UNL     1       2.153   8.347  18.591  0.00  0.00    +0.000 A 
ATOM     26  C   UNL     1       2.372   7.059  19.106  0.00  0.00    +0.000 A 
BRANCH  24  27
ATOM     27  C   UNL     1       1.226  10.657  18.694  0.00  0.00    +0.000 C 
ATOM     28  C   UNL     1       2.354  11.326  17.936  0.00  0.00    +0.000 C 
ATOM     29  O   UNL     1       0.145  11.230  18.812  0.00  0.00    +0.000 OA
ENDBRANCH  24  27
ENDBRANCH  20  21
ENDBRANCH  19  20
ENDBRANCH   5  19
TORSDOF 6
ENDMDL
MODEL 2
REMARK VINA RESULT:      -7.9      0.647      1.147
REMARK  Name = 
REMARK  9 active torsions:
REMARK  status: ('A' for Active; 'I' for Inactive)
REMARK    1  A    between atoms: C_1  and  O_2
REMARK    2  A    between atoms: O_2  and  C_3
REMARK    3  A    between atoms: C_6  and  C_7
REMARK    4  A    between atoms: C_11  and  C_13
REMARK    5  A    between atoms: C_13  and  O_14
REMARK    6  A    between atoms: O_14  and  C_15
REMARK    7  A    between atoms: C_18  and  C_19
REMARK    8  A    between atoms: C_19  and  C_20
REMARK    9  A    between atoms: C_25  and  C_26
REMARK                            x       y       z     vdW  Elec       q    Type
REMARK                         _______ _______ _______ _____ _____    ______ ____
ROOT
ATOM      1  C   UNL     1       5.062   4.430  18.430  0.00  0.00    +0.000 A 
ATOM      2  N   UNL     1       4.647   4.056  19.710  0.00  0.00    +0.000 NA
ATOM      3  C   UNL     1       3.842   3.033  19.615  0.00  0.00    +0.000 A 
ATOM      4  N   UNL     1       3.126   2.426  20.604  0.00  0.00    +0.000 N 
ATOM      5  C   UNL     1       1.992   2.997  21.121  0.00  0.00    +0.000 C 
ATOM      6  O   UNL     1       1.481   2.515  22.134  0.00  0.00    +0.000 OA
ATOM      7  S   UNL     1       3.598   2.376  18.070  0.00  0.00    +0.000 S 
ATOM      8  C   UNL     1       4.574   3.625  17.403  0.00  0.00    +0.000 A 
ATOM      9  C   UNL     1       4.781   3.656  15.929  0.00  0.00    +0.000 C 
ATOM     10  H   UNL     1       3.623   1.825  21.246  0.00  0.00    +0.000 HD
ENDROOT
BRANCH   1  14
ATOM     11  C   UNL     1       7.773   7.717  17.935  0.00  0.00    +0.000 A 
ATOM     12  C   UNL     1       8.057   6.682  18.825  0.00  0.00    +0.000 A 
ATOM     13  C   UNL     1       7.168   5.610  18.978  0.00  0.00    +0.000 A 
ATOM     14  C   UNL     1       5.968   5.567  18.256  0.00  0.00    +0.000 A 
ATOM     15  C   UNL     1       5.673   6.640  17.406  0.00  0.00    +0.000 A 
ATOM     16  C   UNL     1       6.572   7.698  17.233  0.00  0.00    +0.000 A 
BRANCH  11  18
ATOM     17  C   UNL     1       8.188  10.041  17.960  0.00  0.00    +0.000 C 
ATOM     18  O   UNL     1       8.704   8.716  17.866  0.00  0.00    +0.000 OA
ENDBRANCH  11  18
ENDBRANCH   1  14
BRANCH   5  19
ATOM     19  C   UNL     1       1.363   4.200  20.399  0.00  0.00    +0.000 C 
BRANCH  19  20
ATOM     20  O   UNL     1       1.857   5.371  21.031  0.00  0.00    +0.000 OA
BRANCH  20  21
ATOM     21  C   UNL     1       1.811   6.532  20.315  0.00  0.00    +0.000 A 
ATOM     22  C   UNL     1       1.165   7.582  20.969  0.00  0.00    +0.000 A 
ATOM     23  C   UNL     1       1.067   8.849  20.385  0.00  0.00    +0.000 A 
ATOM     24  C   UNL     1       1.639   9.087  19.137  0.00  0.00    +0.000 A 
ATOM     25  C   UNL     1       2.305   8.031  18.487  0.00  0.00    +0.000 A 
ATOM     26  C   UNL     1       2.392   6.756  19.070  0.00  0.00    +0.000 A 
BRANCH  24  27
ATOM     27  C   UNL     1       1.605  10.421  18.457  0.00  0.00    +0.000 C 
ATOM     28  C   UNL     1       0.751  11.551  18.993  0.00  0.00    +0.000 C 
ATOM     29  O   UNL     1       2.286  10.595  17.449  0.00  0.00    +0.000 OA
ENDBRANCH  24  27
ENDBRANCH  20  21
ENDBRANCH  19  20
ENDBRANCH   5  19
TORSDOF 6
ENDMDL
MODEL 3
REMARK VINA RESULT:      -7.8      0.275      1.312
REMARK  Name = 
REMARK  9 active torsions:
REMARK  status: ('A' for Active; 'I' for Inactive)
REMARK    1  A    between atoms: C_1  and  O_2
REMARK    2  A    between atoms: O_2  and  C_3
REMARK    3  A    between atoms: C_6  and  C_7
REMARK    4  A    between atoms: C_11  and  C_13
REMARK    5  A    between atoms: C_13  and  O_14
REMARK    6  A    between atoms: O_14  and  C_15
REMARK    7  A    between atoms: C_18  and  C_19
REMARK    8  A    between atoms: C_19  and  C_20
REMARK    9  A    between atoms: C_25  and  C_26
REMARK                            x       y       z     vdW  Elec       q    Type
REMARK                         _______ _______ _______ _____ _____    ______ ____
ROOT
ATOM      1  C   UNL     1       5.286   4.747  18.300  0.00  0.00    +0.000 A 
ATOM      2  N   UNL     1       4.939   4.287  19.572  0.00  0.00    +0.000 NA
ATOM      3  C   UNL     1       4.158   3.248  19.451  0.00  0.00    +0.000 A 
ATOM      4  N   UNL     1       3.504   2.563  20.431  0.00  0.00    +0.000 N 
ATOM      5  C   UNL     1       2.380   3.069  21.031  0.00  0.00    +0.000 C 
ATOM      6  O   UNL     1       1.928   2.514  22.035  0.00  0.00    +0.000 OA
ATOM      7  S   UNL     1       3.862   2.676  17.881  0.00  0.00    +0.000 S 
ATOM      8  C   UNL     1       4.773   3.991  17.249  0.00  0.00    +0.000 A 
ATOM      9  C   UNL     1       4.913   4.115  15.771  0.00  0.00    +0.000 C 
ATOM     10  H   UNL     1       4.046   1.940  21.014  0.00  0.00    +0.000 HD
ENDROOT
BRANCH   1  14
ATOM     11  C   UNL     1       7.884   8.136  17.887  0.00  0.00    +0.000 A 
ATOM     12  C   UNL     1       8.225   7.067  18.716  0.00  0.00    +0.000 A 
ATOM     13  C   UNL     1       7.372   5.963  18.843  0.00  0.00    +0.000 A 
ATOM     14  C   UNL     1       6.153   5.918  18.155  0.00  0.00    +0.000 A 
ATOM     15  C   UNL     1       5.800   7.022  17.368  0.00  0.00    +0.000 A 
ATOM     16  C   UNL     1       6.663   8.114  17.221  0.00  0.00    +0.000 A 
BRANCH  11  18
ATOM     17  C   UNL     1       9.015   9.832  19.078  0.00  0.00    +0.000 C 
ATOM     18  O   UNL     1       8.783   9.165  17.840  0.00  0.00    +0.000 OA
ENDBRANCH  11  18
ENDBRANCH   1  14
BRANCH   5  19
ATOM     19  C   UNL     1       1.687   4.294  20.411  0.00  0.00    +0.000 C 
BRANCH  19  20
ATOM     20  O   UNL     1       2.062   5.423  21.185  0.00  0.00    +0.000 OA
BRANCH  20  21
ATOM     21  C   UNL     1       1.838   6.654  20.642  0.00  0.00    +0.000 A 
ATOM     22  C   UNL     1       2.393   6.829  19.374  0.00  0.00    +0.000 A 
ATOM     23  C   UNL     1       2.220   8.023  18.665  0.00  0.00    +0.000 A 
ATOM     24  C   UNL     1       1.464   9.055  19.214  0.00  0.00    +0.000 A 
ATOM     25  C   UNL     1       0.890   8.871  20.486  0.00  0.00    +0.000 A 
ATOM     26  C   UNL     1       1.075   7.676  21.201  0.00  0.00    +0.000 A 
BRANCH  24  27
ATOM     27  C   UNL     1       1.206  10.351  18.508  0.00  0.00    +0.000 C 
ATOM     28  C   UNL     1       2.346  11.190  17.969  0.00  0.00    +0.000 C 
ATOM     29  O   UNL     1       0.046  10.733  18.365  0.00  0.00    +0.000 OA
ENDBRANCH  24  27
ENDBRANCH  20  21
ENDBRANCH  19  20
ENDBRANCH   5  19
TORSDOF 6
ENDMDL
MODEL 4
REMARK VINA RESULT:      -7.2      3.315      4.777
REMARK  Name = 
REMARK  9 active torsions:
REMARK  status: ('A' for Active; 'I' for Inactive)
REMARK    1  A    between atoms: C_1  and  O_2
REMARK    2  A    between atoms: O_2  and  C_3
REMARK    3  A    between atoms: C_6  and  C_7
REMARK    4  A    between atoms: C_11  and  C_13
REMARK    5  A    between atoms: C_13  and  O_14
REMARK    6  A    between atoms: O_14  and  C_15
REMARK    7  A    between atoms: C_18  and  C_19
REMARK    8  A    between atoms: C_19  and  C_20
REMARK    9  A    between atoms: C_25  and  C_26
REMARK                            x       y       z     vdW  Elec       q    Type
REMARK                         _______ _______ _______ _____ _____    ______ ____
ROOT
ATOM      1  C   UNL     1       3.228   5.628  18.568  0.00  0.00    +0.000 A 
ATOM      2  N   UNL     1       3.285   6.560  19.606  0.00  0.00    +0.000 NA
ATOM      3  C   UNL     1       2.212   6.445  20.341  0.00  0.00    +0.000 A 
ATOM      4  N   UNL     1       1.813   7.229  21.383  0.00  0.00    +0.000 N 
ATOM      5  C   UNL     1       1.280   8.475  21.179  0.00  0.00    +0.000 C 
ATOM      6  O   UNL     1       1.107   9.224  22.143  0.00  0.00    +0.000 OA
ATOM      7  S   UNL     1       1.131   5.197  19.949  0.00  0.00    +0.000 S 
ATOM      8  C   UNL     1       2.108   4.801  18.590  0.00  0.00    +0.000 A 
ATOM      9  C   UNL     1       1.675   3.685  17.705  0.00  0.00    +0.000 C 
ATOM     10  H   UNL     1       2.289   7.115  22.267  0.00  0.00    +0.000 HD
ENDROOT
BRANCH   1  14
ATOM     11  C   UNL     1       6.403   5.344  15.696  0.00  0.00    +0.000 A 
ATOM     12  C   UNL     1       6.241   4.373  16.684  0.00  0.00    +0.000 A 
ATOM     13  C   UNL     1       5.199   4.472  17.615  0.00  0.00    +0.000 A 
ATOM     14  C   UNL     1       4.312   5.556  17.587  0.00  0.00    +0.000 A 
ATOM     15  C   UNL     1       4.521   6.550  16.622  0.00  0.00    +0.000 A 
ATOM     16  C   UNL     1       5.546   6.440  15.675  0.00  0.00    +0.000 A 
BRANCH  11  18
ATOM     17  C   UNL     1       7.111   4.667  13.549  0.00  0.00    +0.000 C 
ATOM     18  O   UNL     1       7.454   5.156  14.842  0.00  0.00    +0.000 OA
ENDBRANCH  11  18
ENDBRANCH   1  14
BRANCH   5  19
ATOM     19  C   UNL     1       0.872   8.891  19.756  0.00  0.00    +0.000 C 
BRANCH  19  20
ATOM     20  O   UNL     1       0.429  10.238  19.826  0.00  0.00    +0.000 OA
BRANCH  20  21
ATOM     21  C   UNL     1      -0.671  10.572  19.090  0.00  0.00    +0.000 A 
ATOM     22  C   UNL     1      -0.808   9.848  17.905  0.00  0.00    +0.000 A 
ATOM     23  C   UNL     1      -1.904  10.044  17.058  0.00  0.00    +0.000 A 
ATOM     24  C   UNL     1      -2.895  10.960  17.403  0.00  0.00    +0.000 A 
ATOM     25  C   UNL     1      -2.764  11.677  18.607  0.00  0.00    +0.000 A 
ATOM     26  C   UNL     1      -1.657  11.487  19.450  0.00  0.00    +0.000 A 
BRANCH  24  27
ATOM     27  C   UNL     1      -4.113  11.207  16.567  0.00  0.00    +0.000 C 
ATOM     28  C   UNL     1      -5.284  12.002  17.104  0.00  0.00    +0.000 C 
ATOM     29  O   UNL     1      -4.154  10.756  15.424  0.00  0.00    +0.000 OA
ENDBRANCH  24  27
ENDBRANCH  20  21
ENDBRANCH  19  20
ENDBRANCH   5  19
TORSDOF 6
ENDMDL
MODEL 5
REMARK VINA RESULT:      -7.1      3.130      4.396
REMARK  Name = 
REMARK  9 active torsions:
REMARK  status: ('A' for Active; 'I' for Inactive)
REMARK    1  A    between atoms: C_1  and  O_2
REMARK    2  A    between atoms: O_2  and  C_3
REMARK    3  A    between atoms: C_6  and  C_7
REMARK    4  A    between atoms: C_11  and  C_13
REMARK    5  A    between atoms: C_13  and  O_14
REMARK    6  A    between atoms: O_14  and  C_15
REMARK    7  A    between atoms: C_18  and  C_19
REMARK    8  A    between atoms: C_19  and  C_20
REMARK    9  A    between atoms: C_25  and  C_26
REMARK                            x       y       z     vdW  Elec       q    Type
REMARK                         _______ _______ _______ _____ _____    ______ ____
ROOT
ATOM      1  C   UNL     1       3.686   5.197  18.310  0.00  0.00    +0.000 A 
ATOM      2  N   UNL     1       3.671   6.154  19.327  0.00  0.00    +0.000 NA
ATOM      3  C   UNL     1       2.561   6.038  20.005  0.00  0.00    +0.000 A 
ATOM      4  N   UNL     1       2.094   6.838  21.004  0.00  0.00    +0.000 N 
ATOM      5  C   UNL     1       1.553   8.071  20.742  0.00  0.00    +0.000 C 
ATOM      6  O   UNL     1       1.316   8.838  21.677  0.00  0.00    +0.000 OA
ATOM      7  S   UNL     1       1.523   4.763  19.584  0.00  0.00    +0.000 S 
ATOM      8  C   UNL     1       2.579   4.353  18.290  0.00  0.00    +0.000 A 
ATOM      9  C   UNL     1       2.213   3.209  17.409  0.00  0.00    +0.000 C 
ATOM     10  H   UNL     1       2.521   6.753  21.916  0.00  0.00    +0.000 HD
ENDROOT
BRANCH   1  14
ATOM     11  C   UNL     1       6.992   5.029  15.581  0.00  0.00    +0.000 A 
ATOM     12  C   UNL     1       5.725   5.421  15.149  0.00  0.00    +0.000 A 
ATOM     13  C   UNL     1       4.652   5.476  16.048  0.00  0.00    +0.000 A 
ATOM     14  C   UNL     1       4.824   5.121  17.392  0.00  0.00    +0.000 A 
ATOM     15  C   UNL     1       6.090   4.679  17.798  0.00  0.00    +0.000 A 
ATOM     16  C   UNL     1       7.169   4.648  16.907  0.00  0.00    +0.000 A 
BRANCH  11  18
ATOM     17  C   UNL     1       7.503   5.037  13.276  0.00  0.00    +0.000 C 
ATOM     18  O   UNL     1       7.967   5.003  14.623  0.00  0.00    +0.000 OA
ENDBRANCH  11  18
ENDBRANCH   1  14
BRANCH   5  19
ATOM     19  C   UNL     1       1.218   8.447  19.289  0.00  0.00    +0.000 C 
BRANCH  19  20
ATOM     20  O   UNL     1       1.113   9.862  19.238  0.00  0.00    +0.000 OA
BRANCH  20  21
ATOM     21  C   UNL     1      -0.128  10.387  19.021  0.00  0.00    +0.000 A 
ATOM     22  C   UNL     1      -0.781   9.868  17.903  0.00  0.00    +0.000 A 
ATOM     23  C   UNL     1      -2.076  10.275  17.566  0.00  0.00    +0.000 A 
ATOM     24  C   UNL     1      -2.746  11.199  18.365  0.00  0.00    +0.000 A 
ATOM     25  C   UNL     1      -2.092  11.709  19.502  0.00  0.00    +0.000 A 
ATOM     26  C   UNL     1      -0.787  11.307  19.832  0.00  0.00    +0.000 A 
BRANCH  24  27
ATOM     27  C   UNL     1      -4.143  11.664  18.090  0.00  0.00    +0.000 C 
ATOM     28  C   UNL     1      -4.772  11.491  16.723  0.00  0.00    +0.000 C 
ATOM     29  O   UNL     1      -4.786  12.190  18.996  0.00  0.00    +0.000 OA
ENDBRANCH  24  27
ENDBRANCH  20  21
ENDBRANCH  19  20
ENDBRANCH   5  19
TORSDOF 6
ENDMDL
MODEL 6
REMARK VINA RESULT:      -7.0      3.258      4.452
REMARK  Name = 
REMARK  9 active torsions:
REMARK  status: ('A' for Active; 'I' for Inactive)
REMARK    1  A    between atoms: C_1  and  O_2
REMARK    2  A    between atoms: O_2  and  C_3
REMARK    3  A    between atoms: C_6  and  C_7
REMARK    4  A    between atoms: C_11  and  C_13
REMARK    5  A    between atoms: C_13  and  O_14
REMARK    6  A    between atoms: O_14  and  C_15
REMARK    7  A    between atoms: C_18  and  C_19
REMARK    8  A    between atoms: C_19  and  C_20
REMARK    9  A    between atoms: C_25  and  C_26
REMARK                            x       y       z     vdW  Elec       q    Type
REMARK                         _______ _______ _______ _____ _____    ______ ____
ROOT
ATOM      1  C   UNL     1       3.387   5.494  18.620  0.00  0.00    +0.000 A 
ATOM      2  N   UNL     1       3.411   6.392  19.689  0.00  0.00    +0.000 NA
ATOM      3  C   UNL     1       2.278   6.319  20.333  0.00  0.00    +0.000 A 
ATOM      4  N   UNL     1       1.840   7.094  21.365  0.00  0.00    +0.000 N 
ATOM      5  C   UNL     1       1.394   8.375  21.160  0.00  0.00    +0.000 C 
ATOM      6  O   UNL     1       1.186   9.105  22.131  0.00  0.00    +0.000 OA
ATOM      7  S   UNL     1       1.165   5.146  19.817  0.00  0.00    +0.000 S 
ATOM      8  C   UNL     1       2.224   4.733  18.527  0.00  0.00    +0.000 A 
ATOM      9  C   UNL     1       1.804   3.668  17.575  0.00  0.00    +0.000 C 
ATOM     10  H   UNL     1       2.235   6.930  22.280  0.00  0.00    +0.000 HD
ENDROOT
BRANCH   1  14
ATOM     11  C   UNL     1       6.757   5.248  15.977  0.00  0.00    +0.000 A 
ATOM     12  C   UNL     1       5.640   6.014  15.645  0.00  0.00    +0.000 A 
ATOM     13  C   UNL     1       4.545   6.091  16.516  0.00  0.00    +0.000 A 
ATOM     14  C   UNL     1       4.542   5.387  17.727  0.00  0.00    +0.000 A 
ATOM     15  C   UNL     1       5.648   4.581  18.021  0.00  0.00    +0.000 A 
ATOM     16  C   UNL     1       6.754   4.523  17.164  0.00  0.00    +0.000 A 
BRANCH  11  18
ATOM     17  C   UNL     1       7.371   4.948  13.717  0.00  0.00    +0.000 C 
ATOM     18  O   UNL     1       7.766   5.236  15.056  0.00  0.00    +0.000 OA
ENDBRANCH  11  18
ENDBRANCH   1  14
BRANCH   5  19
ATOM     19  C   UNL     1       1.127   8.853  19.723  0.00  0.00    +0.000 C 
BRANCH  19  20
ATOM     20  O   UNL     1       0.401  10.070  19.817  0.00  0.00    +0.000 OA
BRANCH  20  21
ATOM     21  C   UNL     1      -0.633  10.247  18.944  0.00  0.00    +0.000 A 
ATOM     22  C   UNL     1      -1.531  11.248  19.316  0.00  0.00    +0.000 A 
ATOM     23  C   UNL     1      -2.623  11.580  18.507  0.00  0.00    +0.000 A 
ATOM     24  C   UNL     1      -2.818  10.920  17.295  0.00  0.00    +0.000 A 
ATOM     25  C   UNL     1      -1.902   9.923  16.913  0.00  0.00    +0.000 A 
ATOM     26  C   UNL     1      -0.812   9.584  17.732  0.00  0.00    +0.000 A 
BRANCH  24  27
ATOM     27  C   UNL     1      -3.944  11.236  16.360  0.00  0.00    +0.000 C 
ATOM     28  C   UNL     1      -3.970  10.683  14.950  0.00  0.00    +0.000 C 
ATOM     29  O   UNL     1      -4.862  11.954  16.751  0.00  0.00    +0.000 OA
ENDBRANCH  24  27
ENDBRANCH  20  21
ENDBRANCH  19  20
ENDBRANCH   5  19
TORSDOF 6
ENDMDL
MODEL 7
REMARK VINA RESULT:      -7.0      4.757      8.635
REMARK  Name = 
REMARK  9 active torsions:
REMARK  status: ('A' for Active; 'I' for Inactive)
REMARK    1  A    between atoms: C_1  and  O_2
REMARK    2  A    between atoms: O_2  and  C_3
REMARK    3  A    between atoms: C_6  and  C_7
REMARK    4  A    between atoms: C_11  and  C_13
REMARK    5  A    between atoms: C_13  and  O_14
REMARK    6  A    between atoms: O_14  and  C_15
REMARK    7  A    between atoms: C_18  and  C_19
REMARK    8  A    between atoms: C_19  and  C_20
REMARK    9  A    between atoms: C_25  and  C_26
REMARK                            x       y       z     vdW  Elec       q    Type
REMARK                         _______ _______ _______ _____ _____    ______ ____
ROOT
ATOM      1  C   UNL     1      -1.450  11.550  19.239  0.00  0.00    +0.000 A 
ATOM      2  N   UNL     1      -1.587  10.825  20.425  0.00  0.00    +0.000 NA
ATOM      3  C   UNL     1      -0.872  11.394  21.357  0.00  0.00    +0.000 A 
ATOM      4  N   UNL     1      -0.633  10.956  22.625  0.00  0.00    +0.000 N 
ATOM      5  C   UNL     1       0.243   9.932  22.877  0.00  0.00    +0.000 C 
ATOM      6  O   UNL     1       0.291   9.441  24.007  0.00  0.00    +0.000 OA
ATOM      7  S   UNL     1      -0.088  12.845  20.959  0.00  0.00    +0.000 S 
ATOM      8  C   UNL     1      -0.651  12.686  19.341  0.00  0.00    +0.000 A 
ATOM      9  C   UNL     1      -0.268  13.727  18.348  0.00  0.00    +0.000 C 
ATOM     10  H   UNL     1      -1.376  11.048  23.304  0.00  0.00    +0.000 HD
ENDROOT
BRANCH   1  14
ATOM     11  C   UNL     1      -3.522  10.335  15.684  0.00  0.00    +0.000 A 
ATOM     12  C   UNL     1      -4.067  11.293  16.539  0.00  0.00    +0.000 A 
ATOM     13  C   UNL     1      -3.381  11.686  17.696  0.00  0.00    +0.000 A 
ATOM     14  C   UNL     1      -2.147  11.112  18.028  0.00  0.00    +0.000 A 
ATOM     15  C   UNL     1      -1.639  10.114  17.187  0.00  0.00    +0.000 A 
ATOM     16  C   UNL     1      -2.310   9.739  16.017  0.00  0.00    +0.000 A 
BRANCH  11  18
ATOM     17  C   UNL     1      -3.552   9.892  13.366  0.00  0.00    +0.000 C 
ATOM     18  O   UNL     1      -4.274  10.019  14.587  0.00  0.00    +0.000 OA
ENDBRANCH  11  18
ENDBRANCH   1  14
BRANCH   5  19
ATOM     19  C   UNL     1       1.174   9.450  21.752  0.00  0.00    +0.000 C 
BRANCH  19  20
ATOM     20  O   UNL     1       0.813   8.109  21.457  0.00  0.00    +0.000 OA
BRANCH  20  21
ATOM     21  C   UNL     1       1.539   7.465  20.498  0.00  0.00    +0.000 A 
ATOM     22  C   UNL     1       1.900   8.270  19.417  0.00  0.00    +0.000 A 
ATOM     23  C   UNL     1       2.679   7.770  18.368  0.00  0.00    +0.000 A 
ATOM     24  C   UNL     1       3.126   6.451  18.401  0.00  0.00    +0.000 A 
ATOM     25  C   UNL     1       2.775   5.645  19.500  0.00  0.00    +0.000 A 
ATOM     26  C   UNL     1       1.983   6.146  20.546  0.00  0.00    +0.000 A 
BRANCH  24  27
ATOM     27  C   UNL     1       3.986   5.848  17.333  0.00  0.00    +0.000 C 
ATOM     28  C   UNL     1       4.032   4.350  17.117  0.00  0.00    +0.000 C 
ATOM     29  O   UNL     1       4.662   6.588  16.622  0.00  0.00    +0.000 OA
ENDBRANCH  24  27
ENDBRANCH  20  21
ENDBRANCH  19  20
ENDBRANCH   5  19
TORSDOF 6
ENDMDL
MODEL 8
REMARK VINA RESULT:      -7.0      2.740      7.072
REMARK  Name = 
REMARK  9 active torsions:
REMARK  status: ('A' for Active; 'I' for Inactive)
REMARK    1  A    between atoms: C_1  and  O_2
REMARK    2  A    between atoms: O_2  and  C_3
REMARK    3  A    between atoms: C_6  and  C_7
REMARK    4  A    between atoms: C_11  and  C_13
REMARK    5  A    between atoms: C_13  and  O_14
REMARK    6  A    between atoms: O_14  and  C_15
REMARK    7  A    between atoms: C_18  and  C_19
REMARK    8  A    between atoms: C_19  and  C_20
REMARK    9  A    between atoms: C_25  and  C_26
REMARK                            x       y       z     vdW  Elec       q    Type
REMARK                         _______ _______ _______ _____ _____    ______ ____
ROOT
ATOM      1  C   UNL     1       3.232   6.641  18.506  0.00  0.00    +0.000 A 
ATOM      2  N   UNL     1       3.981   6.688  17.328  0.00  0.00    +0.000 NA
ATOM      3  C   UNL     1       4.746   5.632  17.267  0.00  0.00    +0.000 A 
ATOM      4  N   UNL     1       5.709   5.338  16.349  0.00  0.00    +0.000 N 
ATOM      5  C   UNL     1       6.932   5.958  16.370  0.00  0.00    +0.000 C 
ATOM      6  O   UNL     1       7.703   5.807  15.420  0.00  0.00    +0.000 OA
ATOM      7  S   UNL     1       4.576   4.477  18.499  0.00  0.00    +0.000 S 
ATOM      8  C   UNL     1       3.439   5.503  19.281  0.00  0.00    +0.000 A 
ATOM      9  C   UNL     1       2.844   5.053  20.570  0.00  0.00    +0.000 C 
ATOM     10  H   UNL     1       5.411   5.029  15.435  0.00  0.00    +0.000 HD
ENDROOT
BRANCH   1  14
ATOM     11  C   UNL     1       0.462   9.802  19.367  0.00  0.00    +0.000 A 
ATOM     12  C   UNL     1       0.962   9.618  18.079  0.00  0.00    +0.000 A 
ATOM     13  C   UNL     1       1.864   8.582  17.806  0.00  0.00    +0.000 A 
ATOM     14  C   UNL     1       2.296   7.721  18.823  0.00  0.00    +0.000 A 
ATOM     15  C   UNL     1       1.825   7.951  20.122  0.00  0.00    +0.000 A 
ATOM     16  C   UNL     1       0.904   8.970  20.392  0.00  0.00    +0.000 A 
BRANCH  11  18
ATOM     17  C   UNL     1      -1.463  10.915  18.573  0.00  0.00    +0.000 C 
ATOM     18  O   UNL     1      -0.407  10.845  19.527  0.00  0.00    +0.000 OA
ENDBRANCH  11  18
ENDBRANCH   1  14
BRANCH   5  19
ATOM     19  C   UNL     1       7.327   6.795  17.598  0.00  0.00    +0.000 C 
BRANCH  19  20
ATOM     20  O   UNL     1       7.190   8.161  17.234  0.00  0.00    +0.000 OA
BRANCH  20  21
ATOM     21  C   UNL     1       7.997   9.058  17.870  0.00  0.00    +0.000 A 
ATOM     22  C   UNL     1       7.929  10.353  17.356  0.00  0.00    +0.000 A 
ATOM     23  C   UNL     1       8.666  11.399  17.922  0.00  0.00    +0.000 A 
ATOM     24  C   UNL     1       9.472  11.160  19.033  0.00  0.00    +0.000 A 
ATOM     25  C   UNL     1       9.527   9.857  19.561  0.00  0.00    +0.000 A 
ATOM     26  C   UNL     1       8.794   8.806  18.984  0.00  0.00    +0.000 A 
BRANCH  24  27
ATOM     27  C   UNL     1      10.270  12.229  19.715  0.00  0.00    +0.000 C 
ATOM     28  C   UNL     1      10.816  13.411  18.944  0.00  0.00    +0.000 C 
ATOM     29  O   UNL     1      10.477  12.139  20.924  0.00  0.00    +0.000 OA
ENDBRANCH  24  27
ENDBRANCH  20  21
ENDBRANCH  19  20
ENDBRANCH   5  19
TORSDOF 6
ENDMDL
MODEL 9
REMARK VINA RESULT:      -7.0      3.359      4.909
REMARK  Name = 
REMARK  9 active torsions:
REMARK  status: ('A' for Active; 'I' for Inactive)
REMARK    1  A    between atoms: C_1  and  O_2
REMARK    2  A    between atoms: O_2  and  C_3
REMARK    3  A    between atoms: C_6  and  C_7
REMARK    4  A    between atoms: C_11  and  C_13
REMARK    5  A    between atoms: C_13  and  O_14
REMARK    6  A    between atoms: O_14  and  C_15
REMARK    7  A    between atoms: C_18  and  C_19
REMARK    8  A    between atoms: C_19  and  C_20
REMARK    9  A    between atoms: C_25  and  C_26
REMARK                            x       y       z     vdW  Elec       q    Type
REMARK                         _______ _______ _______ _____ _____    ______ ____
ROOT
ATOM      1  C   UNL     1       3.083   5.511  18.555  0.00  0.00    +0.000 A 
ATOM      2  N   UNL     1       3.279   6.501  19.520  0.00  0.00    +0.000 NA
ATOM      3  C   UNL     1       2.270   6.494  20.349  0.00  0.00    +0.000 A 
ATOM      4  N   UNL     1       2.006   7.362  21.366  0.00  0.00    +0.000 N 
ATOM      5  C   UNL     1       1.521   8.622  21.125  0.00  0.00    +0.000 C 
ATOM      6  O   UNL     1       1.473   9.438  22.048  0.00  0.00    +0.000 OA
ATOM      7  S   UNL     1       1.096   5.288  20.134  0.00  0.00    +0.000 S 
ATOM      8  C   UNL     1       1.928   4.753  18.727  0.00  0.00    +0.000 A 
ATOM      9  C   UNL     1       1.362   3.610  17.957  0.00  0.00    +0.000 C 
ATOM     10  H   UNL     1       2.550   7.277  22.213  0.00  0.00    +0.000 HD
ENDROOT
BRANCH   1  14
ATOM     11  C   UNL     1       5.959   4.871  15.436  0.00  0.00    +0.000 A 
ATOM     12  C   UNL     1       5.577   3.832  16.284  0.00  0.00    +0.000 A 
ATOM     13  C   UNL     1       4.635   4.049  17.298  0.00  0.00    +0.000 A 
ATOM     14  C   UNL     1       4.072   5.317  17.493  0.00  0.00    +0.000 A 
ATOM     15  C   UNL     1       4.505   6.362  16.668  0.00  0.00    +0.000 A 
ATOM     16  C   UNL     1       5.427   6.141  15.638  0.00  0.00    +0.000 A 
BRANCH  11  18
ATOM     17  C   UNL     1       6.383   3.887  13.333  0.00  0.00    +0.000 C 
ATOM     18  O   UNL     1       6.889   4.555  14.486  0.00  0.00    +0.000 OA
ENDBRANCH  11  18
ENDBRANCH   1  14
BRANCH   5  19
ATOM     19  C   UNL     1       1.012   8.972  19.717  0.00  0.00    +0.000 C 
BRANCH  19  20
ATOM     20  O   UNL     1       0.315  10.204  19.819  0.00  0.00    +0.000 OA
BRANCH  20  21
ATOM     21  C   UNL     1      -0.759  10.382  18.997  0.00  0.00    +0.000 A 
ATOM     22  C   UNL     1      -1.657  11.358  19.431  0.00  0.00    +0.000 A 
ATOM     23  C   UNL     1      -2.790  11.688  18.680  0.00  0.00    +0.000 A 
ATOM     24  C   UNL     1      -3.028  11.051  17.464  0.00  0.00    +0.000 A 
ATOM     25  C   UNL     1      -2.113  10.079  17.019  0.00  0.00    +0.000 A 
ATOM     26  C   UNL     1      -0.982   9.742  17.780  0.00  0.00    +0.000 A 
BRANCH  24  27
ATOM     27  C   UNL     1      -4.200  11.367  16.586  0.00  0.00    +0.000 C 
ATOM     28  C   UNL     1      -5.464  11.976  17.156  0.00  0.00    +0.000 C 
ATOM     29  O   UNL     1      -4.127  11.127  15.383  0.00  0.00    +0.000 OA
ENDBRANCH  24  27
ENDBRANCH  20  21
ENDBRANCH  19  20
ENDBRANCH   5  19
TORSDOF 6
ENDMDL
