MODEL 1
REMARK VINA RESULT:      -8.6      0.000      0.000
REMARK  Name = 
REMARK  4 active torsions:
REMARK  status: ('A' for Active; 'I' for Inactive)
REMARK    1  A    between atoms: C_1  and  C_2
REMARK    2  A    between atoms: C_5  and  C_6
REMARK    3  A    between atoms: C_9  and  C_10
REMARK    4  A    between atoms: C_12  and  C_13
REMARK                            x       y       z     vdW  Elec       q    Type
REMARK                         _______ _______ _______ _____ _____    ______ ____
ROOT
ATOM      1  C   UNL     1       6.097   4.603  15.209  0.00  0.00    +0.000 C 
ATOM      2  C   UNL     1       7.072   4.110  16.004  0.00  0.00    +0.000 C 
ATOM      3  C   UNL     1       7.216   4.516  17.388  0.00  0.00    +0.000 C 
ATOM      4  C   UNL     1       6.223   5.160  18.022  0.00  0.00    +0.000 C 
ATOM      5  C   UNL     1       4.925   5.512  17.334  0.00  0.00    +0.000 C 
ATOM      6  C   UNL     1       5.108   5.604  15.799  0.00  0.00    +0.000 C 
ENDROOT
BRANCH   1  11
ATOM      7  C   UNL     1       4.041   3.046  11.059  0.00  0.00    +0.000 C 
ATOM      8  C   UNL     1       5.173   3.430  11.923  0.00  0.00    +0.000 A 
ATOM      9  C   UNL     1       6.528   3.516  11.719  0.00  0.00    +0.000 A 
ATOM     10  C   UNL     1       7.076   3.964  12.944  0.00  0.00    +0.000 A 
ATOM     11  C   UNL     1       6.035   4.139  13.849  0.00  0.00    +0.000 A 
ATOM     12  O   UNL     1       4.867   3.794  13.196  0.00  0.00    +0.000 OA
ENDBRANCH   1  11
BRANCH   5  13
ATOM     13  C   UNL     1       3.809   4.543  17.729  0.00  0.00    +0.000 A 
ATOM     14  C   UNL     1       4.083   3.170  17.821  0.00  0.00    +0.000 A 
ATOM     15  C   UNL     1       3.063   2.257  18.099  0.00  0.00    +0.000 A 
ATOM     16  C   UNL     1       1.756   2.703  18.285  0.00  0.00    +0.000 A 
ATOM     17  C   UNL     1       1.471   4.063  18.217  0.00  0.00    +0.000 A 
ATOM     18  C   UNL     1       2.492   4.977  17.950  0.00  0.00    +0.000 A 
ENDBRANCH   5  13
BRANCH   4  19
ATOM     19  C   UNL     1       6.401   5.561  19.437  0.00  0.00    +0.000 C 
ATOM     20  O   UNL     1       7.454   5.416  20.043  0.00  0.00    +0.000 OA
ENDBRANCH   4  19
TORSDOF 3
ENDMDL
MODEL 2
REMARK VINA RESULT:      -8.6      0.126      1.085
REMARK  Name = 
REMARK  4 active torsions:
REMARK  status: ('A' for Active; 'I' for Inactive)
REMARK    1  A    between atoms: C_1  and  C_2
REMARK    2  A    between atoms: C_5  and  C_6
REMARK    3  A    between atoms: C_9  and  C_10
REMARK    4  A    between atoms: C_12  and  C_13
REMARK                            x       y       z     vdW  Elec       q    Type
REMARK                         _______ _______ _______ _____ _____    ______ ____
ROOT
ATOM      1  C   UNL     1       6.035   4.571  15.189  0.00  0.00    +0.000 C 
ATOM      2  C   UNL     1       7.022   4.099  15.982  0.00  0.00    +0.000 C 
ATOM      3  C   UNL     1       7.153   4.499  17.369  0.00  0.00    +0.000 C 
ATOM      4  C   UNL     1       6.141   5.111  18.006  0.00  0.00    +0.000 C 
ATOM      5  C   UNL     1       4.835   5.432  17.318  0.00  0.00    +0.000 C 
ATOM      6  C   UNL     1       5.018   5.540  15.784  0.00  0.00    +0.000 C 
ENDROOT
BRANCH   1  11
ATOM      7  C   UNL     1       4.023   3.046  11.005  0.00  0.00    +0.000 C 
ATOM      8  C   UNL     1       5.146   3.420  11.885  0.00  0.00    +0.000 A 
ATOM      9  C   UNL     1       6.504   3.501  11.698  0.00  0.00    +0.000 A 
ATOM     10  C   UNL     1       7.039   3.940  12.932  0.00  0.00    +0.000 A 
ATOM     11  C   UNL     1       5.987   4.115  13.826  0.00  0.00    +0.000 A 
ATOM     12  O   UNL     1       4.826   3.778  13.156  0.00  0.00    +0.000 OA
ENDBRANCH   1  11
BRANCH   5  13
ATOM     13  C   UNL     1       3.746   4.431  17.704  0.00  0.00    +0.000 A 
ATOM     14  C   UNL     1       2.459   4.892  18.020  0.00  0.00    +0.000 A 
ATOM     15  C   UNL     1       1.471   4.006  18.454  0.00  0.00    +0.000 A 
ATOM     16  C   UNL     1       1.755   2.648  18.582  0.00  0.00    +0.000 A 
ATOM     17  C   UNL     1       3.021   2.172  18.254  0.00  0.00    +0.000 A 
ATOM     18  C   UNL     1       4.005   3.055  17.809  0.00  0.00    +0.000 A 
ENDBRANCH   5  13
BRANCH   4  19
ATOM     19  C   UNL     1       6.306   5.508  19.424  0.00  0.00    +0.000 C 
ATOM     20  O   UNL     1       7.372   5.422  20.020  0.00  0.00    +0.000 OA
ENDBRANCH   4  19
TORSDOF 3
ENDMDL
MODEL 3
REMARK VINA RESULT:      -8.1      2.686      4.377
REMARK  Name = 
REMARK  4 active torsions:
REMARK  status: ('A' for Active; 'I' for Inactive)
REMARK    1  A    between atoms: C_1  and  C_2
REMARK    2  A    between atoms: C_5  and  C_6
REMARK    3  A    between atoms: C_9  and  C_10
REMARK    4  A    between atoms: C_12  and  C_13
REMARK                            x       y       z     vdW  Elec       q    Type
REMARK                         _______ _______ _______ _____ _____    ______ ____
ROOT
ATOM      1  C   UNL     1       4.289   4.289  17.529  0.00  0.00    +0.000 C 
ATOM      2  C   UNL     1       3.152   3.604  17.274  0.00  0.00    +0.000 C 
ATOM      3  C   UNL     1       2.106   3.450  18.267  0.00  0.00    +0.000 C 
ATOM      4  C   UNL     1       2.083   4.224  19.365  0.00  0.00    +0.000 C 
ATOM      5  C   UNL     1       3.140   5.268  19.636  0.00  0.00    +0.000 C 
ATOM      6  C   UNL     1       4.461   4.935  18.900  0.00  0.00    +0.000 C 
ENDROOT
BRANCH   1  11
ATOM      7  C   UNL     1       6.186   3.749  13.059  0.00  0.00    +0.000 C 
ATOM      8  C   UNL     1       6.199   4.184  14.468  0.00  0.00    +0.000 A 
ATOM      9  C   UNL     1       7.114   4.855  15.239  0.00  0.00    +0.000 A 
ATOM     10  C   UNL     1       6.524   4.982  16.518  0.00  0.00    +0.000 A 
ATOM     11  C   UNL     1       5.268   4.386  16.480  0.00  0.00    +0.000 A 
ATOM     12  O   UNL     1       5.093   3.891  15.202  0.00  0.00    +0.000 OA
ENDBRANCH   1  11
BRANCH   5  13
ATOM     13  C   UNL     1       2.629   6.671  19.306  0.00  0.00    +0.000 A 
ATOM     14  C   UNL     1       1.932   7.403  20.280  0.00  0.00    +0.000 A 
ATOM     15  C   UNL     1       1.385   8.652  19.976  0.00  0.00    +0.000 A 
ATOM     16  C   UNL     1       1.523   9.185  18.697  0.00  0.00    +0.000 A 
ATOM     17  C   UNL     1       2.228   8.480  17.725  0.00  0.00    +0.000 A 
ATOM     18  C   UNL     1       2.785   7.238  18.030  0.00  0.00    +0.000 A 
ENDBRANCH   5  13
BRANCH   4  19
ATOM     19  C   UNL     1       1.001   4.042  20.361  0.00  0.00    +0.000 C 
ATOM     20  O   UNL     1       0.980   3.116  21.161  0.00  0.00    +0.000 OA
ENDBRANCH   4  19
TORSDOF 3
ENDMDL
MODEL 4
REMARK VINA RESULT:      -8.1      2.387      6.327
REMARK  Name = 
REMARK  4 active torsions:
REMARK  status: ('A' for Active; 'I' for Inactive)
REMARK    1  A    between atoms: C_1  and  C_2
REMARK    2  A    between atoms: C_5  and  C_6
REMARK    3  A    between atoms: C_9  and  C_10
REMARK    4  A    between atoms: C_12  and  C_13
REMARK                            x       y       z     vdW  Elec       q    Type
REMARK                         _______ _______ _______ _____ _____    ______ ____
ROOT
ATOM      1  C   UNL     1       3.698   4.834  17.829  0.00  0.00    +0.000 C 
ATOM      2  C   UNL     1       4.260   3.717  17.317  0.00  0.00    +0.000 C 
ATOM      3  C   UNL     1       5.102   3.749  16.137  0.00  0.00    +0.000 C 
ATOM      4  C   UNL     1       5.602   4.909  15.682  0.00  0.00    +0.000 C 
ATOM      5  C   UNL     1       5.304   6.231  16.350  0.00  0.00    +0.000 C 
ATOM      6  C   UNL     1       3.979   6.171  17.151  0.00  0.00    +0.000 C 
ENDROOT
BRANCH   1  11
ATOM      7  C   UNL     1       1.566   2.603  21.618  0.00  0.00    +0.000 C 
ATOM      8  C   UNL     1       1.877   3.758  20.754  0.00  0.00    +0.000 A 
ATOM      9  C   UNL     1       1.533   5.086  20.794  0.00  0.00    +0.000 A 
ATOM     10  C   UNL     1       2.167   5.684  19.681  0.00  0.00    +0.000 A 
ATOM     11  C   UNL     1       2.879   4.700  19.003  0.00  0.00    +0.000 A 
ATOM     12  O   UNL     1       2.676   3.514  19.682  0.00  0.00    +0.000 OA
ENDBRANCH   1  11
BRANCH   5  13
ATOM     13  C   UNL     1       6.481   6.693  17.210  0.00  0.00    +0.000 A 
ATOM     14  C   UNL     1       7.000   5.839  18.195  0.00  0.00    +0.000 A 
ATOM     15  C   UNL     1       8.019   6.270  19.046  0.00  0.00    +0.000 A 
ATOM     16  C   UNL     1       8.533   7.559  18.928  0.00  0.00    +0.000 A 
ATOM     17  C   UNL     1       8.044   8.412  17.943  0.00  0.00    +0.000 A 
ATOM     18  C   UNL     1       7.033   7.979  17.084  0.00  0.00    +0.000 A 
ENDBRANCH   5  13
BRANCH   4  19
ATOM     19  C   UNL     1       6.459   4.909  14.473  0.00  0.00    +0.000 C 
ATOM     20  O   UNL     1       7.640   5.229  14.494  0.00  0.00    +0.000 OA
ENDBRANCH   4  19
TORSDOF 3
ENDMDL
MODEL 5
REMARK VINA RESULT:      -8.1      2.714      4.367
REMARK  Name = 
REMARK  4 active torsions:
REMARK  status: ('A' for Active; 'I' for Inactive)
REMARK    1  A    between atoms: C_1  and  C_2
REMARK    2  A    between atoms: C_5  and  C_6
REMARK    3  A    between atoms: C_9  and  C_10
REMARK    4  A    between atoms: C_12  and  C_13
REMARK                            x       y       z     vdW  Elec       q    Type
REMARK                         _______ _______ _______ _____ _____    ______ ____
ROOT
ATOM      1  C   UNL     1       4.290   4.358  17.618  0.00  0.00    +0.000 C 
ATOM      2  C   UNL     1       3.193   3.601  17.400  0.00  0.00    +0.000 C 
ATOM      3  C   UNL     1       2.171   3.416  18.411  0.00  0.00    +0.000 C 
ATOM      4  C   UNL     1       2.116   4.219  19.487  0.00  0.00    +0.000 C 
ATOM      5  C   UNL     1       3.113   5.330  19.712  0.00  0.00    +0.000 C 
ATOM      6  C   UNL     1       4.442   5.054  18.967  0.00  0.00    +0.000 C 
ENDROOT
BRANCH   1  11
ATOM      7  C   UNL     1       6.181   3.758  13.152  0.00  0.00    +0.000 C 
ATOM      8  C   UNL     1       6.173   4.257  14.540  0.00  0.00    +0.000 A 
ATOM      9  C   UNL     1       7.041   5.033  15.268  0.00  0.00    +0.000 A 
ATOM     10  C   UNL     1       6.455   5.173  16.547  0.00  0.00    +0.000 A 
ATOM     11  C   UNL     1       5.249   4.482  16.553  0.00  0.00    +0.000 A 
ATOM     12  O   UNL     1       5.101   3.915  15.301  0.00  0.00    +0.000 OA
ENDBRANCH   1  11
BRANCH   5  13
ATOM     13  C   UNL     1       2.516   6.691  19.350  0.00  0.00    +0.000 A 
ATOM     14  C   UNL     1       2.695   7.205  18.056  0.00  0.00    +0.000 A 
ATOM     15  C   UNL     1       2.230   8.479  17.726  0.00  0.00    +0.000 A 
ATOM     16  C   UNL     1       1.585   9.259  18.683  0.00  0.00    +0.000 A 
ATOM     17  C   UNL     1       1.382   8.757  19.964  0.00  0.00    +0.000 A 
ATOM     18  C   UNL     1       1.836   7.479  20.292  0.00  0.00    +0.000 A 
ENDBRANCH   5  13
BRANCH   4  19
ATOM     19  C   UNL     1       1.059   4.004  20.503  0.00  0.00    +0.000 C 
ATOM     20  O   UNL     1       1.066   3.060  21.282  0.00  0.00    +0.000 OA
ENDBRANCH   4  19
TORSDOF 3
ENDMDL
MODEL 6
REMARK VINA RESULT:      -8.0      2.446      6.410
REMARK  Name = 
REMARK  4 active torsions:
REMARK  status: ('A' for Active; 'I' for Inactive)
REMARK    1  A    between atoms: C_1  and  C_2
REMARK    2  A    between atoms: C_5  and  C_6
REMARK    3  A    between atoms: C_9  and  C_10
REMARK    4  A    between atoms: C_12  and  C_13
REMARK                            x       y       z     vdW  Elec       q    Type
REMARK                         _______ _______ _______ _____ _____    ______ ____
ROOT
ATOM      1  C   UNL     1       3.704   4.808  17.884  0.00  0.00    +0.000 C 
ATOM      2  C   UNL     1       4.331   3.709  17.411  0.00  0.00    +0.000 C 
ATOM      3  C   UNL     1       5.200   3.757  16.251  0.00  0.00    +0.000 C 
ATOM      4  C   UNL     1       5.656   4.931  15.783  0.00  0.00    +0.000 C 
ATOM      5  C   UNL     1       5.279   6.250  16.415  0.00  0.00    +0.000 C 
ATOM      6  C   UNL     1       3.938   6.143  17.183  0.00  0.00    +0.000 C 
ENDROOT
BRANCH   1  11
ATOM      7  C   UNL     1       1.525   2.538  21.623  0.00  0.00    +0.000 C 
ATOM      8  C   UNL     1       1.837   3.699  20.767  0.00  0.00    +0.000 A 
ATOM      9  C   UNL     1       1.472   5.022  20.803  0.00  0.00    +0.000 A 
ATOM     10  C   UNL     1       2.121   5.632  19.704  0.00  0.00    +0.000 A 
ATOM     11  C   UNL     1       2.861   4.660  19.040  0.00  0.00    +0.000 A 
ATOM     12  O   UNL     1       2.662   3.469  19.712  0.00  0.00    +0.000 OA
ENDBRANCH   1  11
BRANCH   5  13
ATOM     13  C   UNL     1       6.410   6.786  17.292  0.00  0.00    +0.000 A 
ATOM     14  C   UNL     1       6.876   8.096  17.100  0.00  0.00    +0.000 A 
ATOM     15  C   UNL     1       7.962   8.580  17.833  0.00  0.00    +0.000 A 
ATOM     16  C   UNL     1       8.598   7.763  18.765  0.00  0.00    +0.000 A 
ATOM     17  C   UNL     1       8.136   6.469  18.982  0.00  0.00    +0.000 A 
ATOM     18  C   UNL     1       7.044   5.988  18.258  0.00  0.00    +0.000 A 
ENDBRANCH   5  13
BRANCH   4  19
ATOM     19  C   UNL     1       6.543   4.946  14.596  0.00  0.00    +0.000 C 
ATOM     20  O   UNL     1       7.694   5.362  14.630  0.00  0.00    +0.000 OA
ENDBRANCH   4  19
TORSDOF 3
ENDMDL
MODEL 7
REMARK VINA RESULT:      -7.9      0.918      1.307
REMARK  Name = 
REMARK  4 active torsions:
REMARK  status: ('A' for Active; 'I' for Inactive)
REMARK    1  A    between atoms: C_1  and  C_2
REMARK    2  A    between atoms: C_5  and  C_6
REMARK    3  A    between atoms: C_9  and  C_10
REMARK    4  A    between atoms: C_12  and  C_13
REMARK                            x       y       z     vdW  Elec       q    Type
REMARK                         _______ _______ _______ _____ _____    ______ ____
ROOT
ATOM      1  C   UNL     1       6.117   4.551  14.957  0.00  0.00    +0.000 C 
ATOM      2  C   UNL     1       7.049   4.029  15.784  0.00  0.00    +0.000 C 
ATOM      3  C   UNL     1       7.302   4.577  17.102  0.00  0.00    +0.000 C 
ATOM      4  C   UNL     1       6.429   5.422  17.674  0.00  0.00    +0.000 C 
ATOM      5  C   UNL     1       5.162   5.861  16.978  0.00  0.00    +0.000 C 
ATOM      6  C   UNL     1       5.294   5.740  15.440  0.00  0.00    +0.000 C 
ENDROOT
BRANCH   1  11
ATOM      7  C   UNL     1       7.310   1.986  10.972  0.00  0.00    +0.000 C 
ATOM      8  C   UNL     1       6.404   2.777  11.826  0.00  0.00    +0.000 A 
ATOM      9  C   UNL     1       5.091   3.159  11.707  0.00  0.00    +0.000 A 
ATOM     10  C   UNL     1       4.796   3.898  12.877  0.00  0.00    +0.000 A 
ATOM     11  C   UNL     1       5.939   3.938  13.668  0.00  0.00    +0.000 A 
ATOM     12  O   UNL     1       6.924   3.244  12.992  0.00  0.00    +0.000 OA
ENDBRANCH   1  11
BRANCH   5  13
ATOM     13  C   UNL     1       3.946   5.109  17.518  0.00  0.00    +0.000 A 
ATOM     14  C   UNL     1       3.650   3.826  17.030  0.00  0.00    +0.000 A 
ATOM     15  C   UNL     1       2.500   3.153  17.448  0.00  0.00    +0.000 A 
ATOM     16  C   UNL     1       1.628   3.752  18.354  0.00  0.00    +0.000 A 
ATOM     17  C   UNL     1       1.916   5.015  18.862  0.00  0.00    +0.000 A 
ATOM     18  C   UNL     1       3.071   5.684  18.455  0.00  0.00    +0.000 A 
ENDBRANCH   5  13
BRANCH   4  19
ATOM     19  C   UNL     1       6.716   5.965  19.022  0.00  0.00    +0.000 C 
ATOM     20  O   UNL     1       7.246   5.305  19.907  0.00  0.00    +0.000 OA
ENDBRANCH   4  19
TORSDOF 3
ENDMDL
MODEL 8
REMARK VINA RESULT:      -7.8      0.730      1.593
REMARK  Name = 
REMARK  4 active torsions:
REMARK  status: ('A' for Active; 'I' for Inactive)
REMARK    1  A    between atoms: C_1  and  C_2
REMARK    2  A    between atoms: C_5  and  C_6
REMARK    3  A    between atoms: C_9  and  C_10
REMARK    4  A    between atoms: C_12  and  C_13
REMARK                            x       y       z     vdW  Elec       q    Type
REMARK                         _______ _______ _______ _____ _____    ______ ____
ROOT
ATOM      1  C   UNL     1       5.910   4.388  15.086  0.00  0.00    +0.000 C 
ATOM      2  C   UNL     1       6.918   3.965  15.880  0.00  0.00    +0.000 C 
ATOM      3  C   UNL     1       7.065   4.423  17.248  0.00  0.00    +0.000 C 
ATOM      4  C   UNL     1       6.053   5.041  17.878  0.00  0.00    +0.000 C 
ATOM      5  C   UNL     1       4.730   5.312  17.201  0.00  0.00    +0.000 C 
ATOM      6  C   UNL     1       4.886   5.362  15.660  0.00  0.00    +0.000 C 
ENDROOT
BRANCH   1  11
ATOM      7  C   UNL     1       7.472   2.168  11.023  0.00  0.00    +0.000 C 
ATOM      8  C   UNL     1       6.484   2.875  11.860  0.00  0.00    +0.000 A 
ATOM      9  C   UNL     1       5.176   3.245  11.665  0.00  0.00    +0.000 A 
ATOM     10  C   UNL     1       4.773   3.884  12.861  0.00  0.00    +0.000 A 
ATOM     11  C   UNL     1       5.848   3.877  13.743  0.00  0.00    +0.000 A 
ATOM     12  O   UNL     1       6.899   3.255  13.097  0.00  0.00    +0.000 OA
ENDBRANCH   1  11
BRANCH   5  13
ATOM     13  C   UNL     1       3.666   4.307  17.645  0.00  0.00    +0.000 A 
ATOM     14  C   UNL     1       2.371   4.755  17.946  0.00  0.00    +0.000 A 
ATOM     15  C   UNL     1       1.406   3.870  18.432  0.00  0.00    +0.000 A 
ATOM     16  C   UNL     1       1.722   2.527  18.626  0.00  0.00    +0.000 A 
ATOM     17  C   UNL     1       2.996   2.063  18.313  0.00  0.00    +0.000 A 
ATOM     18  C   UNL     1       3.957   2.944  17.817  0.00  0.00    +0.000 A 
ENDBRANCH   5  13
BRANCH   4  19
ATOM     19  C   UNL     1       6.234   5.497  19.276  0.00  0.00    +0.000 C 
ATOM     20  O   UNL     1       7.303   5.421  19.868  0.00  0.00    +0.000 OA
ENDBRANCH   4  19
TORSDOF 3
ENDMDL
MODEL 9
REMARK VINA RESULT:      -7.6      3.378      6.608
REMARK  Name = 
REMARK  4 active torsions:
REMARK  status: ('A' for Active; 'I' for Inactive)
REMARK    1  A    between atoms: C_1  and  C_2
REMARK    2  A    between atoms: C_5  and  C_6
REMARK    3  A    between atoms: C_9  and  C_10
REMARK    4  A    between atoms: C_12  and  C_13
REMARK                            x       y       z     vdW  Elec       q    Type
REMARK                         _______ _______ _______ _____ _____    ______ ____
ROOT
ATOM      1  C   UNL     1       2.327   6.421  19.035  0.00  0.00    +0.000 C 
ATOM      2  C   UNL     1       2.307   5.906  20.284  0.00  0.00    +0.000 C 
ATOM      3  C   UNL     1       2.654   4.524  20.553  0.00  0.00    +0.000 C 
ATOM      4  C   UNL     1       3.293   3.785  19.632  0.00  0.00    +0.000 C 
ATOM      5  C   UNL     1       3.663   4.335  18.275  0.00  0.00    +0.000 C 
ATOM      6  C   UNL     1       2.748   5.520  17.879  0.00  0.00    +0.000 C 
ENDROOT
BRANCH   1  11
ATOM      7  C   UNL     1       0.573  10.811  20.271  0.00  0.00    +0.000 C 
ATOM      8  C   UNL     1       1.193   9.832  19.357  0.00  0.00    +0.000 A 
ATOM      9  C   UNL     1       1.668   9.912  18.072  0.00  0.00    +0.000 A 
ATOM     10  C   UNL     1       2.158   8.622  17.761  0.00  0.00    +0.000 A 
ATOM     11  C   UNL     1       1.967   7.804  18.868  0.00  0.00    +0.000 A 
ATOM     12  O   UNL     1       1.359   8.574  19.841  0.00  0.00    +0.000 OA
ENDBRANCH   1  11
BRANCH   5  13
ATOM     13  C   UNL     1       5.147   4.701  18.213  0.00  0.00    +0.000 A 
ATOM     14  C   UNL     1       5.907   4.332  17.092  0.00  0.00    +0.000 A 
ATOM     15  C   UNL     1       7.280   4.583  17.048  0.00  0.00    +0.000 A 
ATOM     16  C   UNL     1       7.913   5.201  18.124  0.00  0.00    +0.000 A 
ATOM     17  C   UNL     1       7.171   5.591  19.235  0.00  0.00    +0.000 A 
ATOM     18  C   UNL     1       5.797   5.351  19.275  0.00  0.00    +0.000 A 
ENDBRANCH   5  13
BRANCH   4  19
ATOM     19  C   UNL     1       3.633   2.375  19.938  0.00  0.00    +0.000 C 
ATOM     20  O   UNL     1       4.737   2.028  20.335  0.00  0.00    +0.000 OA
ENDBRANCH   4  19
TORSDOF 3
ENDMDL
