MODEL 1
REMARK VINA RESULT:      -8.3      0.000      0.000
REMARK  Name = 
REMARK  7 active torsions:
REMARK  status: ('A' for Active; 'I' for Inactive)
REMARK    1  A    between atoms: C_1  and  C_2
REMARK    2  A    between atoms: C_6  and  C_7
REMARK    3  A    between atoms: N_9  and  C_10
REMARK    4  A    between atoms: C_14  and  C_15
REMARK    5  A    between atoms: C_15  and  N_16
REMARK    6  A    between atoms: C_19  and  C_20
REMARK    7  A    between atoms: N_22  and  C_23
REMARK                            x       y       z     vdW  Elec       q    Type
REMARK                         _______ _______ _______ _____ _____    ______ ____
ROOT
ATOM      1  C   UNL     1       2.982   5.266  18.480  0.00  0.00    +0.000 A 
ATOM      2  C   UNL     1       2.137   4.183  18.735  0.00  0.00    +0.000 A 
ATOM      3  C   UNL     1       1.224   4.218  19.792  0.00  0.00    +0.000 A 
ATOM      4  C   UNL     1       1.120   5.351  20.593  0.00  0.00    +0.000 A 
ATOM      5  C   UNL     1       1.938   6.464  20.356  0.00  0.00    +0.000 A 
ATOM      6  C   UNL     1       2.892   6.390  19.317  0.00  0.00    +0.000 A 
ENDROOT
BRANCH   1   9
ATOM      7  C   UNL     1       5.076   4.663  17.245  0.00  0.00    +0.000 C 
ATOM      8  O   UNL     1       5.650   4.086  18.166  0.00  0.00    +0.000 OA
ATOM      9  N   UNL     1       3.861   5.326  17.361  0.00  0.00    +0.000 N 
ATOM     10  H   UNL     1       3.538   5.889  16.588  0.00  0.00    +0.000 HD
BRANCH   7  16
ATOM     11  C   UNL     1       5.666   3.288  12.350  0.00  0.00    +0.000 C 
ATOM     12  C   UNL     1       6.092   4.010  13.592  0.00  0.00    +0.000 A 
ATOM     13  C   UNL     1       7.276   4.739  13.612  0.00  0.00    +0.000 A 
ATOM     14  N   UNL     1       7.728   5.403  14.692  0.00  0.00    +0.000 NA
ATOM     15  C   UNL     1       6.965   5.337  15.810  0.00  0.00    +0.000 A 
ATOM     16  C   UNL     1       5.756   4.644  15.911  0.00  0.00    +0.000 A 
ATOM     17  C   UNL     1       5.319   3.965  14.771  0.00  0.00    +0.000 A 
ENDBRANCH   7  16
ENDBRANCH   1   9
BRANCH   5  18
ATOM     18  C   UNL     1       1.674   7.773  21.076  0.00  0.00    +0.000 C 
BRANCH  18  19
ATOM     19  N   UNL     1       0.532   8.595  20.700  0.00  0.00    +0.000 NA
ATOM     20  C   UNL     1       0.716   9.516  19.593  0.00  0.00    +0.000 C 
ATOM     21  C   UNL     1       0.935  10.868  20.241  0.00  0.00    +0.000 C 
ATOM     22  C   UNL     1       0.107  10.811  21.526  0.00  0.00    +0.000 C 
ATOM     23  C   UNL     1      -0.156   9.323  21.768  0.00  0.00    +0.000 C 
BRANCH  22  24
ATOM     24  C   UNL     1      -1.166  11.645  21.414  0.00  0.00    +0.000 C 
ATOM     25  O   UNL     1      -1.618  12.073  20.365  0.00  0.00    +0.000 OA
ATOM     26  N   UNL     1      -1.791  11.830  22.635  0.00  0.00    +0.000 N 
ATOM     27  H   UNL     1      -1.323  11.516  23.476  0.00  0.00    +0.000 HD
BRANCH  26  28
ATOM     28  C   UNL     1      -2.994  12.616  22.771  0.00  0.00    +0.000 C 
ATOM     29  C   UNL     1      -3.801  12.225  24.002  0.00  0.00    +0.000 C 
ATOM     30  C   UNL     1      -4.777  13.384  24.154  0.00  0.00    +0.000 C 
ATOM     31  C   UNL     1      -4.036  14.615  23.625  0.00  0.00    +0.000 C 
ATOM     32  C   UNL     1      -2.726  14.098  23.025  0.00  0.00    +0.000 C 
ENDBRANCH  26  28
ENDBRANCH  22  24
ENDBRANCH  18  19
ENDBRANCH   5  18
TORSDOF 6
ENDMDL
MODEL 2
REMARK VINA RESULT:      -8.3      2.096      2.519
REMARK  Name = 
REMARK  7 active torsions:
REMARK  status: ('A' for Active; 'I' for Inactive)
REMARK    1  A    between atoms: C_1  and  C_2
REMARK    2  A    between atoms: C_6  and  C_7
REMARK    3  A    between atoms: N_9  and  C_10
REMARK    4  A    between atoms: C_14  and  C_15
REMARK    5  A    between atoms: C_15  and  N_16
REMARK    6  A    between atoms: C_19  and  C_20
REMARK    7  A    between atoms: N_22  and  C_23
REMARK                            x       y       z     vdW  Elec       q    Type
REMARK                         _______ _______ _______ _____ _____    ______ ____
ROOT
ATOM      1  C   UNL     1       3.190   5.526  18.466  0.00  0.00    +0.000 A 
ATOM      2  C   UNL     1       2.539   4.383  18.938  0.00  0.00    +0.000 A 
ATOM      3  C   UNL     1       1.653   4.454  20.016  0.00  0.00    +0.000 A 
ATOM      4  C   UNL     1       1.380   5.678  20.620  0.00  0.00    +0.000 A 
ATOM      5  C   UNL     1       1.999   6.848  20.162  0.00  0.00    +0.000 A 
ATOM      6  C   UNL     1       2.933   6.749  19.107  0.00  0.00    +0.000 A 
ENDROOT
BRANCH   1   9
ATOM      7  C   UNL     1       5.224   4.839  17.174  0.00  0.00    +0.000 C 
ATOM      8  O   UNL     1       5.822   4.282  18.093  0.00  0.00    +0.000 OA
ATOM      9  N   UNL     1       4.027   5.530  17.314  0.00  0.00    +0.000 N 
ATOM     10  H   UNL     1       3.685   6.073  16.535  0.00  0.00    +0.000 HD
BRANCH   7  16
ATOM     11  C   UNL     1       5.665   3.198  12.347  0.00  0.00    +0.000 C 
ATOM     12  C   UNL     1       6.117   4.003  13.527  0.00  0.00    +0.000 A 
ATOM     13  C   UNL     1       7.277   4.765  13.457  0.00  0.00    +0.000 A 
ATOM     14  N   UNL     1       7.751   5.504  14.477  0.00  0.00    +0.000 NA
ATOM     15  C   UNL     1       7.033   5.482  15.628  0.00  0.00    +0.000 A 
ATOM     16  C   UNL     1       5.852   4.762  15.818  0.00  0.00    +0.000 A 
ATOM     17  C   UNL     1       5.392   4.005  14.737  0.00  0.00    +0.000 A 
ENDBRANCH   7  16
ENDBRANCH   1   9
BRANCH   5  18
ATOM     18  C   UNL     1       1.537   8.203  20.665  0.00  0.00    +0.000 C 
BRANCH  18  19
ATOM     19  N   UNL     1       0.579   8.981  19.891  0.00  0.00    +0.000 NA
ATOM     20  C   UNL     1       1.092   9.712  18.745  0.00  0.00    +0.000 C 
ATOM     21  C   UNL     1       1.223  11.144  19.222  0.00  0.00    +0.000 C 
ATOM     22  C   UNL     1       0.097  11.308  20.245  0.00  0.00    +0.000 C 
ATOM     23  C   UNL     1      -0.309   9.883  20.626  0.00  0.00    +0.000 C 
BRANCH  22  24
ATOM     24  C   UNL     1      -1.053  12.141  19.688  0.00  0.00    +0.000 C 
ATOM     25  O   UNL     1      -1.115  13.359  19.750  0.00  0.00    +0.000 OA
ATOM     26  N   UNL     1      -2.012  11.371  19.053  0.00  0.00    +0.000 N 
ATOM     27  H   UNL     1      -1.940  10.362  19.105  0.00  0.00    +0.000 HD
BRANCH  26  28
ATOM     28  C   UNL     1      -3.206  11.945  18.481  0.00  0.00    +0.000 C 
ATOM     29  C   UNL     1      -3.891  10.997  17.506  0.00  0.00    +0.000 C 
ATOM     30  C   UNL     1      -5.265  11.626  17.326  0.00  0.00    +0.000 C 
ATOM     31  C   UNL     1      -5.582  12.306  18.661  0.00  0.00    +0.000 C 
ATOM     32  C   UNL     1      -4.310  12.199  19.505  0.00  0.00    +0.000 C 
ENDBRANCH  26  28
ENDBRANCH  22  24
ENDBRANCH  18  19
ENDBRANCH   5  18
TORSDOF 6
ENDMDL
MODEL 3
REMARK VINA RESULT:      -8.3      2.855      3.429
REMARK  Name = 
REMARK  7 active torsions:
REMARK  status: ('A' for Active; 'I' for Inactive)
REMARK    1  A    between atoms: C_1  and  C_2
REMARK    2  A    between atoms: C_6  and  C_7
REMARK    3  A    between atoms: N_9  and  C_10
REMARK    4  A    between atoms: C_14  and  C_15
REMARK    5  A    between atoms: C_15  and  N_16
REMARK    6  A    between atoms: C_19  and  C_20
REMARK    7  A    between atoms: N_22  and  C_23
REMARK                            x       y       z     vdW  Elec       q    Type
REMARK                         _______ _______ _______ _____ _____    ______ ____
ROOT
ATOM      1  C   UNL     1       3.668   5.066  18.983  0.00  0.00    +0.000 A 
ATOM      2  C   UNL     1       2.988   3.993  19.564  0.00  0.00    +0.000 A 
ATOM      3  C   UNL     1       1.999   4.205  20.528  0.00  0.00    +0.000 A 
ATOM      4  C   UNL     1       1.653   5.500  20.904  0.00  0.00    +0.000 A 
ATOM      5  C   UNL     1       2.300   6.602  20.330  0.00  0.00    +0.000 A 
ATOM      6  C   UNL     1       3.335   6.366  19.397  0.00  0.00    +0.000 A 
ENDROOT
BRANCH   1   9
ATOM      7  C   UNL     1       4.370   4.330  16.693  0.00  0.00    +0.000 C 
ATOM      8  O   UNL     1       3.359   3.691  16.410  0.00  0.00    +0.000 OA
ATOM      9  N   UNL     1       4.615   4.915  17.930  0.00  0.00    +0.000 N 
ATOM     10  H   UNL     1       5.530   5.298  18.114  0.00  0.00    +0.000 HD
BRANCH   7  16
ATOM     11  C   UNL     1       6.469   3.400  12.119  0.00  0.00    +0.000 C 
ATOM     12  C   UNL     1       6.449   4.051  13.469  0.00  0.00    +0.000 A 
ATOM     13  C   UNL     1       7.502   4.864  13.874  0.00  0.00    +0.000 A 
ATOM     14  N   UNL     1       7.559   5.472  15.074  0.00  0.00    +0.000 NA
ATOM     15  C   UNL     1       6.517   5.258  15.914  0.00  0.00    +0.000 A 
ATOM     16  C   UNL     1       5.402   4.470  15.619  0.00  0.00    +0.000 A 
ATOM     17  C   UNL     1       5.378   3.853  14.365  0.00  0.00    +0.000 A 
ENDBRANCH   7  16
ENDBRANCH   1   9
BRANCH   5  18
ATOM     18  C   UNL     1       1.775   8.005  20.568  0.00  0.00    +0.000 C 
BRANCH  18  19
ATOM     19  N   UNL     1       0.914   8.640  19.579  0.00  0.00    +0.000 NA
ATOM     20  C   UNL     1       1.533   9.056  18.333  0.00  0.00    +0.000 C 
ATOM     21  C   UNL     1       1.744  10.549  18.481  0.00  0.00    +0.000 C 
ATOM     22  C   UNL     1       0.585  11.010  19.367  0.00  0.00    +0.000 C 
ATOM     23  C   UNL     1       0.059   9.738  20.034  0.00  0.00    +0.000 C 
BRANCH  22  24
ATOM     24  C   UNL     1      -0.474  11.760  18.564  0.00  0.00    +0.000 C 
ATOM     25  O   UNL     1      -0.588  12.975  18.541  0.00  0.00    +0.000 OA
ATOM     26  N   UNL     1      -1.275  10.914  17.816  0.00  0.00    +0.000 N 
ATOM     27  H   UNL     1      -1.178   9.914  17.941  0.00  0.00    +0.000 HD
BRANCH  26  28
ATOM     28  C   UNL     1      -2.364  11.403  17.006  0.00  0.00    +0.000 C 
ATOM     29  C   UNL     1      -2.722  10.442  15.881  0.00  0.00    +0.000 C 
ATOM     30  C   UNL     1      -4.079  10.950  15.414  0.00  0.00    +0.000 C 
ATOM     31  C   UNL     1      -4.745  11.538  16.661  0.00  0.00    +0.000 C 
ATOM     32  C   UNL     1      -3.686  11.509  17.764  0.00  0.00    +0.000 C 
ENDBRANCH  26  28
ENDBRANCH  22  24
ENDBRANCH  18  19
ENDBRANCH   5  18
TORSDOF 6
ENDMDL
MODEL 4
REMARK VINA RESULT:      -8.2      2.787      3.222
REMARK  Name = 
REMARK  7 active torsions:
REMARK  status: ('A' for Active; 'I' for Inactive)
REMARK    1  A    between atoms: C_1  and  C_2
REMARK    2  A    between atoms: C_6  and  C_7
REMARK    3  A    between atoms: N_9  and  C_10
REMARK    4  A    between atoms: C_14  and  C_15
REMARK    5  A    between atoms: C_15  and  N_16
REMARK    6  A    between atoms: C_19  and  C_20
REMARK    7  A    between atoms: N_22  and  C_23
REMARK                            x       y       z     vdW  Elec       q    Type
REMARK                         _______ _______ _______ _____ _____    ______ ____
ROOT
ATOM      1  C   UNL     1       3.922   3.985  19.332  0.00  0.00    +0.000 A 
ATOM      2  C   UNL     1       3.695   2.827  20.080  0.00  0.00    +0.000 A 
ATOM      3  C   UNL     1       2.776   2.820  21.133  0.00  0.00    +0.000 A 
ATOM      4  C   UNL     1       2.045   3.966  21.433  0.00  0.00    +0.000 A 
ATOM      5  C   UNL     1       2.231   5.140  20.692  0.00  0.00    +0.000 A 
ATOM      6  C   UNL     1       3.204   5.144  19.668  0.00  0.00    +0.000 A 
ENDROOT
BRANCH   1   9
ATOM      7  C   UNL     1       4.360   3.958  16.865  0.00  0.00    +0.000 C 
ATOM      8  O   UNL     1       3.224   3.663  16.500  0.00  0.00    +0.000 OA
ATOM      9  N   UNL     1       4.772   4.025  18.190  0.00  0.00    +0.000 N 
ATOM     10  H   UNL     1       5.756   4.136  18.389  0.00  0.00    +0.000 HD
BRANCH   7  16
ATOM     11  C   UNL     1       6.476   3.478  12.230  0.00  0.00    +0.000 C 
ATOM     12  C   UNL     1       6.410   4.054  13.612  0.00  0.00    +0.000 A 
ATOM     13  C   UNL     1       7.381   4.948  14.049  0.00  0.00    +0.000 A 
ATOM     14  N   UNL     1       7.394   5.498  15.277  0.00  0.00    +0.000 NA
ATOM     15  C   UNL     1       6.391   5.138  16.115  0.00  0.00    +0.000 A 
ATOM     16  C   UNL     1       5.358   4.256  15.790  0.00  0.00    +0.000 A 
ATOM     17  C   UNL     1       5.378   3.704  14.506  0.00  0.00    +0.000 A 
ENDBRANCH   7  16
ENDBRANCH   1   9
BRANCH   5  18
ATOM     18  C   UNL     1       1.284   6.312  20.868  0.00  0.00    +0.000 C 
BRANCH  18  19
ATOM     19  N   UNL     1       1.786   7.676  20.774  0.00  0.00    +0.000 NA
ATOM     20  C   UNL     1       1.249   8.645  21.712  0.00  0.00    +0.000 C 
ATOM     21  C   UNL     1       0.217   9.424  20.921  0.00  0.00    +0.000 C 
ATOM     22  C   UNL     1       0.761   9.430  19.490  0.00  0.00    +0.000 C 
ATOM     23  C   UNL     1       1.795   8.302  19.451  0.00  0.00    +0.000 C 
BRANCH  22  24
ATOM     24  C   UNL     1       1.330  10.793  19.109  0.00  0.00    +0.000 C 
ATOM     25  O   UNL     1       1.994  11.006  18.107  0.00  0.00    +0.000 OA
ATOM     26  N   UNL     1       0.974  11.788  20.001  0.00  0.00    +0.000 N 
ATOM     27  H   UNL     1       0.488  11.531  20.852  0.00  0.00    +0.000 HD
BRANCH  26  28
ATOM     28  C   UNL     1       1.428  13.150  19.856  0.00  0.00    +0.000 C 
ATOM     29  C   UNL     1       0.575  13.940  18.873  0.00  0.00    +0.000 C 
ATOM     30  C   UNL     1       0.977  15.382  19.152  0.00  0.00    +0.000 C 
ATOM     31  C   UNL     1       1.330  15.426  20.641  0.00  0.00    +0.000 C 
ATOM     32  C   UNL     1       1.290  13.978  21.132  0.00  0.00    +0.000 C 
ENDBRANCH  26  28
ENDBRANCH  22  24
ENDBRANCH  18  19
ENDBRANCH   5  18
TORSDOF 6
ENDMDL
MODEL 5
REMARK VINA RESULT:      -8.1      3.314      9.466
REMARK  Name = 
REMARK  7 active torsions:
REMARK  status: ('A' for Active; 'I' for Inactive)
REMARK    1  A    between atoms: C_1  and  C_2
REMARK    2  A    between atoms: C_6  and  C_7
REMARK    3  A    between atoms: N_9  and  C_10
REMARK    4  A    between atoms: C_14  and  C_15
REMARK    5  A    between atoms: C_15  and  N_16
REMARK    6  A    between atoms: C_19  and  C_20
REMARK    7  A    between atoms: N_22  and  C_23
REMARK                            x       y       z     vdW  Elec       q    Type
REMARK                         _______ _______ _______ _____ _____    ______ ____
ROOT
ATOM      1  C   UNL     1       2.115   5.365  20.376  0.00  0.00    +0.000 A 
ATOM      2  C   UNL     1       2.330   4.217  21.144  0.00  0.00    +0.000 A 
ATOM      3  C   UNL     1       2.879   3.065  20.575  0.00  0.00    +0.000 A 
ATOM      4  C   UNL     1       3.251   3.053  19.234  0.00  0.00    +0.000 A 
ATOM      5  C   UNL     1       3.068   4.191  18.438  0.00  0.00    +0.000 A 
ATOM      6  C   UNL     1       2.462   5.329  19.016  0.00  0.00    +0.000 A 
ENDROOT
BRANCH   1   9
ATOM      7  C   UNL     1       1.651   7.825  20.274  0.00  0.00    +0.000 C 
ATOM      8  O   UNL     1       2.228   8.057  19.214  0.00  0.00    +0.000 OA
ATOM      9  N   UNL     1       1.650   6.595  20.922  0.00  0.00    +0.000 N 
ATOM     10  H   UNL     1       1.269   6.537  21.855  0.00  0.00    +0.000 HD
BRANCH   7  16
ATOM     11  C   UNL     1      -1.093  12.145  20.266  0.00  0.00    +0.000 C 
ATOM     12  C   UNL     1      -0.380  11.020  20.953  0.00  0.00    +0.000 A 
ATOM     13  C   UNL     1      -0.312  10.974  22.341  0.00  0.00    +0.000 A 
ATOM     14  N   UNL     1       0.318  10.002  23.027  0.00  0.00    +0.000 NA
ATOM     15  C   UNL     1       0.912   9.029  22.295  0.00  0.00    +0.000 A 
ATOM     16  C   UNL     1       0.907   8.963  20.900  0.00  0.00    +0.000 A 
ATOM     17  C   UNL     1       0.245   9.990  20.222  0.00  0.00    +0.000 A 
ENDBRANCH   7  16
ENDBRANCH   1   9
BRANCH   5  18
ATOM     18  C   UNL     1       3.674   4.257  17.048  0.00  0.00    +0.000 C 
BRANCH  18  19
ATOM     19  N   UNL     1       5.034   4.747  16.868  0.00  0.00    +0.000 NA
ATOM     20  C   UNL     1       5.996   4.429  17.908  0.00  0.00    +0.000 C 
ATOM     21  C   UNL     1       6.106   5.691  18.739  0.00  0.00    +0.000 C 
ATOM     22  C   UNL     1       5.869   6.825  17.739  0.00  0.00    +0.000 C 
ATOM     23  C   UNL     1       5.202   6.163  16.532  0.00  0.00    +0.000 C 
BRANCH  22  24
ATOM     24  C   UNL     1       7.165   7.554  17.396  0.00  0.00    +0.000 C 
ATOM     25  O   UNL     1       8.014   7.125  16.631  0.00  0.00    +0.000 OA
ATOM     26  N   UNL     1       7.261   8.790  18.010  0.00  0.00    +0.000 N 
ATOM     27  H   UNL     1       6.560   9.052  18.693  0.00  0.00    +0.000 HD
BRANCH  26  28
ATOM     28  C   UNL     1       8.417   9.638  17.855  0.00  0.00    +0.000 C 
ATOM     29  C   UNL     1       8.036  11.092  17.605  0.00  0.00    +0.000 C 
ATOM     30  C   UNL     1       9.343  11.834  17.844  0.00  0.00    +0.000 C 
ATOM     31  C   UNL     1      10.087  11.021  18.908  0.00  0.00    +0.000 C 
ATOM     32  C   UNL     1       9.267   9.747  19.119  0.00  0.00    +0.000 C 
ENDBRANCH  26  28
ENDBRANCH  22  24
ENDBRANCH  18  19
ENDBRANCH   5  18
TORSDOF 6
ENDMDL
MODEL 6
REMARK VINA RESULT:      -8.1      2.619      3.430
REMARK  Name = 
REMARK  7 active torsions:
REMARK  status: ('A' for Active; 'I' for Inactive)
REMARK    1  A    between atoms: C_1  and  C_2
REMARK    2  A    between atoms: C_6  and  C_7
REMARK    3  A    between atoms: N_9  and  C_10
REMARK    4  A    between atoms: C_14  and  C_15
REMARK    5  A    between atoms: C_15  and  N_16
REMARK    6  A    between atoms: C_19  and  C_20
REMARK    7  A    between atoms: N_22  and  C_23
REMARK                            x       y       z     vdW  Elec       q    Type
REMARK                         _______ _______ _______ _____ _____    ______ ____
ROOT
ATOM      1  C   UNL     1       3.158   4.620  18.637  0.00  0.00    +0.000 A 
ATOM      2  C   UNL     1       2.847   3.359  19.151  0.00  0.00    +0.000 A 
ATOM      3  C   UNL     1       2.009   3.222  20.262  0.00  0.00    +0.000 A 
ATOM      4  C   UNL     1       1.444   4.346  20.856  0.00  0.00    +0.000 A 
ATOM      5  C   UNL     1       1.717   5.626  20.356  0.00  0.00    +0.000 A 
ATOM      6  C   UNL     1       2.609   5.749  19.268  0.00  0.00    +0.000 A 
ENDROOT
BRANCH   1   9
ATOM      7  C   UNL     1       5.296   4.621  17.330  0.00  0.00    +0.000 C 
ATOM      8  O   UNL     1       6.064   4.438  18.273  0.00  0.00    +0.000 OA
ATOM      9  N   UNL     1       3.926   4.815  17.453  0.00  0.00    +0.000 N 
ATOM     10  H   UNL     1       3.399   5.097  16.640  0.00  0.00    +0.000 HD
BRANCH   7  16
ATOM     11  C   UNL     1       5.655   3.320  12.394  0.00  0.00    +0.000 C 
ATOM     12  C   UNL     1       6.127   4.041  13.620  0.00  0.00    +0.000 A 
ATOM     13  C   UNL     1       7.287   4.807  13.584  0.00  0.00    +0.000 A 
ATOM     14  N   UNL     1       7.778   5.473  14.645  0.00  0.00    +0.000 NA
ATOM     15  C   UNL     1       7.080   5.370  15.803  0.00  0.00    +0.000 A 
ATOM     16  C   UNL     1       5.901   4.638  15.962  0.00  0.00    +0.000 A 
ATOM     17  C   UNL     1       5.422   3.959  14.838  0.00  0.00    +0.000 A 
ENDBRANCH   7  16
ENDBRANCH   1   9
BRANCH   5  18
ATOM     18  C   UNL     1       0.932   6.825  20.855  0.00  0.00    +0.000 C 
BRANCH  18  19
ATOM     19  N   UNL     1       1.546   8.145  20.868  0.00  0.00    +0.000 NA
ATOM     20  C   UNL     1       1.506   8.882  22.119  0.00  0.00    +0.000 C 
ATOM     21  C   UNL     1       0.377   9.877  21.950  0.00  0.00    +0.000 C 
ATOM     22  C   UNL     1       0.380  10.205  20.455  0.00  0.00    +0.000 C 
ATOM     23  C   UNL     1       1.174   9.074  19.799  0.00  0.00    +0.000 C 
BRANCH  22  24
ATOM     24  C   UNL     1       0.955  11.592  20.183  0.00  0.00    +0.000 C 
ATOM     25  O   UNL     1       1.546  12.267  21.010  0.00  0.00    +0.000 OA
ATOM     26  N   UNL     1       0.779  11.993  18.870  0.00  0.00    +0.000 N 
ATOM     27  H   UNL     1       0.213  11.421  18.256  0.00  0.00    +0.000 HD
BRANCH  26  28
ATOM     28  C   UNL     1       1.215  13.285  18.396  0.00  0.00    +0.000 C 
ATOM     29  C   UNL     1       0.777  14.415  19.319  0.00  0.00    +0.000 C 
ATOM     30  C   UNL     1       1.632  15.586  18.855  0.00  0.00    +0.000 C 
ATOM     31  C   UNL     1       2.941  14.966  18.361  0.00  0.00    +0.000 C 
ATOM     32  C   UNL     1       2.733  13.451  18.391  0.00  0.00    +0.000 C 
ENDBRANCH  26  28
ENDBRANCH  22  24
ENDBRANCH  18  19
ENDBRANCH   5  18
TORSDOF 6
ENDMDL
MODEL 7
REMARK VINA RESULT:      -8.1      1.570      1.994
REMARK  Name = 
REMARK  7 active torsions:
REMARK  status: ('A' for Active; 'I' for Inactive)
REMARK    1  A    between atoms: C_1  and  C_2
REMARK    2  A    between atoms: C_6  and  C_7
REMARK    3  A    between atoms: N_9  and  C_10
REMARK    4  A    between atoms: C_14  and  C_15
REMARK    5  A    between atoms: C_15  and  N_16
REMARK    6  A    between atoms: C_19  and  C_20
REMARK    7  A    between atoms: N_22  and  C_23
REMARK                            x       y       z     vdW  Elec       q    Type
REMARK                         _______ _______ _______ _____ _____    ______ ____
ROOT
ATOM      1  C   UNL     1       3.521   6.999  18.185  0.00  0.00    +0.000 A 
ATOM      2  C   UNL     1       3.133   6.289  19.324  0.00  0.00    +0.000 A 
ATOM      3  C   UNL     1       2.112   6.763  20.153  0.00  0.00    +0.000 A 
ATOM      4  C   UNL     1       1.443   7.942  19.838  0.00  0.00    +0.000 A 
ATOM      5  C   UNL     1       1.792   8.671  18.693  0.00  0.00    +0.000 A 
ATOM      6  C   UNL     1       2.862   8.205  17.897  0.00  0.00    +0.000 A 
ENDROOT
BRANCH   1   9
ATOM      7  C   UNL     1       4.504   5.250  16.684  0.00  0.00    +0.000 C 
ATOM      8  O   UNL     1       3.804   4.307  17.050  0.00  0.00    +0.000 OA
ATOM      9  N   UNL     1       4.485   6.517  17.253  0.00  0.00    +0.000 N 
ATOM     10  H   UNL     1       5.192   7.184  16.981  0.00  0.00    +0.000 HD
BRANCH   7  16
ATOM     11  C   UNL     1       5.914   3.250  12.189  0.00  0.00    +0.000 C 
ATOM     12  C   UNL     1       6.167   4.053  13.429  0.00  0.00    +0.000 A 
ATOM     13  C   UNL     1       7.414   4.625  13.655  0.00  0.00    +0.000 A 
ATOM     14  N   UNL     1       7.719   5.349  14.748  0.00  0.00    +0.000 NA
ATOM     15  C   UNL     1       6.733   5.510  15.664  0.00  0.00    +0.000 A 
ATOM     16  C   UNL     1       5.442   4.990  15.547  0.00  0.00    +0.000 A 
ATOM     17  C   UNL     1       5.163   4.243  14.400  0.00  0.00    +0.000 A 
ENDBRANCH   7  16
ENDBRANCH   1   9
BRANCH   5  18
ATOM     18  C   UNL     1       0.923   9.824  18.228  0.00  0.00    +0.000 C 
BRANCH  18  19
ATOM     19  N   UNL     1      -0.405  10.013  18.797  0.00  0.00    +0.000 NA
ATOM     20  C   UNL     1      -1.511  10.143  17.866  0.00  0.00    +0.000 C 
ATOM     21  C   UNL     1      -1.794  11.630  17.801  0.00  0.00    +0.000 C 
ATOM     22  C   UNL     1      -1.435  12.146  19.197  0.00  0.00    +0.000 C 
ATOM     23  C   UNL     1      -0.561  11.053  19.815  0.00  0.00    +0.000 C 
BRANCH  22  24
ATOM     24  C   UNL     1      -2.681  12.468  20.017  0.00  0.00    +0.000 C 
ATOM     25  O   UNL     1      -3.808  12.546  19.555  0.00  0.00    +0.000 OA
ATOM     26  N   UNL     1      -2.408  12.617  21.365  0.00  0.00    +0.000 N 
ATOM     27  H   UNL     1      -1.442  12.617  21.671  0.00  0.00    +0.000 HD
BRANCH  26  28
ATOM     28  C   UNL     1      -3.431  12.957  22.324  0.00  0.00    +0.000 C 
ATOM     29  C   UNL     1      -3.287  12.174  23.622  0.00  0.00    +0.000 C 
ATOM     30  C   UNL     1      -4.192  12.933  24.582  0.00  0.00    +0.000 C 
ATOM     31  C   UNL     1      -4.141  14.393  24.124  0.00  0.00    +0.000 C 
ATOM     32  C   UNL     1      -3.350  14.401  22.814  0.00  0.00    +0.000 C 
ENDBRANCH  26  28
ENDBRANCH  22  24
ENDBRANCH  18  19
ENDBRANCH   5  18
TORSDOF 6
ENDMDL
MODEL 8
REMARK VINA RESULT:      -8.0      1.564     11.723
REMARK  Name = 
REMARK  7 active torsions:
REMARK  status: ('A' for Active; 'I' for Inactive)
REMARK    1  A    between atoms: C_1  and  C_2
REMARK    2  A    between atoms: C_6  and  C_7
REMARK    3  A    between atoms: N_9  and  C_10
REMARK    4  A    between atoms: C_14  and  C_15
REMARK    5  A    between atoms: C_15  and  N_16
REMARK    6  A    between atoms: C_19  and  C_20
REMARK    7  A    between atoms: N_22  and  C_23
REMARK                            x       y       z     vdW  Elec       q    Type
REMARK                         _______ _______ _______ _____ _____    ______ ____
ROOT
ATOM      1  C   UNL     1       0.523  10.001  20.119  0.00  0.00    +0.000 A 
ATOM      2  C   UNL     1       0.600  10.468  18.805  0.00  0.00    +0.000 A 
ATOM      3  C   UNL     1       1.322   9.768  17.834  0.00  0.00    +0.000 A 
ATOM      4  C   UNL     1       1.953   8.570  18.157  0.00  0.00    +0.000 A 
ATOM      5  C   UNL     1       1.881   8.060  19.460  0.00  0.00    +0.000 A 
ATOM      6  C   UNL     1       1.193   8.809  20.441  0.00  0.00    +0.000 A 
ENDROOT
BRANCH   1   9
ATOM      7  C   UNL     1      -0.040  11.861  21.700  0.00  0.00    +0.000 C 
ATOM      8  O   UNL     1       0.993  12.513  21.560  0.00  0.00    +0.000 OA
ATOM      9  N   UNL     1      -0.275  10.619  21.124  0.00  0.00    +0.000 N 
ATOM     10  H   UNL     1      -1.091  10.097  21.408  0.00  0.00    +0.000 HD
BRANCH   7  16
ATOM     11  C   UNL     1      -2.142  15.489  24.634  0.00  0.00    +0.000 C 
ATOM     12  C   UNL     1      -2.141  14.144  23.974  0.00  0.00    +0.000 A 
ATOM     13  C   UNL     1      -3.198  13.262  24.171  0.00  0.00    +0.000 A 
ATOM     14  N   UNL     1      -3.261  12.035  23.621  0.00  0.00    +0.000 NA
ATOM     15  C   UNL     1      -2.218  11.665  22.839  0.00  0.00    +0.000 A 
ATOM     16  C   UNL     1      -1.105  12.463  22.562  0.00  0.00    +0.000 A 
ATOM     17  C   UNL     1      -1.074  13.730  23.151  0.00  0.00    +0.000 A 
ENDBRANCH   7  16
ENDBRANCH   1   9
BRANCH   5  18
ATOM     18  C   UNL     1       2.372   6.656  19.758  0.00  0.00    +0.000 C 
BRANCH  18  19
ATOM     19  N   UNL     1       3.081   5.899  18.736  0.00  0.00    +0.000 NA
ATOM     20  C   UNL     1       3.109   4.455  18.881  0.00  0.00    +0.000 C 
ATOM     21  C   UNL     1       4.476   4.145  19.455  0.00  0.00    +0.000 C 
ATOM     22  C   UNL     1       5.385   5.231  18.876  0.00  0.00    +0.000 C 
ATOM     23  C   UNL     1       4.438   6.332  18.395  0.00  0.00    +0.000 C 
BRANCH  22  24
ATOM     24  C   UNL     1       6.290   4.682  17.777  0.00  0.00    +0.000 C 
ATOM     25  O   UNL     1       7.437   4.305  17.953  0.00  0.00    +0.000 OA
ATOM     26  N   UNL     1       5.654   4.609  16.550  0.00  0.00    +0.000 N 
ATOM     27  H   UNL     1       4.729   5.010  16.454  0.00  0.00    +0.000 HD
BRANCH  26  28
ATOM     28  C   UNL     1       6.330   4.151  15.360  0.00  0.00    +0.000 C 
ATOM     29  C   UNL     1       5.356   3.813  14.239  0.00  0.00    +0.000 C 
ATOM     30  C   UNL     1       6.259   3.725  13.016  0.00  0.00    +0.000 C 
ATOM     31  C   UNL     1       7.393   4.721  13.273  0.00  0.00    +0.000 C 
ATOM     32  C   UNL     1       7.205   5.219  14.707  0.00  0.00    +0.000 C 
ENDBRANCH  26  28
ENDBRANCH  22  24
ENDBRANCH  18  19
ENDBRANCH   5  18
TORSDOF 6
ENDMDL
MODEL 9
REMARK VINA RESULT:      -7.8      2.416      3.400
REMARK  Name = 
REMARK  7 active torsions:
REMARK  status: ('A' for Active; 'I' for Inactive)
REMARK    1  A    between atoms: C_1  and  C_2
REMARK    2  A    between atoms: C_6  and  C_7
REMARK    3  A    between atoms: N_9  and  C_10
REMARK    4  A    between atoms: C_14  and  C_15
REMARK    5  A    between atoms: C_15  and  N_16
REMARK    6  A    between atoms: C_19  and  C_20
REMARK    7  A    between atoms: N_22  and  C_23
REMARK                            x       y       z     vdW  Elec       q    Type
REMARK                         _______ _______ _______ _____ _____    ______ ____
ROOT
ATOM      1  C   UNL     1       3.750   4.899  19.217  0.00  0.00    +0.000 A 
ATOM      2  C   UNL     1       3.495   3.785  20.020  0.00  0.00    +0.000 A 
ATOM      3  C   UNL     1       2.504   3.820  21.006  0.00  0.00    +0.000 A 
ATOM      4  C   UNL     1       1.732   4.965  21.183  0.00  0.00    +0.000 A 
ATOM      5  C   UNL     1       1.947   6.095  20.384  0.00  0.00    +0.000 A 
ATOM      6  C   UNL     1       2.988   6.060  19.430  0.00  0.00    +0.000 A 
ENDROOT
BRANCH   1   9
ATOM      7  C   UNL     1       4.610   4.073  17.014  0.00  0.00    +0.000 C 
ATOM      8  O   UNL     1       3.850   3.114  16.890  0.00  0.00    +0.000 OA
ATOM      9  N   UNL     1       4.677   4.889  18.136  0.00  0.00    +0.000 N 
ATOM     10  H   UNL     1       5.427   5.561  18.205  0.00  0.00    +0.000 HD
BRANCH   7  16
ATOM     11  C   UNL     1       6.412   3.508  12.257  0.00  0.00    +0.000 C 
ATOM     12  C   UNL     1       6.431   4.118  13.626  0.00  0.00    +0.000 A 
ATOM     13  C   UNL     1       7.414   5.038  13.973  0.00  0.00    +0.000 A 
ATOM     14  N   UNL     1       7.501   5.619  15.184  0.00  0.00    +0.000 NA
ATOM     15  C   UNL     1       6.564   5.264  16.097  0.00  0.00    +0.000 A 
ATOM     16  C   UNL     1       5.526   4.358  15.866  0.00  0.00    +0.000 A 
ATOM     17  C   UNL     1       5.468   3.775  14.597  0.00  0.00    +0.000 A 
ENDBRANCH   7  16
ENDBRANCH   1   9
BRANCH   5  18
ATOM     18  C   UNL     1       0.968   7.254  20.421  0.00  0.00    +0.000 C 
BRANCH  18  19
ATOM     19  N   UNL     1       1.425   8.584  20.799  0.00  0.00    +0.000 NA
ATOM     20  C   UNL     1       1.363   8.930  22.207  0.00  0.00    +0.000 C 
ATOM     21  C   UNL     1       0.119   9.783  22.346  0.00  0.00    +0.000 C 
ATOM     22  C   UNL     1       0.009  10.514  21.005  0.00  0.00    +0.000 C 
ATOM     23  C   UNL     1       0.894   9.720  20.043  0.00  0.00    +0.000 C 
BRANCH  22  24
ATOM     24  C   UNL     1       0.406  11.982  21.129  0.00  0.00    +0.000 C 
ATOM     25  O   UNL     1       0.158  12.683  22.097  0.00  0.00    +0.000 OA
ATOM     26  N   UNL     1       1.127  12.433  20.038  0.00  0.00    +0.000 N 
ATOM     27  H   UNL     1       1.230  11.824  19.235  0.00  0.00    +0.000 HD
BRANCH  26  28
ATOM     28  C   UNL     1       1.577  13.799  19.925  0.00  0.00    +0.000 C 
ATOM     29  C   UNL     1       2.985  13.897  19.353  0.00  0.00    +0.000 C 
ATOM     30  C   UNL     1       3.102  15.368  18.980  0.00  0.00    +0.000 C 
ATOM     31  C   UNL     1       1.687  15.806  18.594  0.00  0.00    +0.000 C 
ATOM     32  C   UNL     1       0.771  14.625  18.924  0.00  0.00    +0.000 C 
ENDBRANCH  26  28
ENDBRANCH  22  24
ENDBRANCH  18  19
ENDBRANCH   5  18
TORSDOF 6
ENDMDL
