MODEL 1
REMARK VINA RESULT:      -8.7      0.000      0.000
REMARK  Name = 
REMARK  7 active torsions:
REMARK  status: ('A' for Active; 'I' for Inactive)
REMARK    1  A    between atoms: C_1  and  O_2
REMARK    2  A    between atoms: O_2  and  C_3
REMARK    3  A    between atoms: C_11  and  C_12
REMARK    4  A    between atoms: C_12  and  C_14
REMARK    5  A    between atoms: N_21  and  C_22
REMARK    6  A    between atoms: C_22  and  C_23
REMARK    7  A    between atoms: N_25  and  C_26
REMARK                            x       y       z     vdW  Elec       q    Type
REMARK                         _______ _______ _______ _____ _____    ______ ____
ROOT
ATOM      1  C   UNL     1       6.160   4.208  14.223  0.00  0.00    +0.000 A 
ATOM      2  C   UNL     1       7.433   4.555  14.669  0.00  0.00    +0.000 A 
ATOM      3  C   UNL     1       7.623   5.089  15.958  0.00  0.00    +0.000 A 
ATOM      4  C   UNL     1       6.550   5.284  16.839  0.00  0.00    +0.000 A 
ATOM      5  C   UNL     1       5.277   4.894  16.374  0.00  0.00    +0.000 A 
ATOM      6  C   UNL     1       5.082   4.384  15.080  0.00  0.00    +0.000 A 
ATOM      7  C   UNL     1       4.097   5.000  17.266  0.00  0.00    +0.000 A 
ATOM      8  O   UNL     1       3.008   4.595  16.879  0.00  0.00    +0.000 OA
ATOM      9  C   UNL     1       4.298   5.568  18.619  0.00  0.00    +0.000 A 
ATOM     10  C   UNL     1       5.553   5.906  18.948  0.00  0.00    +0.000 A 
ATOM     11  N   UNL     1       6.682   5.809  18.145  0.00  0.00    +0.000 N 
ENDROOT
BRANCH   1  13
ATOM     12  C   UNL     1       6.833   3.726  11.997  0.00  0.00    +0.000 C 
ATOM     13  O   UNL     1       5.835   3.690  13.003  0.00  0.00    +0.000 OA
ENDBRANCH   1  13
BRANCH   9  14
ATOM     14  C   UNL     1       3.228   5.771  19.634  0.00  0.00    +0.000 C 
ATOM     15  O   UNL     1       2.999   4.920  20.491  0.00  0.00    +0.000 OA
BRANCH  14  16
ATOM     16  C   UNL     1       2.433   7.027  19.609  0.00  0.00    +0.000 A 
ATOM     17  C   UNL     1       2.400   7.780  18.429  0.00  0.00    +0.000 A 
ATOM     18  C   UNL     1       1.723   9.002  18.403  0.00  0.00    +0.000 A 
ATOM     19  C   UNL     1       1.079   9.465  19.546  0.00  0.00    +0.000 A 
ATOM     20  C   UNL     1       1.061   8.690  20.705  0.00  0.00    +0.000 A 
ATOM     21  C   UNL     1       1.716   7.462  20.732  0.00  0.00    +0.000 A 
ENDBRANCH  14  16
ENDBRANCH   9  14
BRANCH  11  22
ATOM     22  C   UNL     1       7.952   6.456  18.560  0.00  0.00    +0.000 C 
BRANCH  22  23
ATOM     23  C   UNL     1       7.991   7.958  18.277  0.00  0.00    +0.000 C 
ATOM     24  O   UNL     1       7.323   8.432  17.359  0.00  0.00    +0.000 OA
ATOM     25  N   UNL     1       8.821   8.683  19.122  0.00  0.00    +0.000 N 
ATOM     26  H   UNL     1       9.564   8.129  19.536  0.00  0.00    +0.000 HD
BRANCH  25  27
ATOM     27  C   UNL     1       9.080  10.048  18.903  0.00  0.00    +0.000 A 
ATOM     28  C   UNL     1       9.692  10.503  17.731  0.00  0.00    +0.000 A 
ATOM     29  C   UNL     1      10.129  11.825  17.639  0.00  0.00    +0.000 A 
ATOM     30  C   UNL     1      10.004  12.665  18.741  0.00  0.00    +0.000 A 
ATOM     31  C   UNL     1       9.307  12.228  19.869  0.00  0.00    +0.000 A 
ATOM     32  C   UNL     1       8.793  10.937  19.936  0.00  0.00    +0.000 A 
ATOM     33  O   UNL     1       9.176  13.012  20.986  0.00  0.00    +0.000 OA
ATOM     34  C   UNL     1      10.393  13.741  21.150  0.00  0.00    +0.000 C 
ATOM     35  C   UNL     1      10.711  14.576  19.915  0.00  0.00    +0.000 C 
ATOM     36  O   UNL     1      10.647  13.868  18.671  0.00  0.00    +0.000 OA
ENDBRANCH  25  27
ENDBRANCH  22  23
ENDBRANCH  11  22
TORSDOF 6
ENDMDL
MODEL 2
REMARK VINA RESULT:      -8.6      1.152      1.374
REMARK  Name = 
REMARK  7 active torsions:
REMARK  status: ('A' for Active; 'I' for Inactive)
REMARK    1  A    between atoms: C_1  and  O_2
REMARK    2  A    between atoms: O_2  and  C_3
REMARK    3  A    between atoms: C_11  and  C_12
REMARK    4  A    between atoms: C_12  and  C_14
REMARK    5  A    between atoms: N_21  and  C_22
REMARK    6  A    between atoms: C_22  and  C_23
REMARK    7  A    between atoms: N_25  and  C_26
REMARK                            x       y       z     vdW  Elec       q    Type
REMARK                         _______ _______ _______ _____ _____    ______ ____
ROOT
ATOM      1  C   UNL     1       6.010   3.990  14.505  0.00  0.00    +0.000 A 
ATOM      2  C   UNL     1       7.286   4.329  14.948  0.00  0.00    +0.000 A 
ATOM      3  C   UNL     1       7.475   4.935  16.206  0.00  0.00    +0.000 A 
ATOM      4  C   UNL     1       6.397   5.211  17.058  0.00  0.00    +0.000 A 
ATOM      5  C   UNL     1       5.119   4.827  16.600  0.00  0.00    +0.000 A 
ATOM      6  C   UNL     1       4.926   4.245  15.336  0.00  0.00    +0.000 A 
ATOM      7  C   UNL     1       3.931   5.018  17.467  0.00  0.00    +0.000 A 
ATOM      8  O   UNL     1       2.837   4.619  17.090  0.00  0.00    +0.000 OA
ATOM      9  C   UNL     1       4.131   5.660  18.786  0.00  0.00    +0.000 A 
ATOM     10  C   UNL     1       5.390   5.984  19.112  0.00  0.00    +0.000 A 
ATOM     11  N   UNL     1       6.526   5.809  18.332  0.00  0.00    +0.000 N 
ENDROOT
BRANCH   1  13
ATOM     12  C   UNL     1       6.422   3.816  12.174  0.00  0.00    +0.000 C 
ATOM     13  O   UNL     1       5.686   3.409  13.315  0.00  0.00    +0.000 OA
ENDBRANCH   1  13
BRANCH   9  14
ATOM     14  C   UNL     1       3.054   5.952  19.772  0.00  0.00    +0.000 C 
ATOM     15  O   UNL     1       2.796   5.163  20.679  0.00  0.00    +0.000 OA
BRANCH  14  16
ATOM     16  C   UNL     1       2.288   7.221  19.657  0.00  0.00    +0.000 A 
ATOM     17  C   UNL     1       2.290   7.899  18.431  0.00  0.00    +0.000 A 
ATOM     18  C   UNL     1       1.641   9.131  18.318  0.00  0.00    +0.000 A 
ATOM     19  C   UNL     1       0.992   9.679  19.421  0.00  0.00    +0.000 A 
ATOM     20  C   UNL     1       0.940   8.979  20.625  0.00  0.00    +0.000 A 
ATOM     21  C   UNL     1       1.567   7.741  20.738  0.00  0.00    +0.000 A 
ENDBRANCH  14  16
ENDBRANCH   9  14
BRANCH  11  22
ATOM     22  C   UNL     1       7.808   6.447  18.725  0.00  0.00    +0.000 C 
BRANCH  22  23
ATOM     23  C   UNL     1       8.027   7.819  18.088  0.00  0.00    +0.000 C 
ATOM     24  O   UNL     1       7.733   8.007  16.909  0.00  0.00    +0.000 OA
ATOM     25  N   UNL     1       8.565   8.773  18.943  0.00  0.00    +0.000 N 
ATOM     26  H   UNL     1       9.094   8.376  19.713  0.00  0.00    +0.000 HD
BRANCH  25  27
ATOM     27  C   UNL     1       8.961  10.038  18.474  0.00  0.00    +0.000 A 
ATOM     28  C   UNL     1      10.243  10.544  18.713  0.00  0.00    +0.000 A 
ATOM     29  C   UNL     1      10.531  11.880  18.427  0.00  0.00    +0.000 A 
ATOM     30  C   UNL     1       9.520  12.713  17.960  0.00  0.00    +0.000 A 
ATOM     31  C   UNL     1       8.272  12.175  17.638  0.00  0.00    +0.000 A 
ATOM     32  C   UNL     1       8.003  10.825  17.840  0.00  0.00    +0.000 A 
ATOM     33  O   UNL     1       7.239  12.959  17.195  0.00  0.00    +0.000 OA
ATOM     34  C   UNL     1       7.308  14.202  17.893  0.00  0.00    +0.000 C 
ATOM     35  C   UNL     1       8.656  14.882  17.684  0.00  0.00    +0.000 C 
ATOM     36  O   UNL     1       9.798  14.049  17.913  0.00  0.00    +0.000 OA
ENDBRANCH  25  27
ENDBRANCH  22  23
ENDBRANCH  11  22
TORSDOF 6
ENDMDL
MODEL 3
REMARK VINA RESULT:      -8.5      1.784      2.611
REMARK  Name = 
REMARK  7 active torsions:
REMARK  status: ('A' for Active; 'I' for Inactive)
REMARK    1  A    between atoms: C_1  and  O_2
REMARK    2  A    between atoms: O_2  and  C_3
REMARK    3  A    between atoms: C_11  and  C_12
REMARK    4  A    between atoms: C_12  and  C_14
REMARK    5  A    between atoms: N_21  and  C_22
REMARK    6  A    between atoms: C_22  and  C_23
REMARK    7  A    between atoms: N_25  and  C_26
REMARK                            x       y       z     vdW  Elec       q    Type
REMARK                         _______ _______ _______ _____ _____    ______ ____
ROOT
ATOM      1  C   UNL     1       6.114   4.085  14.138  0.00  0.00    +0.000 A 
ATOM      2  C   UNL     1       7.383   4.422  14.599  0.00  0.00    +0.000 A 
ATOM      3  C   UNL     1       7.559   4.978  15.882  0.00  0.00    +0.000 A 
ATOM      4  C   UNL     1       6.474   5.205  16.740  0.00  0.00    +0.000 A 
ATOM      5  C   UNL     1       5.204   4.825  16.260  0.00  0.00    +0.000 A 
ATOM      6  C   UNL     1       5.023   4.293  14.973  0.00  0.00    +0.000 A 
ATOM      7  C   UNL     1       4.010   4.965  17.129  0.00  0.00    +0.000 A 
ATOM      8  O   UNL     1       2.922   4.568  16.731  0.00  0.00    +0.000 OA
ATOM      9  C   UNL     1       4.196   5.555  18.474  0.00  0.00    +0.000 A 
ATOM     10  C   UNL     1       5.449   5.881  18.819  0.00  0.00    +0.000 A 
ATOM     11  N   UNL     1       6.591   5.753  18.038  0.00  0.00    +0.000 N 
ENDROOT
BRANCH   1  13
ATOM     12  C   UNL     1       6.783   3.638  11.904  0.00  0.00    +0.000 C 
ATOM     13  O   UNL     1       5.802   3.549  12.923  0.00  0.00    +0.000 OA
ENDBRANCH   1  13
BRANCH   9  14
ATOM     14  C   UNL     1       3.111   5.793  19.467  0.00  0.00    +0.000 C 
ATOM     15  O   UNL     1       2.766   6.934  19.764  0.00  0.00    +0.000 OA
BRANCH  14  16
ATOM     16  C   UNL     1       2.438   4.629  20.100  0.00  0.00    +0.000 A 
ATOM     17  C   UNL     1       1.363   4.027  19.431  0.00  0.00    +0.000 A 
ATOM     18  C   UNL     1       0.666   2.981  20.039  0.00  0.00    +0.000 A 
ATOM     19  C   UNL     1       1.041   2.536  21.304  0.00  0.00    +0.000 A 
ATOM     20  C   UNL     1       2.145   3.095  21.946  0.00  0.00    +0.000 A 
ATOM     21  C   UNL     1       2.858   4.124  21.337  0.00  0.00    +0.000 A 
ENDBRANCH  14  16
ENDBRANCH   9  14
BRANCH  11  22
ATOM     22  C   UNL     1       7.863   6.390  18.463  0.00  0.00    +0.000 C 
BRANCH  22  23
ATOM     23  C   UNL     1       7.948   7.875  18.110  0.00  0.00    +0.000 C 
ATOM     24  O   UNL     1       7.339   8.315  17.136  0.00  0.00    +0.000 OA
ATOM     25  N   UNL     1       8.748   8.625  18.962  0.00  0.00    +0.000 N 
ATOM     26  H   UNL     1       9.457   8.078  19.440  0.00  0.00    +0.000 HD
BRANCH  25  27
ATOM     27  C   UNL     1       9.047   9.972  18.692  0.00  0.00    +0.000 A 
ATOM     28  C   UNL     1      10.046  10.659  19.388  0.00  0.00    +0.000 A 
ATOM     29  C   UNL     1      10.169  12.043  19.250  0.00  0.00    +0.000 A 
ATOM     30  C   UNL     1       9.255  12.736  18.463  0.00  0.00    +0.000 A 
ATOM     31  C   UNL     1       8.323  12.030  17.700  0.00  0.00    +0.000 A 
ATOM     32  C   UNL     1       8.249  10.641  17.767  0.00  0.00    +0.000 A 
ATOM     33  O   UNL     1       7.389  12.669  16.927  0.00  0.00    +0.000 OA
ATOM     34  C   UNL     1       6.979  13.845  17.625  0.00  0.00    +0.000 C 
ATOM     35  C   UNL     1       8.166  14.750  17.931  0.00  0.00    +0.000 C 
ATOM     36  O   UNL     1       9.285  14.099  18.544  0.00  0.00    +0.000 OA
ENDBRANCH  25  27
ENDBRANCH  22  23
ENDBRANCH  11  22
TORSDOF 6
ENDMDL
MODEL 4
REMARK VINA RESULT:      -8.5      1.626      2.502
REMARK  Name = 
REMARK  7 active torsions:
REMARK  status: ('A' for Active; 'I' for Inactive)
REMARK    1  A    between atoms: C_1  and  O_2
REMARK    2  A    between atoms: O_2  and  C_3
REMARK    3  A    between atoms: C_11  and  C_12
REMARK    4  A    between atoms: C_12  and  C_14
REMARK    5  A    between atoms: N_21  and  C_22
REMARK    6  A    between atoms: C_22  and  C_23
REMARK    7  A    between atoms: N_25  and  C_26
REMARK                            x       y       z     vdW  Elec       q    Type
REMARK                         _______ _______ _______ _____ _____    ______ ____
ROOT
ATOM      1  C   UNL     1       5.919   4.185  13.932  0.00  0.00    +0.000 A 
ATOM      2  C   UNL     1       7.211   4.536  14.314  0.00  0.00    +0.000 A 
ATOM      3  C   UNL     1       7.470   5.033  15.607  0.00  0.00    +0.000 A 
ATOM      4  C   UNL     1       6.448   5.185  16.554  0.00  0.00    +0.000 A 
ATOM      5  C   UNL     1       5.154   4.792  16.152  0.00  0.00    +0.000 A 
ATOM      6  C   UNL     1       4.890   4.319  14.855  0.00  0.00    +0.000 A 
ATOM      7  C   UNL     1       4.027   4.853  17.114  0.00  0.00    +0.000 A 
ATOM      8  O   UNL     1       2.923   4.444  16.777  0.00  0.00    +0.000 OA
ATOM      9  C   UNL     1       4.299   5.380  18.469  0.00  0.00    +0.000 A 
ATOM     10  C   UNL     1       5.567   5.726  18.736  0.00  0.00    +0.000 A 
ATOM     11  N   UNL     1       6.649   5.671  17.866  0.00  0.00    +0.000 N 
ENDROOT
BRANCH   1  13
ATOM     12  C   UNL     1       6.482   2.950  11.984  0.00  0.00    +0.000 C 
ATOM     13  O   UNL     1       5.530   3.701  12.717  0.00  0.00    +0.000 OA
ENDBRANCH   1  13
BRANCH   9  14
ATOM     14  C   UNL     1       3.288   5.537  19.551  0.00  0.00    +0.000 C 
ATOM     15  O   UNL     1       2.859   6.646  19.860  0.00  0.00    +0.000 OA
BRANCH  14  16
ATOM     16  C   UNL     1       2.791   4.329  20.260  0.00  0.00    +0.000 A 
ATOM     17  C   UNL     1       1.434   4.259  20.602  0.00  0.00    +0.000 A 
ATOM     18  C   UNL     1       0.957   3.170  21.335  0.00  0.00    +0.000 A 
ATOM     19  C   UNL     1       1.829   2.155  21.720  0.00  0.00    +0.000 A 
ATOM     20  C   UNL     1       3.168   2.194  21.332  0.00  0.00    +0.000 A 
ATOM     21  C   UNL     1       3.645   3.267  20.584  0.00  0.00    +0.000 A 
ENDBRANCH  14  16
ENDBRANCH   9  14
BRANCH  11  22
ATOM     22  C   UNL     1       7.933   6.323  18.227  0.00  0.00    +0.000 C 
BRANCH  22  23
ATOM     23  C   UNL     1       7.901   7.846  18.092  0.00  0.00    +0.000 C 
ATOM     24  O   UNL     1       7.175   8.377  17.253  0.00  0.00    +0.000 OA
ATOM     25  N   UNL     1       8.740   8.520  18.970  0.00  0.00    +0.000 N 
ATOM     26  H   UNL     1       9.522   7.961  19.296  0.00  0.00    +0.000 HD
BRANCH  25  27
ATOM     27  C   UNL     1       8.936   9.909  18.876  0.00  0.00    +0.000 A 
ATOM     28  C   UNL     1       8.448  10.651  17.795  0.00  0.00    +0.000 A 
ATOM     29  C   UNL     1       8.844  11.978  17.623  0.00  0.00    +0.000 A 
ATOM     30  C   UNL     1       9.770  12.535  18.499  0.00  0.00    +0.000 A 
ATOM     31  C   UNL     1      10.176  11.817  19.625  0.00  0.00    +0.000 A 
ATOM     32  C   UNL     1       9.720  10.522  19.851  0.00  0.00    +0.000 A 
ATOM     33  O   UNL     1      11.102  12.315  20.505  0.00  0.00    +0.000 OA
ATOM     34  C   UNL     1      12.070  13.044  19.750  0.00  0.00    +0.000 C 
ATOM     35  C   UNL     1      11.417  14.155  18.936  0.00  0.00    +0.000 C 
ATOM     36  O   UNL     1      10.287  13.751  18.154  0.00  0.00    +0.000 OA
ENDBRANCH  25  27
ENDBRANCH  22  23
ENDBRANCH  11  22
TORSDOF 6
ENDMDL
MODEL 5
REMARK VINA RESULT:      -8.4      5.040      9.958
REMARK  Name = 
REMARK  7 active torsions:
REMARK  status: ('A' for Active; 'I' for Inactive)
REMARK    1  A    between atoms: C_1  and  O_2
REMARK    2  A    between atoms: O_2  and  C_3
REMARK    3  A    between atoms: C_11  and  C_12
REMARK    4  A    between atoms: C_12  and  C_14
REMARK    5  A    between atoms: N_21  and  C_22
REMARK    6  A    between atoms: C_22  and  C_23
REMARK    7  A    between atoms: N_25  and  C_26
REMARK                            x       y       z     vdW  Elec       q    Type
REMARK                         _______ _______ _______ _____ _____    ______ ____
ROOT
ATOM      1  C   UNL     1      -3.393  10.762  17.755  0.00  0.00    +0.000 A 
ATOM      2  C   UNL     1      -2.584   9.727  17.294  0.00  0.00    +0.000 A 
ATOM      3  C   UNL     1      -1.198   9.727  17.549  0.00  0.00    +0.000 A 
ATOM      4  C   UNL     1      -0.585  10.757  18.276  0.00  0.00    +0.000 A 
ATOM      5  C   UNL     1      -1.432  11.776  18.758  0.00  0.00    +0.000 A 
ATOM      6  C   UNL     1      -2.810  11.789  18.485  0.00  0.00    +0.000 A 
ATOM      7  C   UNL     1      -0.878  12.867  19.597  0.00  0.00    +0.000 A 
ATOM      8  O   UNL     1      -1.632  13.708  20.070  0.00  0.00    +0.000 OA
ATOM      9  C   UNL     1       0.579  12.869  19.859  0.00  0.00    +0.000 A 
ATOM     10  C   UNL     1       1.283  11.850  19.346  0.00  0.00    +0.000 A 
ATOM     11  N   UNL     1       0.797  10.807  18.568  0.00  0.00    +0.000 N 
ENDROOT
BRANCH   1  13
ATOM     12  C   UNL     1      -5.374  11.993  18.195  0.00  0.00    +0.000 C 
ATOM     13  O   UNL     1      -4.739  10.888  17.574  0.00  0.00    +0.000 OA
ENDBRANCH   1  13
BRANCH   9  14
ATOM     14  C   UNL     1       1.308  13.895  20.654  0.00  0.00    +0.000 C 
ATOM     15  O   UNL     1       1.193  13.948  21.877  0.00  0.00    +0.000 OA
BRANCH  14  16
ATOM     16  C   UNL     1       2.193  14.863  19.954  0.00  0.00    +0.000 A 
ATOM     17  C   UNL     1       1.614  15.794  19.082  0.00  0.00    +0.000 A 
ATOM     18  C   UNL     1       2.430  16.664  18.354  0.00  0.00    +0.000 A 
ATOM     19  C   UNL     1       3.813  16.606  18.500  0.00  0.00    +0.000 A 
ATOM     20  C   UNL     1       4.388  15.720  19.410  0.00  0.00    +0.000 A 
ATOM     21  C   UNL     1       3.579  14.865  20.154  0.00  0.00    +0.000 A 
ENDBRANCH  14  16
ENDBRANCH   9  14
BRANCH  11  22
ATOM     22  C   UNL     1       1.737   9.897  17.865  0.00  0.00    +0.000 C 
BRANCH  22  23
ATOM     23  C   UNL     1       1.947   8.565  18.585  0.00  0.00    +0.000 C 
ATOM     24  O   UNL     1       1.550   8.416  19.739  0.00  0.00    +0.000 OA
ATOM     25  N   UNL     1       2.601   7.599  17.831  0.00  0.00    +0.000 N 
ATOM     26  H   UNL     1       3.185   7.984  17.095  0.00  0.00    +0.000 HD
BRANCH  25  27
ATOM     27  C   UNL     1       2.999   6.374  18.394  0.00  0.00    +0.000 A 
ATOM     28  C   UNL     1       4.294   6.175  18.886  0.00  0.00    +0.000 A 
ATOM     29  C   UNL     1       4.719   4.892  19.235  0.00  0.00    +0.000 A 
ATOM     30  C   UNL     1       3.867   3.811  19.035  0.00  0.00    +0.000 A 
ATOM     31  C   UNL     1       2.548   4.033  18.634  0.00  0.00    +0.000 A 
ATOM     32  C   UNL     1       2.090   5.319  18.365  0.00  0.00    +0.000 A 
ATOM     33  O   UNL     1       1.678   2.999  18.404  0.00  0.00    +0.000 OA
ATOM     34  C   UNL     1       2.420   1.931  17.816  0.00  0.00    +0.000 C 
ATOM     35  C   UNL     1       3.577   1.500  18.710  0.00  0.00    +0.000 C 
ATOM     36  O   UNL     1       4.410   2.566  19.180  0.00  0.00    +0.000 OA
ENDBRANCH  25  27
ENDBRANCH  22  23
ENDBRANCH  11  22
TORSDOF 6
ENDMDL
MODEL 6
REMARK VINA RESULT:      -8.2      4.788      9.038
REMARK  Name = 
REMARK  7 active torsions:
REMARK  status: ('A' for Active; 'I' for Inactive)
REMARK    1  A    between atoms: C_1  and  O_2
REMARK    2  A    between atoms: O_2  and  C_3
REMARK    3  A    between atoms: C_11  and  C_12
REMARK    4  A    between atoms: C_12  and  C_14
REMARK    5  A    between atoms: N_21  and  C_22
REMARK    6  A    between atoms: C_22  and  C_23
REMARK    7  A    between atoms: N_25  and  C_26
REMARK                            x       y       z     vdW  Elec       q    Type
REMARK                         _______ _______ _______ _____ _____    ______ ____
ROOT
ATOM      1  C   UNL     1       3.220  14.395  19.295  0.00  0.00    +0.000 A 
ATOM      2  C   UNL     1       3.162  13.524  18.211  0.00  0.00    +0.000 A 
ATOM      3  C   UNL     1       2.269  12.435  18.207  0.00  0.00    +0.000 A 
ATOM      4  C   UNL     1       1.404  12.190  19.283  0.00  0.00    +0.000 A 
ATOM      5  C   UNL     1       1.459  13.106  20.355  0.00  0.00    +0.000 A 
ATOM      6  C   UNL     1       2.367  14.179  20.370  0.00  0.00    +0.000 A 
ATOM      7  C   UNL     1       0.530  12.964  21.502  0.00  0.00    +0.000 A 
ATOM      8  O   UNL     1       0.538  13.803  22.394  0.00  0.00    +0.000 OA
ATOM      9  C   UNL     1      -0.404  11.816  21.500  0.00  0.00    +0.000 A 
ATOM     10  C   UNL     1      -0.364  11.010  20.429  0.00  0.00    +0.000 A 
ATOM     11  N   UNL     1       0.483  11.120  19.333  0.00  0.00    +0.000 N 
ENDROOT
BRANCH   1  13
ATOM     12  C   UNL     1       4.113  16.374  18.335  0.00  0.00    +0.000 C 
ATOM     13  O   UNL     1       4.037  15.478  19.431  0.00  0.00    +0.000 OA
ENDBRANCH   1  13
BRANCH   9  14
ATOM     14  C   UNL     1      -1.385  11.502  22.575  0.00  0.00    +0.000 C 
ATOM     15  O   UNL     1      -1.136  10.657  23.432  0.00  0.00    +0.000 OA
BRANCH  14  16
ATOM     16  C   UNL     1      -2.681  12.229  22.610  0.00  0.00    +0.000 A 
ATOM     17  C   UNL     1      -3.201  12.620  23.851  0.00  0.00    +0.000 A 
ATOM     18  C   UNL     1      -4.453  13.237  23.916  0.00  0.00    +0.000 A 
ATOM     19  C   UNL     1      -5.178  13.465  22.750  0.00  0.00    +0.000 A 
ATOM     20  C   UNL     1      -4.637  13.129  21.510  0.00  0.00    +0.000 A 
ATOM     21  C   UNL     1      -3.381  12.534  21.436  0.00  0.00    +0.000 A 
ENDBRANCH  14  16
ENDBRANCH   9  14
BRANCH  11  22
ATOM     22  C   UNL     1       0.581  10.011  18.350  0.00  0.00    +0.000 C 
BRANCH  22  23
ATOM     23  C   UNL     1       1.502   8.877  18.801  0.00  0.00    +0.000 C 
ATOM     24  O   UNL     1       1.665   8.653  20.000  0.00  0.00    +0.000 OA
ATOM     25  N   UNL     1       2.101   8.173  17.765  0.00  0.00    +0.000 N 
ATOM     26  H   UNL     1       2.178   8.705  16.903  0.00  0.00    +0.000 HD
BRANCH  25  27
ATOM     27  C   UNL     1       3.085   7.199  18.011  0.00  0.00    +0.000 A 
ATOM     28  C   UNL     1       2.991   6.315  19.090  0.00  0.00    +0.000 A 
ATOM     29  C   UNL     1       4.081   5.513  19.432  0.00  0.00    +0.000 A 
ATOM     30  C   UNL     1       5.274   5.643  18.729  0.00  0.00    +0.000 A 
ATOM     31  C   UNL     1       5.325   6.458  17.597  0.00  0.00    +0.000 A 
ATOM     32  C   UNL     1       4.216   7.198  17.198  0.00  0.00    +0.000 A 
ATOM     33  O   UNL     1       6.483   6.635  16.884  0.00  0.00    +0.000 OA
ATOM     34  C   UNL     1       7.566   6.657  17.815  0.00  0.00    +0.000 C 
ATOM     35  C   UNL     1       7.609   5.379  18.645  0.00  0.00    +0.000 C 
ATOM     36  O   UNL     1       6.364   5.003  19.246  0.00  0.00    +0.000 OA
ENDBRANCH  25  27
ENDBRANCH  22  23
ENDBRANCH  11  22
TORSDOF 6
ENDMDL
MODEL 7
REMARK VINA RESULT:      -8.2      1.418      2.307
REMARK  Name = 
REMARK  7 active torsions:
REMARK  status: ('A' for Active; 'I' for Inactive)
REMARK    1  A    between atoms: C_1  and  O_2
REMARK    2  A    between atoms: O_2  and  C_3
REMARK    3  A    between atoms: C_11  and  C_12
REMARK    4  A    between atoms: C_12  and  C_14
REMARK    5  A    between atoms: N_21  and  C_22
REMARK    6  A    between atoms: C_22  and  C_23
REMARK    7  A    between atoms: N_25  and  C_26
REMARK                            x       y       z     vdW  Elec       q    Type
REMARK                         _______ _______ _______ _____ _____    ______ ____
ROOT
ATOM      1  C   UNL     1       6.141   4.150  14.025  0.00  0.00    +0.000 A 
ATOM      2  C   UNL     1       7.419   4.512  14.441  0.00  0.00    +0.000 A 
ATOM      3  C   UNL     1       7.633   5.054  15.724  0.00  0.00    +0.000 A 
ATOM      4  C   UNL     1       6.578   5.243  16.627  0.00  0.00    +0.000 A 
ATOM      5  C   UNL     1       5.299   4.838  16.193  0.00  0.00    +0.000 A 
ATOM      6  C   UNL     1       5.080   4.320  14.905  0.00  0.00    +0.000 A 
ATOM      7  C   UNL     1       4.138   4.936  17.110  0.00  0.00    +0.000 A 
ATOM      8  O   UNL     1       3.045   4.518  16.749  0.00  0.00    +0.000 OA
ATOM      9  C   UNL     1       4.363   5.512  18.455  0.00  0.00    +0.000 A 
ATOM     10  C   UNL     1       5.621   5.864  18.755  0.00  0.00    +0.000 A 
ATOM     11  N   UNL     1       6.733   5.775  17.927  0.00  0.00    +0.000 N 
ENDROOT
BRANCH   1  13
ATOM     12  C   UNL     1       6.799   3.576  11.818  0.00  0.00    +0.000 C 
ATOM     13  O   UNL     1       5.794   3.623  12.815  0.00  0.00    +0.000 OA
ENDBRANCH   1  13
BRANCH   9  14
ATOM     14  C   UNL     1       3.314   5.710  19.494  0.00  0.00    +0.000 C 
ATOM     15  O   UNL     1       2.876   6.830  19.745  0.00  0.00    +0.000 OA
BRANCH  14  16
ATOM     16  C   UNL     1       2.789   4.530  20.229  0.00  0.00    +0.000 A 
ATOM     17  C   UNL     1       3.672   3.494  20.561  0.00  0.00    +0.000 A 
ATOM     18  C   UNL     1       3.189   2.342  21.184  0.00  0.00    +0.000 A 
ATOM     19  C   UNL     1       1.833   2.226  21.478  0.00  0.00    +0.000 A 
ATOM     20  C   UNL     1       0.962   3.278  21.201  0.00  0.00    +0.000 A 
ATOM     21  C   UNL     1       1.441   4.438  20.599  0.00  0.00    +0.000 A 
ENDBRANCH  14  16
ENDBRANCH   9  14
BRANCH  11  22
ATOM     22  C   UNL     1       8.006   6.437  18.311  0.00  0.00    +0.000 C 
BRANCH  22  23
ATOM     23  C   UNL     1       7.976   7.957  18.146  0.00  0.00    +0.000 C 
ATOM     24  O   UNL     1       7.228   8.474  17.317  0.00  0.00    +0.000 OA
ATOM     25  N   UNL     1       8.840   8.646  18.987  0.00  0.00    +0.000 N 
ATOM     26  H   UNL     1       9.629   8.090  19.302  0.00  0.00    +0.000 HD
BRANCH  25  27
ATOM     27  C   UNL     1       9.038  10.032  18.859  0.00  0.00    +0.000 A 
ATOM     28  C   UNL     1       9.581  10.595  17.700  0.00  0.00    +0.000 A 
ATOM     29  C   UNL     1       9.965  11.937  17.689  0.00  0.00    +0.000 A 
ATOM     30  C   UNL     1       9.856  12.689  18.854  0.00  0.00    +0.000 A 
ATOM     31  C   UNL     1       9.226  12.144  19.974  0.00  0.00    +0.000 A 
ATOM     32  C   UNL     1       8.764  10.831  19.966  0.00  0.00    +0.000 A 
ATOM     33  O   UNL     1       9.115  12.838  21.151  0.00  0.00    +0.000 OA
ATOM     34  C   UNL     1      10.310  13.602  21.319  0.00  0.00    +0.000 C 
ATOM     35  C   UNL     1      10.542  14.536  20.137  0.00  0.00    +0.000 C 
ATOM     36  O   UNL     1      10.451  13.919  18.848  0.00  0.00    +0.000 OA
ENDBRANCH  25  27
ENDBRANCH  22  23
ENDBRANCH  11  22
TORSDOF 6
ENDMDL
MODEL 8
REMARK VINA RESULT:      -8.1      4.762      9.543
REMARK  Name = 
REMARK  7 active torsions:
REMARK  status: ('A' for Active; 'I' for Inactive)
REMARK    1  A    between atoms: C_1  and  O_2
REMARK    2  A    between atoms: O_2  and  C_3
REMARK    3  A    between atoms: C_11  and  C_12
REMARK    4  A    between atoms: C_12  and  C_14
REMARK    5  A    between atoms: N_21  and  C_22
REMARK    6  A    between atoms: C_22  and  C_23
REMARK    7  A    between atoms: N_25  and  C_26
REMARK                            x       y       z     vdW  Elec       q    Type
REMARK                         _______ _______ _______ _____ _____    ______ ____
ROOT
ATOM      1  C   UNL     1       3.095  14.554  19.229  0.00  0.00    +0.000 A 
ATOM      2  C   UNL     1       3.095  13.639  18.179  0.00  0.00    +0.000 A 
ATOM      3  C   UNL     1       2.273  12.496  18.221  0.00  0.00    +0.000 A 
ATOM      4  C   UNL     1       1.426  12.238  19.308  0.00  0.00    +0.000 A 
ATOM      5  C   UNL     1       1.422  13.197  20.342  0.00  0.00    +0.000 A 
ATOM      6  C   UNL     1       2.258  14.326  20.313  0.00  0.00    +0.000 A 
ATOM      7  C   UNL     1       0.504  13.040  21.496  0.00  0.00    +0.000 A 
ATOM      8  O   UNL     1       0.457  13.913  22.355  0.00  0.00    +0.000 OA
ATOM      9  C   UNL     1      -0.354  11.835  21.542  0.00  0.00    +0.000 A 
ATOM     10  C   UNL     1      -0.262  10.992  20.503  0.00  0.00    +0.000 A 
ATOM     11  N   UNL     1       0.576  11.113  19.401  0.00  0.00    +0.000 N 
ENDROOT
BRANCH   1  13
ATOM     12  C   UNL     1       5.241  15.538  19.481  0.00  0.00    +0.000 C 
ATOM     13  O   UNL     1       3.841  15.693  19.319  0.00  0.00    +0.000 OA
ENDBRANCH   1  13
BRANCH   9  14
ATOM     14  C   UNL     1      -1.313  11.502  22.631  0.00  0.00    +0.000 C 
ATOM     15  O   UNL     1      -1.029  10.671  23.492  0.00  0.00    +0.000 OA
BRANCH  14  16
ATOM     16  C   UNL     1      -2.629  12.191  22.676  0.00  0.00    +0.000 A 
ATOM     17  C   UNL     1      -3.110  12.802  21.511  0.00  0.00    +0.000 A 
ATOM     18  C   UNL     1      -4.307  13.520  21.546  0.00  0.00    +0.000 A 
ATOM     19  C   UNL     1      -5.022  13.624  22.737  0.00  0.00    +0.000 A 
ATOM     20  C   UNL     1      -4.575  12.968  23.883  0.00  0.00    +0.000 A 
ATOM     21  C   UNL     1      -3.393  12.233  23.849  0.00  0.00    +0.000 A 
ENDBRANCH  14  16
ENDBRANCH   9  14
BRANCH  11  22
ATOM     22  C   UNL     1       0.745   9.975  18.463  0.00  0.00    +0.000 C 
BRANCH  22  23
ATOM     23  C   UNL     1       1.530   8.806  19.059  0.00  0.00    +0.000 C 
ATOM     24  O   UNL     1       1.596   8.664  20.279  0.00  0.00    +0.000 OA
ATOM     25  N   UNL     1       2.128   7.975  18.121  0.00  0.00    +0.000 N 
ATOM     26  H   UNL     1       2.308   8.429  17.231  0.00  0.00    +0.000 HD
BRANCH  25  27
ATOM     27  C   UNL     1       3.002   6.943  18.506  0.00  0.00    +0.000 A 
ATOM     28  C   UNL     1       4.167   6.657  17.786  0.00  0.00    +0.000 A 
ATOM     29  C   UNL     1       4.893   5.498  18.063  0.00  0.00    +0.000 A 
ATOM     30  C   UNL     1       4.418   4.605  19.018  0.00  0.00    +0.000 A 
ATOM     31  C   UNL     1       3.309   4.947  19.795  0.00  0.00    +0.000 A 
ATOM     32  C   UNL     1       2.628   6.142  19.582  0.00  0.00    +0.000 A 
ATOM     33  O   UNL     1       2.791   4.091  20.732  0.00  0.00    +0.000 OA
ATOM     34  C   UNL     1       2.907   2.764  20.219  0.00  0.00    +0.000 C 
ATOM     35  C   UNL     1       4.355   2.421  19.888  0.00  0.00    +0.000 C 
ATOM     36  O   UNL     1       5.041   3.391  19.087  0.00  0.00    +0.000 OA
ENDBRANCH  25  27
ENDBRANCH  22  23
ENDBRANCH  11  22
TORSDOF 6
ENDMDL
MODEL 9
REMARK VINA RESULT:      -8.0      4.725      9.087
REMARK  Name = 
REMARK  7 active torsions:
REMARK  status: ('A' for Active; 'I' for Inactive)
REMARK    1  A    between atoms: C_1  and  O_2
REMARK    2  A    between atoms: O_2  and  C_3
REMARK    3  A    between atoms: C_11  and  C_12
REMARK    4  A    between atoms: C_12  and  C_14
REMARK    5  A    between atoms: N_21  and  C_22
REMARK    6  A    between atoms: C_22  and  C_23
REMARK    7  A    between atoms: N_25  and  C_26
REMARK                            x       y       z     vdW  Elec       q    Type
REMARK                         _______ _______ _______ _____ _____    ______ ____
ROOT
ATOM      1  C   UNL     1      -2.559  11.050  17.106  0.00  0.00    +0.000 A 
ATOM      2  C   UNL     1      -2.284   9.767  17.572  0.00  0.00    +0.000 A 
ATOM      3  C   UNL     1      -1.265   9.548  18.520  0.00  0.00    +0.000 A 
ATOM      4  C   UNL     1      -0.499  10.604  19.033  0.00  0.00    +0.000 A 
ATOM      5  C   UNL     1      -0.820  11.896  18.569  0.00  0.00    +0.000 A 
ATOM      6  C   UNL     1      -1.819  12.114  17.606  0.00  0.00    +0.000 A 
ATOM      7  C   UNL     1      -0.107  13.078  19.112  0.00  0.00    +0.000 A 
ATOM      8  O   UNL     1      -0.440  14.202  18.755  0.00  0.00    +0.000 OA
ATOM      9  C   UNL     1       0.967  12.846  20.104  0.00  0.00    +0.000 A 
ATOM     10  C   UNL     1       1.184  11.574  20.467  0.00  0.00    +0.000 A 
ATOM     11  N   UNL     1       0.530  10.445  19.990  0.00  0.00    +0.000 N 
ENDROOT
BRANCH   1  13
ATOM     12  C   UNL     1      -3.603  10.605  15.021  0.00  0.00    +0.000 C 
ATOM     13  O   UNL     1      -3.507  11.400  16.190  0.00  0.00    +0.000 OA
ENDBRANCH   1  13
BRANCH   9  14
ATOM     14  C   UNL     1       1.801  13.907  20.734  0.00  0.00    +0.000 C 
ATOM     15  O   UNL     1       1.751  14.116  21.944  0.00  0.00    +0.000 OA
BRANCH  14  16
ATOM     16  C   UNL     1       2.709  14.718  19.881  0.00  0.00    +0.000 A 
ATOM     17  C   UNL     1       3.295  14.118  18.760  0.00  0.00    +0.000 A 
ATOM     18  C   UNL     1       4.211  14.836  17.986  0.00  0.00    +0.000 A 
ATOM     19  C   UNL     1       4.535  16.145  18.329  0.00  0.00    +0.000 A 
ATOM     20  C   UNL     1       3.910  16.764  19.411  0.00  0.00    +0.000 A 
ATOM     21  C   UNL     1       2.981  16.061  20.173  0.00  0.00    +0.000 A 
ENDBRANCH  14  16
ENDBRANCH   9  14
BRANCH  11  22
ATOM     22  C   UNL     1       1.053   9.091  20.299  0.00  0.00    +0.000 C 
BRANCH  22  23
ATOM     23  C   UNL     1       1.876   8.482  19.164  0.00  0.00    +0.000 C 
ATOM     24  O   UNL     1       2.098   9.133  18.143  0.00  0.00    +0.000 OA
ATOM     25  N   UNL     1       2.316   7.186  19.400  0.00  0.00    +0.000 N 
ATOM     26  H   UNL     1       1.744   6.679  20.068  0.00  0.00    +0.000 HD
BRANCH  25  27
ATOM     27  C   UNL     1       2.958   6.435  18.400  0.00  0.00    +0.000 A 
ATOM     28  C   UNL     1       2.607   5.107  18.136  0.00  0.00    +0.000 A 
ATOM     29  C   UNL     1       3.403   4.328  17.296  0.00  0.00    +0.000 A 
ATOM     30  C   UNL     1       4.575   4.864  16.772  0.00  0.00    +0.000 A 
ATOM     31  C   UNL     1       4.864   6.217  16.966  0.00  0.00    +0.000 A 
ATOM     32  C   UNL     1       4.030   7.023  17.734  0.00  0.00    +0.000 A 
ATOM     33  O   UNL     1       6.016   6.785  16.487  0.00  0.00    +0.000 OA
ATOM     34  C   UNL     1       7.061   5.819  16.611  0.00  0.00    +0.000 C 
ATOM     35  C   UNL     1       6.719   4.535  15.864  0.00  0.00    +0.000 C 
ATOM     36  O   UNL     1       5.422   3.995  16.147  0.00  0.00    +0.000 OA
ENDBRANCH  25  27
ENDBRANCH  22  23
ENDBRANCH  11  22
TORSDOF 6
ENDMDL
