MODEL 1
REMARK VINA RESULT:      -7.8      0.000      0.000
REMARK  Name = 
REMARK  4 active torsions:
REMARK  status: ('A' for Active; 'I' for Inactive)
REMARK    1  A    between atoms: C_10  and  C_12
REMARK    2  A    between atoms: C_12  and  O_13
REMARK    3  A    between atoms: O_13  and  C_14
REMARK    4  A    between atoms: C_14  and  C_15
REMARK                            x       y       z     vdW  Elec       q    Type
REMARK                         _______ _______ _______ _____ _____    ______ ____
ROOT
ATOM      1  O   UNL     1       4.990   2.338  20.248  0.00  0.00    +0.000 OA
ATOM      2  C   UNL     1       3.769   2.483  20.299  0.00  0.00    +0.000 C 
ATOM      3  N   UNL     1       3.115   2.246  21.495  0.00  0.00    +0.000 N 
ATOM      4  C   UNL     1       1.806   2.815  21.762  0.00  0.00    +0.000 C 
ATOM      5  C   UNL     1       0.943   3.007  20.510  0.00  0.00    +0.000 C 
ATOM      6  N   UNL     1       1.704   3.569  19.397  0.00  0.00    +0.000 NA
ATOM      7  C   UNL     1       1.587   4.998  19.160  0.00  0.00    +0.000 C 
ATOM      8  C   UNL     1       2.789   5.950  18.964  0.00  0.00    +0.000 C 
ATOM      9  N   UNL     1       3.712   5.663  17.869  0.00  0.00    +0.000 N 
ATOM     10  C   UNL     1       4.246   6.760  17.179  0.00  0.00    +0.000 C 
ATOM     11  O   UNL     1       4.008   7.929  17.492  0.00  0.00    +0.000 OA
ATOM     12  C   UNL     1       4.488   4.438  17.983  0.00  0.00    +0.000 C 
ATOM     13  C   UNL     1       3.675   3.171  17.836  0.00  0.00    +0.000 C 
ATOM     14  C   UNL     1       2.879   2.764  19.068  0.00  0.00    +0.000 C 
ATOM     15  H   UNL     1       3.733   2.055  22.266  0.00  0.00    +0.000 HD
ENDROOT
BRANCH  10  16
ATOM     16  C   UNL     1       5.070   6.472  15.907  0.00  0.00    +0.000 C 
BRANCH  16  17
ATOM     17  O   UNL     1       6.476   6.486  16.138  0.00  0.00    +0.000 OA
BRANCH  17  18
ATOM     18  C   UNL     1       7.033   5.179  15.984  0.00  0.00    +0.000 C 
BRANCH  18  19
ATOM     19  C   UNL     1       6.993   4.786  14.531  0.00  0.00    +0.000 A 
ATOM     20  C   UNL     1       6.140   3.761  14.099  0.00  0.00    +0.000 A 
ATOM     21  C   UNL     1       6.098   3.400  12.751  0.00  0.00    +0.000 A 
ATOM     22  C   UNL     1       6.903   4.061  11.826  0.00  0.00    +0.000 A 
ATOM     23  C   UNL     1       7.745   5.091  12.246  0.00  0.00    +0.000 A 
ATOM     24  C   UNL     1       7.788   5.453  13.591  0.00  0.00    +0.000 A 
ENDBRANCH  18  19
ENDBRANCH  17  18
ENDBRANCH  16  17
ENDBRANCH  10  16
TORSDOF 4
ENDMDL
MODEL 2
REMARK VINA RESULT:      -7.8      1.734      2.336
REMARK  Name = 
REMARK  4 active torsions:
REMARK  status: ('A' for Active; 'I' for Inactive)
REMARK    1  A    between atoms: C_10  and  C_12
REMARK    2  A    between atoms: C_12  and  O_13
REMARK    3  A    between atoms: O_13  and  C_14
REMARK    4  A    between atoms: C_14  and  C_15
REMARK                            x       y       z     vdW  Elec       q    Type
REMARK                         _______ _______ _______ _____ _____    ______ ____
ROOT
ATOM      1  O   UNL     1       2.706   1.394  18.279  0.00  0.00    +0.000 OA
ATOM      2  C   UNL     1       2.242   2.421  18.775  0.00  0.00    +0.000 C 
ATOM      3  N   UNL     1       1.373   2.314  19.845  0.00  0.00    +0.000 N 
ATOM      4  C   UNL     1       1.152   3.428  20.749  0.00  0.00    +0.000 C 
ATOM      5  C   UNL     1       1.296   4.805  20.088  0.00  0.00    +0.000 C 
ATOM      6  N   UNL     1       2.460   4.874  19.208  0.00  0.00    +0.000 NA
ATOM      7  C   UNL     1       3.664   5.492  19.739  0.00  0.00    +0.000 C 
ATOM      8  C   UNL     1       5.074   4.863  19.658  0.00  0.00    +0.000 C 
ATOM      9  N   UNL     1       5.603   4.549  18.333  0.00  0.00    +0.000 N 
ATOM     10  C   UNL     1       6.975   4.753  18.128  0.00  0.00    +0.000 C 
ATOM     11  O   UNL     1       7.737   5.130  19.023  0.00  0.00    +0.000 OA
ATOM     12  C   UNL     1       4.914   3.503  17.594  0.00  0.00    +0.000 C 
ATOM     13  C   UNL     1       3.529   3.888  17.120  0.00  0.00    +0.000 C 
ATOM     14  C   UNL     1       2.441   3.833  18.182  0.00  0.00    +0.000 C 
ATOM     15  H   UNL     1       1.264   1.375  20.190  0.00  0.00    +0.000 HD
ENDROOT
BRANCH  10  16
ATOM     16  C   UNL     1       7.512   4.606  16.690  0.00  0.00    +0.000 C 
BRANCH  16  17
ATOM     17  O   UNL     1       7.372   5.795  15.918  0.00  0.00    +0.000 OA
BRANCH  17  18
ATOM     18  C   UNL     1       6.140   5.794  15.194  0.00  0.00    +0.000 C 
BRANCH  18  19
ATOM     19  C   UNL     1       6.279   4.926  13.972  0.00  0.00    +0.000 A 
ATOM     20  C   UNL     1       7.383   5.075  13.120  0.00  0.00    +0.000 A 
ATOM     21  C   UNL     1       7.516   4.268  11.989  0.00  0.00    +0.000 A 
ATOM     22  C   UNL     1       6.551   3.305  11.703  0.00  0.00    +0.000 A 
ATOM     23  C   UNL     1       5.456   3.141  12.552  0.00  0.00    +0.000 A 
ATOM     24  C   UNL     1       5.322   3.946  13.681  0.00  0.00    +0.000 A 
ENDBRANCH  18  19
ENDBRANCH  17  18
ENDBRANCH  16  17
ENDBRANCH  10  16
TORSDOF 4
ENDMDL
MODEL 3
REMARK VINA RESULT:      -7.7      1.823      2.582
REMARK  Name = 
REMARK  4 active torsions:
REMARK  status: ('A' for Active; 'I' for Inactive)
REMARK    1  A    between atoms: C_10  and  C_12
REMARK    2  A    between atoms: C_12  and  O_13
REMARK    3  A    between atoms: O_13  and  C_14
REMARK    4  A    between atoms: C_14  and  C_15
REMARK                            x       y       z     vdW  Elec       q    Type
REMARK                         _______ _______ _______ _____ _____    ______ ____
ROOT
ATOM      1  O   UNL     1       2.803   1.470  18.790  0.00  0.00    +0.000 OA
ATOM      2  C   UNL     1       2.499   2.580  19.229  0.00  0.00    +0.000 C 
ATOM      3  N   UNL     1       1.976   2.676  20.505  0.00  0.00    +0.000 N 
ATOM      4  C   UNL     1       2.024   3.922  21.247  0.00  0.00    +0.000 C 
ATOM      5  C   UNL     1       1.968   5.175  20.364  0.00  0.00    +0.000 C 
ATOM      6  N   UNL     1       2.827   5.059  19.189  0.00  0.00    +0.000 NA
ATOM      7  C   UNL     1       4.132   5.698  19.248  0.00  0.00    +0.000 C 
ATOM      8  C   UNL     1       5.460   5.003  18.869  0.00  0.00    +0.000 C 
ATOM      9  N   UNL     1       5.584   4.469  17.515  0.00  0.00    +0.000 N 
ATOM     10  C   UNL     1       6.837   4.579  16.897  0.00  0.00    +0.000 C 
ATOM     11  O   UNL     1       7.825   5.054  17.464  0.00  0.00    +0.000 OA
ATOM     12  C   UNL     1       4.713   3.354  17.178  0.00  0.00    +0.000 C 
ATOM     13  C   UNL     1       3.249   3.722  17.065  0.00  0.00    +0.000 C 
ATOM     14  C   UNL     1       2.515   3.876  18.389  0.00  0.00    +0.000 C 
ATOM     15  H   UNL     1       1.974   1.805  21.011  0.00  0.00    +0.000 HD
ENDROOT
BRANCH  10  16
ATOM     16  C   UNL     1       6.936   4.192  15.407  0.00  0.00    +0.000 C 
BRANCH  16  17
ATOM     17  O   UNL     1       6.612   5.266  14.529  0.00  0.00    +0.000 OA
BRANCH  17  18
ATOM     18  C   UNL     1       7.269   5.112  13.268  0.00  0.00    +0.000 C 
BRANCH  18  19
ATOM     19  C   UNL     1       6.638   3.973  12.512  0.00  0.00    +0.000 A 
ATOM     20  C   UNL     1       7.439   2.994  11.909  0.00  0.00    +0.000 A 
ATOM     21  C   UNL     1       6.855   1.935  11.212  0.00  0.00    +0.000 A 
ATOM     22  C   UNL     1       5.468   1.843  11.117  0.00  0.00    +0.000 A 
ATOM     23  C   UNL     1       4.663   2.806  11.726  0.00  0.00    +0.000 A 
ATOM     24  C   UNL     1       5.244   3.864  12.421  0.00  0.00    +0.000 A 
ENDBRANCH  18  19
ENDBRANCH  17  18
ENDBRANCH  16  17
ENDBRANCH  10  16
TORSDOF 4
ENDMDL
MODEL 4
REMARK VINA RESULT:      -7.6      1.329      2.029
REMARK  Name = 
REMARK  4 active torsions:
REMARK  status: ('A' for Active; 'I' for Inactive)
REMARK    1  A    between atoms: C_10  and  C_12
REMARK    2  A    between atoms: C_12  and  O_13
REMARK    3  A    between atoms: O_13  and  C_14
REMARK    4  A    between atoms: C_14  and  C_15
REMARK                            x       y       z     vdW  Elec       q    Type
REMARK                         _______ _______ _______ _____ _____    ______ ____
ROOT
ATOM      1  O   UNL     1       4.675   2.030  20.081  0.00  0.00    +0.000 OA
ATOM      2  C   UNL     1       3.639   2.683  19.952  0.00  0.00    +0.000 C 
ATOM      3  N   UNL     1       2.853   2.919  21.065  0.00  0.00    +0.000 N 
ATOM      4  C   UNL     1       1.906   4.018  21.099  0.00  0.00    +0.000 C 
ATOM      5  C   UNL     1       1.318   4.374  19.728  0.00  0.00    +0.000 C 
ATOM      6  N   UNL     1       2.335   4.396  18.680  0.00  0.00    +0.000 NA
ATOM      7  C   UNL     1       2.871   5.691  18.296  0.00  0.00    +0.000 C 
ATOM      8  C   UNL     1       4.380   6.008  18.175  0.00  0.00    +0.000 C 
ATOM      9  N   UNL     1       5.171   5.204  17.246  0.00  0.00    +0.000 N 
ATOM     10  C   UNL     1       6.184   5.861  16.535  0.00  0.00    +0.000 C 
ATOM     11  O   UNL     1       6.454   7.054  16.701  0.00  0.00    +0.000 OA
ATOM     12  C   UNL     1       5.324   3.796  17.580  0.00  0.00    +0.000 C 
ATOM     13  C   UNL     1       4.055   2.985  17.445  0.00  0.00    +0.000 C 
ATOM     14  C   UNL     1       3.064   3.133  18.591  0.00  0.00    +0.000 C 
ATOM     15  H   UNL     1       3.262   2.598  21.928  0.00  0.00    +0.000 HD
ENDROOT
BRANCH  10  16
ATOM     16  C   UNL     1       6.900   5.073  15.419  0.00  0.00    +0.000 C 
BRANCH  16  17
ATOM     17  O   UNL     1       6.352   5.311  14.126  0.00  0.00    +0.000 OA
BRANCH  17  18
ATOM     18  C   UNL     1       7.285   4.960  13.102  0.00  0.00    +0.000 C 
BRANCH  18  19
ATOM     19  C   UNL     1       6.779   3.754  12.357  0.00  0.00    +0.000 A 
ATOM     20  C   UNL     1       5.401   3.511  12.254  0.00  0.00    +0.000 A 
ATOM     21  C   UNL     1       4.931   2.396  11.560  0.00  0.00    +0.000 A 
ATOM     22  C   UNL     1       5.831   1.517  10.960  0.00  0.00    +0.000 A 
ATOM     23  C   UNL     1       7.202   1.758  11.046  0.00  0.00    +0.000 A 
ATOM     24  C   UNL     1       7.674   2.871  11.739  0.00  0.00    +0.000 A 
ENDBRANCH  18  19
ENDBRANCH  17  18
ENDBRANCH  16  17
ENDBRANCH  10  16
TORSDOF 4
ENDMDL
MODEL 5
REMARK VINA RESULT:      -7.6      4.531      7.394
REMARK  Name = 
REMARK  4 active torsions:
REMARK  status: ('A' for Active; 'I' for Inactive)
REMARK    1  A    between atoms: C_10  and  C_12
REMARK    2  A    between atoms: C_12  and  O_13
REMARK    3  A    between atoms: O_13  and  C_14
REMARK    4  A    between atoms: C_14  and  C_15
REMARK                            x       y       z     vdW  Elec       q    Type
REMARK                         _______ _______ _______ _____ _____    ______ ____
ROOT
ATOM      1  O   UNL     1       5.599   5.093  18.468  0.00  0.00    +0.000 OA
ATOM      2  C   UNL     1       4.748   4.229  18.678  0.00  0.00    +0.000 C 
ATOM      3  N   UNL     1       5.147   3.005  19.184  0.00  0.00    +0.000 N 
ATOM      4  C   UNL     1       4.212   2.133  19.871  0.00  0.00    +0.000 C 
ATOM      5  C   UNL     1       2.767   2.256  19.374  0.00  0.00    +0.000 C 
ATOM      6  N   UNL     1       2.367   3.647  19.179  0.00  0.00    +0.000 NA
ATOM      7  C   UNL     1       1.593   4.276  20.237  0.00  0.00    +0.000 C 
ATOM      8  C   UNL     1       1.920   5.655  20.854  0.00  0.00    +0.000 C 
ATOM      9  N   UNL     1       1.966   6.807  19.957  0.00  0.00    +0.000 N 
ATOM     10  C   UNL     1       1.475   8.023  20.453  0.00  0.00    +0.000 C 
ATOM     11  O   UNL     1       1.064   8.159  21.608  0.00  0.00    +0.000 OA
ATOM     12  C   UNL     1       3.032   6.813  18.967  0.00  0.00    +0.000 C 
ATOM     13  C   UNL     1       2.873   5.775  17.878  0.00  0.00    +0.000 C 
ATOM     14  C   UNL     1       3.264   4.358  18.269  0.00  0.00    +0.000 C 
ATOM     15  H   UNL     1       6.124   2.963  19.425  0.00  0.00    +0.000 HD
ENDROOT
BRANCH  10  16
ATOM     16  C   UNL     1       1.344   9.198  19.462  0.00  0.00    +0.000 C 
BRANCH  16  17
ATOM     17  O   UNL     1       0.254  10.064  19.764  0.00  0.00    +0.000 OA
BRANCH  17  18
ATOM     18  C   UNL     1       0.036  11.000  18.706  0.00  0.00    +0.000 C 
BRANCH  18  19
ATOM     19  C   UNL     1      -1.385  10.885  18.222  0.00  0.00    +0.000 A 
ATOM     20  C   UNL     1      -1.721   9.958  17.224  0.00  0.00    +0.000 A 
ATOM     21  C   UNL     1      -3.039   9.848  16.779  0.00  0.00    +0.000 A 
ATOM     22  C   UNL     1      -4.031  10.657  17.328  0.00  0.00    +0.000 A 
ATOM     23  C   UNL     1      -3.708  11.571  18.331  0.00  0.00    +0.000 A 
ATOM     24  C   UNL     1      -2.393  11.684  18.777  0.00  0.00    +0.000 A 
ENDBRANCH  18  19
ENDBRANCH  17  18
ENDBRANCH  16  17
ENDBRANCH  10  16
TORSDOF 4
ENDMDL
MODEL 6
REMARK VINA RESULT:      -7.6      1.263      1.891
REMARK  Name = 
REMARK  4 active torsions:
REMARK  status: ('A' for Active; 'I' for Inactive)
REMARK    1  A    between atoms: C_10  and  C_12
REMARK    2  A    between atoms: C_12  and  O_13
REMARK    3  A    between atoms: O_13  and  C_14
REMARK    4  A    between atoms: C_14  and  C_15
REMARK                            x       y       z     vdW  Elec       q    Type
REMARK                         _______ _______ _______ _____ _____    ______ ____
ROOT
ATOM      1  O   UNL     1       4.764   2.107  20.372  0.00  0.00    +0.000 OA
ATOM      2  C   UNL     1       3.654   2.596  20.164  0.00  0.00    +0.000 C 
ATOM      3  N   UNL     1       2.757   2.691  21.212  0.00  0.00    +0.000 N 
ATOM      4  C   UNL     1       1.653   3.633  21.174  0.00  0.00    +0.000 C 
ATOM      5  C   UNL     1       1.125   3.918  19.763  0.00  0.00    +0.000 C 
ATOM      6  N   UNL     1       2.205   4.111  18.799  0.00  0.00    +0.000 NA
ATOM      7  C   UNL     1       2.566   5.479  18.464  0.00  0.00    +0.000 C 
ATOM      8  C   UNL     1       4.013   6.024  18.464  0.00  0.00    +0.000 C 
ATOM      9  N   UNL     1       4.987   5.365  17.598  0.00  0.00    +0.000 N 
ATOM     10  C   UNL     1       5.940   6.179  16.972  0.00  0.00    +0.000 C 
ATOM     11  O   UNL     1       6.011   7.397  17.164  0.00  0.00    +0.000 OA
ATOM     12  C   UNL     1       5.328   3.991  17.938  0.00  0.00    +0.000 C 
ATOM     13  C   UNL     1       4.212   2.998  17.699  0.00  0.00    +0.000 C 
ATOM     14  C   UNL     1       3.124   2.975  18.763  0.00  0.00    +0.000 C 
ATOM     15  H   UNL     1       3.141   2.422  22.103  0.00  0.00    +0.000 HD
ENDROOT
BRANCH  10  16
ATOM     16  C   UNL     1       6.853   5.528  15.914  0.00  0.00    +0.000 C 
BRANCH  16  17
ATOM     17  O   UNL     1       6.158   5.161  14.726  0.00  0.00    +0.000 OA
BRANCH  17  18
ATOM     18  C   UNL     1       7.068   4.727  13.713  0.00  0.00    +0.000 C 
BRANCH  18  19
ATOM     19  C   UNL     1       6.354   3.805  12.761  0.00  0.00    +0.000 A 
ATOM     20  C   UNL     1       7.062   2.808  12.075  0.00  0.00    +0.000 A 
ATOM     21  C   UNL     1       6.400   1.950  11.196  0.00  0.00    +0.000 A 
ATOM     22  C   UNL     1       5.027   2.077  10.999  0.00  0.00    +0.000 A 
ATOM     23  C   UNL     1       4.312   3.057  11.687  0.00  0.00    +0.000 A 
ATOM     24  C   UNL     1       4.971   3.915  12.565  0.00  0.00    +0.000 A 
ENDBRANCH  18  19
ENDBRANCH  17  18
ENDBRANCH  16  17
ENDBRANCH  10  16
TORSDOF 4
ENDMDL
MODEL 7
REMARK VINA RESULT:      -7.6      1.753      2.467
REMARK  Name = 
REMARK  4 active torsions:
REMARK  status: ('A' for Active; 'I' for Inactive)
REMARK    1  A    between atoms: C_10  and  C_12
REMARK    2  A    between atoms: C_12  and  O_13
REMARK    3  A    between atoms: O_13  and  C_14
REMARK    4  A    between atoms: C_14  and  C_15
REMARK                            x       y       z     vdW  Elec       q    Type
REMARK                         _______ _______ _______ _____ _____    ______ ____
ROOT
ATOM      1  O   UNL     1       2.878   1.439  18.583  0.00  0.00    +0.000 OA
ATOM      2  C   UNL     1       2.636   2.452  19.239  0.00  0.00    +0.000 C 
ATOM      3  N   UNL     1       2.345   2.325  20.585  0.00  0.00    +0.000 N 
ATOM      4  C   UNL     1       2.500   3.443  21.498  0.00  0.00    +0.000 C 
ATOM      5  C   UNL     1       2.266   4.813  20.849  0.00  0.00    +0.000 C 
ATOM      6  N   UNL     1       2.907   4.921  19.542  0.00  0.00    +0.000 NA
ATOM      7  C   UNL     1       4.190   5.601  19.479  0.00  0.00    +0.000 C 
ATOM      8  C   UNL     1       5.443   5.036  18.771  0.00  0.00    +0.000 C 
ATOM      9  N   UNL     1       5.336   4.724  17.348  0.00  0.00    +0.000 N 
ATOM     10  C   UNL     1       6.458   4.986  16.550  0.00  0.00    +0.000 C 
ATOM     11  O   UNL     1       7.522   5.412  17.009  0.00  0.00    +0.000 OA
ATOM     12  C   UNL     1       4.439   3.635  16.991  0.00  0.00    +0.000 C 
ATOM     13  C   UNL     1       2.973   3.948  17.191  0.00  0.00    +0.000 C 
ATOM     14  C   UNL     1       2.480   3.862  18.628  0.00  0.00    +0.000 C 
ATOM     15  H   UNL     1       2.448   1.388  20.938  0.00  0.00    +0.000 HD
ENDROOT
BRANCH  10  16
ATOM     16  C   UNL     1       6.300   4.839  15.023  0.00  0.00    +0.000 C 
BRANCH  16  17
ATOM     17  O   UNL     1       7.546   4.792  14.334  0.00  0.00    +0.000 OA
BRANCH  17  18
ATOM     18  C   UNL     1       7.367   5.031  12.937  0.00  0.00    +0.000 C 
BRANCH  18  19
ATOM     19  C   UNL     1       6.786   3.802  12.290  0.00  0.00    +0.000 A 
ATOM     20  C   UNL     1       5.397   3.651  12.176  0.00  0.00    +0.000 A 
ATOM     21  C   UNL     1       4.858   2.514  11.572  0.00  0.00    +0.000 A 
ATOM     22  C   UNL     1       5.700   1.523  11.074  0.00  0.00    +0.000 A 
ATOM     23  C   UNL     1       7.084   1.671  11.171  0.00  0.00    +0.000 A 
ATOM     24  C   UNL     1       7.624   2.805  11.774  0.00  0.00    +0.000 A 
ENDBRANCH  18  19
ENDBRANCH  17  18
ENDBRANCH  16  17
ENDBRANCH  10  16
TORSDOF 4
ENDMDL
MODEL 8
REMARK VINA RESULT:      -7.5      4.364      7.164
REMARK  Name = 
REMARK  4 active torsions:
REMARK  status: ('A' for Active; 'I' for Inactive)
REMARK    1  A    between atoms: C_10  and  C_12
REMARK    2  A    between atoms: C_12  and  O_13
REMARK    3  A    between atoms: O_13  and  C_14
REMARK    4  A    between atoms: C_14  and  C_15
REMARK                            x       y       z     vdW  Elec       q    Type
REMARK                         _______ _______ _______ _____ _____    ______ ____
ROOT
ATOM      1  O   UNL     1       5.915   4.675  18.898  0.00  0.00    +0.000 OA
ATOM      2  C   UNL     1       4.958   3.906  18.995  0.00  0.00    +0.000 C 
ATOM      3  N   UNL     1       5.121   2.717  19.681  0.00  0.00    +0.000 N 
ATOM      4  C   UNL     1       3.982   1.998  20.224  0.00  0.00    +0.000 C 
ATOM      5  C   UNL     1       2.691   2.178  19.416  0.00  0.00    +0.000 C 
ATOM      6  N   UNL     1       2.480   3.567  19.016  0.00  0.00    +0.000 NA
ATOM      7  C   UNL     1       1.568   4.364  19.820  0.00  0.00    +0.000 C 
ATOM      8  C   UNL     1       1.893   5.772  20.369  0.00  0.00    +0.000 C 
ATOM      9  N   UNL     1       2.238   6.814  19.405  0.00  0.00    +0.000 N 
ATOM     10  C   UNL     1       1.777   8.110  19.672  0.00  0.00    +0.000 C 
ATOM     11  O   UNL     1       1.149   8.401  20.694  0.00  0.00    +0.000 OA
ATOM     12  C   UNL     1       3.482   6.631  18.674  0.00  0.00    +0.000 C 
ATOM     13  C   UNL     1       3.452   5.497  17.672  0.00  0.00    +0.000 C 
ATOM     14  C   UNL     1       3.612   4.104  18.263  0.00  0.00    +0.000 C 
ATOM     15  H   UNL     1       6.017   2.625  20.131  0.00  0.00    +0.000 HD
ENDROOT
BRANCH  10  16
ATOM     16  C   UNL     1       1.971   9.178  18.576  0.00  0.00    +0.000 C 
BRANCH  16  17
ATOM     17  O   UNL     1       0.763   9.507  17.896  0.00  0.00    +0.000 OA
BRANCH  17  18
ATOM     18  C   UNL     1       0.126  10.634  18.501  0.00  0.00    +0.000 C 
BRANCH  18  19
ATOM     19  C   UNL     1      -1.317  10.681  18.072  0.00  0.00    +0.000 A 
ATOM     20  C   UNL     1      -2.198  11.606  18.651  0.00  0.00    +0.000 A 
ATOM     21  C   UNL     1      -3.533  11.654  18.250  0.00  0.00    +0.000 A 
ATOM     22  C   UNL     1      -3.998  10.785  17.266  0.00  0.00    +0.000 A 
ATOM     23  C   UNL     1      -3.126   9.871  16.675  0.00  0.00    +0.000 A 
ATOM     24  C   UNL     1      -1.792   9.821  17.074  0.00  0.00    +0.000 A 
ENDBRANCH  18  19
ENDBRANCH  17  18
ENDBRANCH  16  17
ENDBRANCH  10  16
TORSDOF 4
ENDMDL
MODEL 9
REMARK VINA RESULT:      -7.5      2.242      6.577
REMARK  Name = 
REMARK  4 active torsions:
REMARK  status: ('A' for Active; 'I' for Inactive)
REMARK    1  A    between atoms: C_10  and  C_12
REMARK    2  A    between atoms: C_12  and  O_13
REMARK    3  A    between atoms: O_13  and  C_14
REMARK    4  A    between atoms: C_14  and  C_15
REMARK                            x       y       z     vdW  Elec       q    Type
REMARK                         _______ _______ _______ _____ _____    ______ ____
ROOT
ATOM      1  O   UNL     1       7.917   4.371  18.476  0.00  0.00    +0.000 OA
ATOM      2  C   UNL     1       7.240   4.734  17.514  0.00  0.00    +0.000 C 
ATOM      3  N   UNL     1       7.793   4.682  16.248  0.00  0.00    +0.000 N 
ATOM      4  C   UNL     1       6.956   4.648  15.062  0.00  0.00    +0.000 C 
ATOM      5  C   UNL     1       5.620   5.384  15.222  0.00  0.00    +0.000 C 
ATOM      6  N   UNL     1       4.981   5.095  16.503  0.00  0.00    +0.000 NA
ATOM      7  C   UNL     1       3.927   4.094  16.514  0.00  0.00    +0.000 C 
ATOM      8  C   UNL     1       3.855   2.917  17.514  0.00  0.00    +0.000 C 
ATOM      9  N   UNL     1       3.812   3.237  18.939  0.00  0.00    +0.000 N 
ATOM     10  C   UNL     1       3.005   2.430  19.752  0.00  0.00    +0.000 C 
ATOM     11  O   UNL     1       2.386   1.452  19.321  0.00  0.00    +0.000 OA
ATOM     12  C   UNL     1       5.005   3.855  19.497  0.00  0.00    +0.000 C 
ATOM     13  C   UNL     1       5.248   5.272  19.027  0.00  0.00    +0.000 C 
ATOM     14  C   UNL     1       5.852   5.400  17.637  0.00  0.00    +0.000 C 
ATOM     15  H   UNL     1       8.703   4.252  16.217  0.00  0.00    +0.000 HD
ENDROOT
BRANCH  10  16
ATOM     16  C   UNL     1       2.802   2.867  21.216  0.00  0.00    +0.000 C 
BRANCH  16  17
ATOM     17  O   UNL     1       1.695   3.746  21.389  0.00  0.00    +0.000 OA
BRANCH  17  18
ATOM     18  C   UNL     1       1.111   4.087  20.130  0.00  0.00    +0.000 C 
BRANCH  18  19
ATOM     19  C   UNL     1       1.467   5.508  19.781  0.00  0.00    +0.000 A 
ATOM     20  C   UNL     1       1.471   6.500  20.772  0.00  0.00    +0.000 A 
ATOM     21  C   UNL     1       1.806   7.816  20.451  0.00  0.00    +0.000 A 
ATOM     22  C   UNL     1       2.143   8.150  19.142  0.00  0.00    +0.000 A 
ATOM     23  C   UNL     1       2.154   7.167  18.152  0.00  0.00    +0.000 A 
ATOM     24  C   UNL     1       1.819   5.853  18.471  0.00  0.00    +0.000 A 
ENDBRANCH  18  19
ENDBRANCH  17  18
ENDBRANCH  16  17
ENDBRANCH  10  16
TORSDOF 4
ENDMDL
