MODEL 1
REMARK VINA RESULT:      -8.2      0.000      0.000
REMARK  Name = 
REMARK  7 active torsions:
REMARK  status: ('A' for Active; 'I' for Inactive)
REMARK    1  A    between atoms: C_1  and  N_2
REMARK    2  A    between atoms: C_5  and  O_6
REMARK    3  A    between atoms: C_5  and  C_7
REMARK    4  A    between atoms: C_8  and  C_9
REMARK    5  A    between atoms: C_13  and  N_14
REMARK    6  A    between atoms: C_16  and  C_17
REMARK    7  A    between atoms: C_17  and  O_19
REMARK                            x       y       z     vdW  Elec       q    Type
REMARK                         _______ _______ _______ _____ _____    ______ ____
ROOT
ATOM      1  C   UNL     1       2.366   7.836  18.942  0.00  0.00    +0.000 A 
ATOM      2  C   UNL     1       2.178   7.138  20.128  0.00  0.00    +0.000 A 
ATOM      3  C   UNL     1       1.246   7.595  21.080  0.00  0.00    +0.000 A 
ATOM      4  C   UNL     1       0.457   8.724  20.827  0.00  0.00    +0.000 A 
ATOM      5  C   UNL     1       0.620   9.403  19.625  0.00  0.00    +0.000 A 
ATOM      6  C   UNL     1       1.617   8.979  18.710  0.00  0.00    +0.000 A 
ENDROOT
BRANCH   5   7
ATOM      7  N   UNL     1      -0.149  10.532  19.262  0.00  0.00    +0.000 N 
ATOM      8  N   UNL     1       0.108  11.692  19.947  0.00  0.00    +0.000 NA
ATOM      9  C   UNL     1      -0.700  12.560  19.314  0.00  0.00    +0.000 A 
ATOM     10  C   UNL     1      -1.830  11.837  18.883  0.00  0.00    +0.000 A 
ATOM     11  C   UNL     1      -3.206  12.001  18.695  0.00  0.00    +0.000 A 
ATOM     12  C   UNL     1      -3.824  11.191  17.739  0.00  0.00    +0.000 A 
ATOM     13  C   UNL     1      -3.052  10.367  16.916  0.00  0.00    +0.000 A 
ATOM     14  C   UNL     1      -1.717  10.071  17.233  0.00  0.00    +0.000 A 
ATOM     15  C   UNL     1      -1.197  10.689  18.376  0.00  0.00    +0.000 A 
BRANCH   9  16
ATOM     16  C   UNL     1       0.001  13.675  18.650  0.00  0.00    +0.000 C 
ATOM     17  O   UNL     1       1.181  13.706  18.354  0.00  0.00    +0.000 OA
BRANCH  16  18
ATOM     18  O   UNL     1      -0.798  14.792  18.596  0.00  0.00    +0.000 OA
ATOM     19  H   UNL     1      -1.047  15.003  19.527  0.00  0.00    +0.000 HD
ENDBRANCH  16  18
ENDBRANCH   9  16
ENDBRANCH   5   7
BRANCH   1  21
ATOM     20  C   UNL     1       4.004   6.896  17.114  0.00  0.00    +0.000 C 
ATOM     21  C   UNL     1       3.238   7.362  17.898  0.00  0.00    +0.000 C 
BRANCH  20  26
ATOM     22  C   UNL     1       7.996   4.552  17.878  0.00  0.00    +0.000 C 
ATOM     23  N   UNL     1       6.775   4.975  17.237  0.00  0.00    +0.000 N 
ATOM     24  C   UNL     1       5.636   4.116  17.062  0.00  0.00    +0.000 C 
ATOM     25  C   UNL     1       4.834   4.827  15.989  0.00  0.00    +0.000 C 
ATOM     26  C   UNL     1       5.073   6.317  16.263  0.00  0.00    +0.000 C 
ATOM     27  C   UNL     1       6.469   6.297  16.942  0.00  0.00    +0.000 C 
ATOM     28  O   UNL     1       7.210   7.259  17.107  0.00  0.00    +0.000 OA
BRANCH  26  29
ATOM     29  O   UNL     1       5.079   7.014  15.023  0.00  0.00    +0.000 OA
ATOM     30  H   UNL     1       5.576   6.458  14.396  0.00  0.00    +0.000 HD
ENDBRANCH  26  29
ENDBRANCH  20  26
ENDBRANCH   1  21
TORSDOF 6
ENDMDL
MODEL 2
REMARK VINA RESULT:      -7.8      1.361      2.552
REMARK  Name = 
REMARK  7 active torsions:
REMARK  status: ('A' for Active; 'I' for Inactive)
REMARK    1  A    between atoms: C_1  and  N_2
REMARK    2  A    between atoms: C_5  and  O_6
REMARK    3  A    between atoms: C_5  and  C_7
REMARK    4  A    between atoms: C_8  and  C_9
REMARK    5  A    between atoms: C_13  and  N_14
REMARK    6  A    between atoms: C_16  and  C_17
REMARK    7  A    between atoms: C_17  and  O_19
REMARK                            x       y       z     vdW  Elec       q    Type
REMARK                         _______ _______ _______ _____ _____    ______ ____
ROOT
ATOM      1  C   UNL     1       2.288   8.016  18.980  0.00  0.00    +0.000 A 
ATOM      2  C   UNL     1       2.078   7.349  20.180  0.00  0.00    +0.000 A 
ATOM      3  C   UNL     1       1.145   7.842  21.113  0.00  0.00    +0.000 A 
ATOM      4  C   UNL     1       0.377   8.978  20.827  0.00  0.00    +0.000 A 
ATOM      5  C   UNL     1       0.561   9.626  19.612  0.00  0.00    +0.000 A 
ATOM      6  C   UNL     1       1.560   9.165  18.716  0.00  0.00    +0.000 A 
ENDROOT
BRANCH   5   7
ATOM      7  N   UNL     1      -0.186  10.759  19.216  0.00  0.00    +0.000 N 
ATOM      8  N   UNL     1      -0.948  10.622  18.084  0.00  0.00    +0.000 NA
ATOM      9  C   UNL     1      -1.580  11.807  18.043  0.00  0.00    +0.000 A 
ATOM     10  C   UNL     1      -0.705  12.764  18.597  0.00  0.00    +0.000 A 
ATOM     11  C   UNL     1      -0.346  14.107  18.452  0.00  0.00    +0.000 A 
ATOM     12  C   UNL     1       0.168  14.759  19.575  0.00  0.00    +0.000 A 
ATOM     13  C   UNL     1       0.175  14.115  20.815  0.00  0.00    +0.000 A 
ATOM     14  C   UNL     1      -0.006  12.727  20.913  0.00  0.00    +0.000 A 
ATOM     15  C   UNL     1      -0.247  12.045  19.715  0.00  0.00    +0.000 A 
BRANCH   9  16
ATOM     16  C   UNL     1      -3.049  11.721  18.142  0.00  0.00    +0.000 C 
ATOM     17  O   UNL     1      -3.791  11.178  17.345  0.00  0.00    +0.000 OA
BRANCH  16  18
ATOM     18  O   UNL     1      -3.520  12.530  19.148  0.00  0.00    +0.000 OA
ATOM     19  H   UNL     1      -3.844  11.930  19.862  0.00  0.00    +0.000 HD
ENDBRANCH  16  18
ENDBRANCH   9  16
ENDBRANCH   5   7
BRANCH   1  21
ATOM     20  C   UNL     1       3.922   7.005  17.188  0.00  0.00    +0.000 C 
ATOM     21  C   UNL     1       3.161   7.504  17.955  0.00  0.00    +0.000 C 
BRANCH  20  26
ATOM     22  C   UNL     1       7.896   4.659  18.043  0.00  0.00    +0.000 C 
ATOM     23  N   UNL     1       6.676   5.064  17.388  0.00  0.00    +0.000 N 
ATOM     24  C   UNL     1       5.527   4.209  17.258  0.00  0.00    +0.000 C 
ATOM     25  C   UNL     1       4.728   4.878  16.156  0.00  0.00    +0.000 C 
ATOM     26  C   UNL     1       4.982   6.377  16.361  0.00  0.00    +0.000 C 
ATOM     27  C   UNL     1       6.381   6.374  17.034  0.00  0.00    +0.000 C 
ATOM     28  O   UNL     1       7.131   7.335  17.151  0.00  0.00    +0.000 OA
BRANCH  26  29
ATOM     29  O   UNL     1       4.990   7.016  15.090  0.00  0.00    +0.000 OA
ATOM     30  H   UNL     1       5.872   6.860  14.708  0.00  0.00    +0.000 HD
ENDBRANCH  26  29
ENDBRANCH  20  26
ENDBRANCH   1  21
TORSDOF 6
ENDMDL
MODEL 3
REMARK VINA RESULT:      -7.8      2.305      8.804
REMARK  Name = 
REMARK  7 active torsions:
REMARK  status: ('A' for Active; 'I' for Inactive)
REMARK    1  A    between atoms: C_1  and  N_2
REMARK    2  A    between atoms: C_5  and  O_6
REMARK    3  A    between atoms: C_5  and  C_7
REMARK    4  A    between atoms: C_8  and  C_9
REMARK    5  A    between atoms: C_13  and  N_14
REMARK    6  A    between atoms: C_16  and  C_17
REMARK    7  A    between atoms: C_17  and  O_19
REMARK                            x       y       z     vdW  Elec       q    Type
REMARK                         _______ _______ _______ _____ _____    ______ ____
ROOT
ATOM      1  C   UNL     1       1.969   6.744  20.167  0.00  0.00    +0.000 A 
ATOM      2  C   UNL     1       1.463   5.632  20.828  0.00  0.00    +0.000 A 
ATOM      3  C   UNL     1       2.073   4.373  20.667  0.00  0.00    +0.000 A 
ATOM      4  C   UNL     1       3.227   4.228  19.886  0.00  0.00    +0.000 A 
ATOM      5  C   UNL     1       3.754   5.347  19.253  0.00  0.00    +0.000 A 
ATOM      6  C   UNL     1       3.085   6.593  19.358  0.00  0.00    +0.000 A 
ENDROOT
BRANCH   5   7
ATOM      7  N   UNL     1       4.931   5.312  18.471  0.00  0.00    +0.000 N 
ATOM      8  N   UNL     1       6.015   5.989  18.968  0.00  0.00    +0.000 NA
ATOM      9  C   UNL     1       6.958   5.686  18.060  0.00  0.00    +0.000 A 
ATOM     10  C   UNL     1       6.307   5.537  16.819  0.00  0.00    +0.000 A 
ATOM     11  C   UNL     1       6.522   5.764  15.456  0.00  0.00    +0.000 A 
ATOM     12  C   UNL     1       5.822   4.960  14.554  0.00  0.00    +0.000 A 
ATOM     13  C   UNL     1       5.059   3.886  15.020  0.00  0.00    +0.000 A 
ATOM     14  C   UNL     1       4.701   3.783  16.374  0.00  0.00    +0.000 A 
ATOM     15  C   UNL     1       5.196   4.778  17.225  0.00  0.00    +0.000 A 
BRANCH   9  16
ATOM     16  C   UNL     1       8.113   4.945  18.602  0.00  0.00    +0.000 C 
ATOM     17  O   UNL     1       8.687   4.018  18.061  0.00  0.00    +0.000 OA
BRANCH  16  18
ATOM     18  O   UNL     1       8.339   5.282  19.915  0.00  0.00    +0.000 OA
ATOM     19  H   UNL     1       7.631   4.842  20.443  0.00  0.00    +0.000 HD
ENDBRANCH  16  18
ENDBRANCH   9  16
ENDBRANCH   5   7
BRANCH   1  21
ATOM     20  C   UNL     1       0.900   9.112  20.560  0.00  0.00    +0.000 C 
ATOM     21  C   UNL     1       1.440   8.069  20.368  0.00  0.00    +0.000 C 
BRANCH  20  26
ATOM     22  C   UNL     1       0.947  13.413  18.682  0.00  0.00    +0.000 C 
ATOM     23  N   UNL     1       0.440  12.192  19.261  0.00  0.00    +0.000 N 
ATOM     24  C   UNL     1      -0.401  11.270  18.548  0.00  0.00    +0.000 C 
ATOM     25  C   UNL     1      -1.014  10.439  19.659  0.00  0.00    +0.000 C 
ATOM     26  C   UNL     1       0.093  10.347  20.717  0.00  0.00    +0.000 C 
ATOM     27  C   UNL     1       0.891  11.654  20.459  0.00  0.00    +0.000 C 
ATOM     28  O   UNL     1       1.706  12.167  21.215  0.00  0.00    +0.000 OA
BRANCH  26  29
ATOM     29  O   UNL     1      -0.510  10.322  22.006  0.00  0.00    +0.000 OA
ATOM     30  H   UNL     1      -0.596  11.250  22.288  0.00  0.00    +0.000 HD
ENDBRANCH  26  29
ENDBRANCH  20  26
ENDBRANCH   1  21
TORSDOF 6
ENDMDL
MODEL 4
REMARK VINA RESULT:      -7.7      2.937      9.078
REMARK  Name = 
REMARK  7 active torsions:
REMARK  status: ('A' for Active; 'I' for Inactive)
REMARK    1  A    between atoms: C_1  and  N_2
REMARK    2  A    between atoms: C_5  and  O_6
REMARK    3  A    between atoms: C_5  and  C_7
REMARK    4  A    between atoms: C_8  and  C_9
REMARK    5  A    between atoms: C_13  and  N_14
REMARK    6  A    between atoms: C_16  and  C_17
REMARK    7  A    between atoms: C_17  and  O_19
REMARK                            x       y       z     vdW  Elec       q    Type
REMARK                         _______ _______ _______ _____ _____    ______ ____
ROOT
ATOM      1  C   UNL     1       1.829   6.014  20.127  0.00  0.00    +0.000 A 
ATOM      2  C   UNL     1       1.074   4.848  20.123  0.00  0.00    +0.000 A 
ATOM      3  C   UNL     1       1.517   3.718  19.409  0.00  0.00    +0.000 A 
ATOM      4  C   UNL     1       2.746   3.729  18.739  0.00  0.00    +0.000 A 
ATOM      5  C   UNL     1       3.519   4.883  18.771  0.00  0.00    +0.000 A 
ATOM      6  C   UNL     1       3.025   6.040  19.427  0.00  0.00    +0.000 A 
ENDROOT
BRANCH   5   7
ATOM      7  N   UNL     1       4.788   4.985  18.155  0.00  0.00    +0.000 N 
ATOM      8  N   UNL     1       5.731   5.726  18.819  0.00  0.00    +0.000 NA
ATOM      9  C   UNL     1       6.809   5.548  18.037  0.00  0.00    +0.000 A 
ATOM     10  C   UNL     1       6.344   5.402  16.714  0.00  0.00    +0.000 A 
ATOM     11  C   UNL     1       6.716   5.710  15.402  0.00  0.00    +0.000 A 
ATOM     12  C   UNL     1       6.215   4.893  14.386  0.00  0.00    +0.000 A 
ATOM     13  C   UNL     1       5.498   3.738  14.706  0.00  0.00    +0.000 A 
ATOM     14  C   UNL     1       4.975   3.542  15.994  0.00  0.00    +0.000 A 
ATOM     15  C   UNL     1       5.262   4.534  16.939  0.00  0.00    +0.000 A 
BRANCH   9  16
ATOM     16  C   UNL     1       7.944   4.882  18.703  0.00  0.00    +0.000 C 
ATOM     17  O   UNL     1       8.427   5.190  19.777  0.00  0.00    +0.000 OA
BRANCH  16  18
ATOM     18  O   UNL     1       8.552   3.986  17.856  0.00  0.00    +0.000 OA
ATOM     19  H   UNL     1       9.230   3.509  18.392  0.00  0.00    +0.000 HD
ENDBRANCH  16  18
ENDBRANCH   9  16
ENDBRANCH   5   7
BRANCH   1  21
ATOM     20  C   UNL     1       1.267   8.166  21.526  0.00  0.00    +0.000 C 
ATOM     21  C   UNL     1       1.468   7.164  20.914  0.00  0.00    +0.000 C 
BRANCH  20  26
ATOM     22  C   UNL     1      -1.346  12.062  21.397  0.00  0.00    +0.000 C 
ATOM     23  N   UNL     1      -0.569  10.968  21.928  0.00  0.00    +0.000 N 
ATOM     24  C   UNL     1      -1.123   9.939  22.766  0.00  0.00    +0.000 C 
ATOM     25  C   UNL     1       0.106   9.325  23.408  0.00  0.00    +0.000 C 
ATOM     26  C   UNL     1       1.185   9.415  22.323  0.00  0.00    +0.000 C 
ATOM     27  C   UNL     1       0.714  10.649  21.506  0.00  0.00    +0.000 C 
ATOM     28  O   UNL     1       1.383  11.283  20.700  0.00  0.00    +0.000 OA
BRANCH  26  29
ATOM     29  O   UNL     1       2.445   9.625  22.949  0.00  0.00    +0.000 OA
ATOM     30  H   UNL     1       2.466   9.044  23.730  0.00  0.00    +0.000 HD
ENDBRANCH  26  29
ENDBRANCH  20  26
ENDBRANCH   1  21
TORSDOF 6
ENDMDL
MODEL 5
REMARK VINA RESULT:      -7.7      2.138      8.470
REMARK  Name = 
REMARK  7 active torsions:
REMARK  status: ('A' for Active; 'I' for Inactive)
REMARK    1  A    between atoms: C_1  and  N_2
REMARK    2  A    between atoms: C_5  and  O_6
REMARK    3  A    between atoms: C_5  and  C_7
REMARK    4  A    between atoms: C_8  and  C_9
REMARK    5  A    between atoms: C_13  and  N_14
REMARK    6  A    between atoms: C_16  and  C_17
REMARK    7  A    between atoms: C_17  and  O_19
REMARK                            x       y       z     vdW  Elec       q    Type
REMARK                         _______ _______ _______ _____ _____    ______ ____
ROOT
ATOM      1  C   UNL     1       1.778   7.167  20.293  0.00  0.00    +0.000 A 
ATOM      2  C   UNL     1       1.338   5.961  20.822  0.00  0.00    +0.000 A 
ATOM      3  C   UNL     1       1.902   4.746  20.386  0.00  0.00    +0.000 A 
ATOM      4  C   UNL     1       2.949   4.734  19.456  0.00  0.00    +0.000 A 
ATOM      5  C   UNL     1       3.414   5.943  18.952  0.00  0.00    +0.000 A 
ATOM      6  C   UNL     1       2.784   7.154  19.339  0.00  0.00    +0.000 A 
ENDROOT
BRANCH   5   7
ATOM      7  N   UNL     1       4.485   6.040  18.035  0.00  0.00    +0.000 N 
ATOM      8  N   UNL     1       5.082   7.269  17.921  0.00  0.00    +0.000 NA
ATOM      9  C   UNL     1       6.085   7.001  17.068  0.00  0.00    +0.000 A 
ATOM     10  C   UNL     1       5.636   5.980  16.206  0.00  0.00    +0.000 A 
ATOM     11  C   UNL     1       5.762   5.558  14.878  0.00  0.00    +0.000 A 
ATOM     12  C   UNL     1       5.577   4.199  14.618  0.00  0.00    +0.000 A 
ATOM     13  C   UNL     1       5.419   3.299  15.674  0.00  0.00    +0.000 A 
ATOM     14  C   UNL     1       5.108   3.746  16.968  0.00  0.00    +0.000 A 
ATOM     15  C   UNL     1       5.022   5.132  17.144  0.00  0.00    +0.000 A 
BRANCH   9  16
ATOM     16  C   UNL     1       7.434   7.226  17.620  0.00  0.00    +0.000 C 
ATOM     17  O   UNL     1       7.972   6.568  18.492  0.00  0.00    +0.000 OA
BRANCH  16  18
ATOM     18  O   UNL     1       7.948   8.424  17.184  0.00  0.00    +0.000 OA
ATOM     19  H   UNL     1       8.077   8.335  16.209  0.00  0.00    +0.000 HD
ENDBRANCH  16  18
ENDBRANCH   9  16
ENDBRANCH   5   7
BRANCH   1  21
ATOM     20  C   UNL     1       0.823   9.485  21.083  0.00  0.00    +0.000 C 
ATOM     21  C   UNL     1       1.301   8.440  20.770  0.00  0.00    +0.000 C 
BRANCH  20  26
ATOM     22  C   UNL     1       0.770  13.579  18.790  0.00  0.00    +0.000 C 
ATOM     23  N   UNL     1       0.324  12.480  19.612  0.00  0.00    +0.000 N 
ATOM     24  C   UNL     1      -0.762  11.610  19.248  0.00  0.00    +0.000 C 
ATOM     25  C   UNL     1      -1.129  10.954  20.565  0.00  0.00    +0.000 C 
ATOM     26  C   UNL     1       0.208  10.816  21.305  0.00  0.00    +0.000 C 
ATOM     27  C   UNL     1       1.027  11.991  20.705  0.00  0.00    +0.000 C 
ATOM     28  O   UNL     1       2.060  12.463  21.163  0.00  0.00    +0.000 OA
BRANCH  26  29
ATOM     29  O   UNL     1      -0.025  10.970  22.700  0.00  0.00    +0.000 OA
ATOM     30  H   UNL     1      -0.369  11.873  22.824  0.00  0.00    +0.000 HD
ENDBRANCH  26  29
ENDBRANCH  20  26
ENDBRANCH   1  21
TORSDOF 6
ENDMDL
MODEL 6
REMARK VINA RESULT:      -7.6      1.815      2.047
REMARK  Name = 
REMARK  7 active torsions:
REMARK  status: ('A' for Active; 'I' for Inactive)
REMARK    1  A    between atoms: C_1  and  N_2
REMARK    2  A    between atoms: C_5  and  O_6
REMARK    3  A    between atoms: C_5  and  C_7
REMARK    4  A    between atoms: C_8  and  C_9
REMARK    5  A    between atoms: C_13  and  N_14
REMARK    6  A    between atoms: C_16  and  C_17
REMARK    7  A    between atoms: C_17  and  O_19
REMARK                            x       y       z     vdW  Elec       q    Type
REMARK                         _______ _______ _______ _____ _____    ______ ____
ROOT
ATOM      1  C   UNL     1       1.823   7.947  20.091  0.00  0.00    +0.000 A 
ATOM      2  C   UNL     1       1.780   7.791  21.471  0.00  0.00    +0.000 A 
ATOM      3  C   UNL     1       1.038   8.688  22.264  0.00  0.00    +0.000 A 
ATOM      4  C   UNL     1       0.291   9.716  21.676  0.00  0.00    +0.000 A 
ATOM      5  C   UNL     1       0.305   9.852  20.293  0.00  0.00    +0.000 A 
ATOM      6  C   UNL     1       1.119   8.991  19.512  0.00  0.00    +0.000 A 
ENDROOT
BRANCH   5   7
ATOM      7  N   UNL     1      -0.440  10.835  19.603  0.00  0.00    +0.000 N 
ATOM      8  N   UNL     1      -0.445  12.093  20.149  0.00  0.00    +0.000 NA
ATOM      9  C   UNL     1      -1.142  12.781  19.229  0.00  0.00    +0.000 A 
ATOM     10  C   UNL     1      -2.077  11.889  18.664  0.00  0.00    +0.000 A 
ATOM     11  C   UNL     1      -3.376  11.876  18.147  0.00  0.00    +0.000 A 
ATOM     12  C   UNL     1      -3.681  10.890  17.207  0.00  0.00    +0.000 A 
ATOM     13  C   UNL     1      -2.673  10.060  16.711  0.00  0.00    +0.000 A 
ATOM     14  C   UNL     1      -1.434   9.954  17.362  0.00  0.00    +0.000 A 
ATOM     15  C   UNL     1      -1.253  10.764  18.489  0.00  0.00    +0.000 A 
BRANCH   9  16
ATOM     16  C   UNL     1      -0.391  13.875  18.585  0.00  0.00    +0.000 C 
ATOM     17  O   UNL     1       0.710  13.786  18.076  0.00  0.00    +0.000 OA
BRANCH  16  18
ATOM     18  O   UNL     1      -0.995  15.087  18.820  0.00  0.00    +0.000 OA
ATOM     19  H   UNL     1      -1.241  15.454  17.936  0.00  0.00    +0.000 HD
ENDBRANCH  16  18
ENDBRANCH   9  16
ENDBRANCH   5   7
BRANCH   1  21
ATOM     20  C   UNL     1       3.002   6.143  18.588  0.00  0.00    +0.000 C 
ATOM     21  C   UNL     1       2.489   7.005  19.229  0.00  0.00    +0.000 C 
BRANCH  20  26
ATOM     22  C   UNL     1       4.528   1.926  19.971  0.00  0.00    +0.000 C 
ATOM     23  N   UNL     1       3.983   2.959  19.124  0.00  0.00    +0.000 N 
ATOM     24  C   UNL     1       2.636   2.940  18.621  0.00  0.00    +0.000 C 
ATOM     25  C   UNL     1       2.686   3.930  17.474  0.00  0.00    +0.000 C 
ATOM     26  C   UNL     1       3.685   4.997  17.939  0.00  0.00    +0.000 C 
ATOM     27  C   UNL     1       4.595   4.185  18.900  0.00  0.00    +0.000 C 
ATOM     28  O   UNL     1       5.696   4.523  19.316  0.00  0.00    +0.000 OA
BRANCH  26  29
ATOM     29  O   UNL     1       4.391   5.486  16.804  0.00  0.00    +0.000 OA
ATOM     30  H   UNL     1       3.967   5.088  16.023  0.00  0.00    +0.000 HD
ENDBRANCH  26  29
ENDBRANCH  20  26
ENDBRANCH   1  21
TORSDOF 6
ENDMDL
MODEL 7
REMARK VINA RESULT:      -7.5      1.535      2.451
REMARK  Name = 
REMARK  7 active torsions:
REMARK  status: ('A' for Active; 'I' for Inactive)
REMARK    1  A    between atoms: C_1  and  N_2
REMARK    2  A    between atoms: C_5  and  O_6
REMARK    3  A    between atoms: C_5  and  C_7
REMARK    4  A    between atoms: C_8  and  C_9
REMARK    5  A    between atoms: C_13  and  N_14
REMARK    6  A    between atoms: C_16  and  C_17
REMARK    7  A    between atoms: C_17  and  O_19
REMARK                            x       y       z     vdW  Elec       q    Type
REMARK                         _______ _______ _______ _____ _____    ______ ____
ROOT
ATOM      1  C   UNL     1       2.387   7.788  19.058  0.00  0.00    +0.000 A 
ATOM      2  C   UNL     1       2.168   7.012  20.189  0.00  0.00    +0.000 A 
ATOM      3  C   UNL     1       1.224   7.413  21.153  0.00  0.00    +0.000 A 
ATOM      4  C   UNL     1       0.452   8.567  20.966  0.00  0.00    +0.000 A 
ATOM      5  C   UNL     1       0.645   9.325  19.817  0.00  0.00    +0.000 A 
ATOM      6  C   UNL     1       1.655   8.953  18.892  0.00  0.00    +0.000 A 
ENDROOT
BRANCH   5   7
ATOM      7  N   UNL     1      -0.104  10.486  19.520  0.00  0.00    +0.000 N 
ATOM      8  N   UNL     1      -0.274  10.779  18.191  0.00  0.00    +0.000 NA
ATOM      9  C   UNL     1      -1.081  11.852  18.255  0.00  0.00    +0.000 A 
ATOM     10  C   UNL     1      -0.756  12.545  19.438  0.00  0.00    +0.000 A 
ATOM     11  C   UNL     1      -0.683  13.850  19.936  0.00  0.00    +0.000 A 
ATOM     12  C   UNL     1      -0.843  14.021  21.312  0.00  0.00    +0.000 A 
ATOM     13  C   UNL     1      -1.208  12.936  22.115  0.00  0.00    +0.000 A 
ATOM     14  C   UNL     1      -1.095  11.617  21.647  0.00  0.00    +0.000 A 
ATOM     15  C   UNL     1      -0.655  11.461  20.327  0.00  0.00    +0.000 A 
BRANCH   9  16
ATOM     16  C   UNL     1      -2.397  11.666  17.615  0.00  0.00    +0.000 C 
ATOM     17  O   UNL     1      -3.429  11.352  18.177  0.00  0.00    +0.000 OA
BRANCH  16  18
ATOM     18  O   UNL     1      -2.280  11.676  16.245  0.00  0.00    +0.000 OA
ATOM     19  H   UNL     1      -1.321  11.558  16.045  0.00  0.00    +0.000 HD
ENDBRANCH  16  18
ENDBRANCH   9  16
ENDBRANCH   5   7
BRANCH   1  21
ATOM     20  C   UNL     1       4.019   6.935  17.183  0.00  0.00    +0.000 C 
ATOM     21  C   UNL     1       3.272   7.376  17.999  0.00  0.00    +0.000 C 
BRANCH  20  26
ATOM     22  C   UNL     1       7.984   4.505  17.812  0.00  0.00    +0.000 C 
ATOM     23  N   UNL     1       6.749   4.952  17.215  0.00  0.00    +0.000 N 
ATOM     24  C   UNL     1       5.584   4.118  17.090  0.00  0.00    +0.000 C 
ATOM     25  C   UNL     1       4.759   4.840  16.043  0.00  0.00    +0.000 C 
ATOM     26  C   UNL     1       5.041   6.326  16.297  0.00  0.00    +0.000 C 
ATOM     27  C   UNL     1       6.462   6.279  16.922  0.00  0.00    +0.000 C 
ATOM     28  O   UNL     1       7.230   7.224  17.051  0.00  0.00    +0.000 OA
BRANCH  26  29
ATOM     29  O   UNL     1       5.016   7.014  15.052  0.00  0.00    +0.000 OA
ATOM     30  H   UNL     1       4.960   7.964  15.262  0.00  0.00    +0.000 HD
ENDBRANCH  26  29
ENDBRANCH  20  26
ENDBRANCH   1  21
TORSDOF 6
ENDMDL
MODEL 8
REMARK VINA RESULT:      -7.5      2.885      8.693
REMARK  Name = 
REMARK  7 active torsions:
REMARK  status: ('A' for Active; 'I' for Inactive)
REMARK    1  A    between atoms: C_1  and  N_2
REMARK    2  A    between atoms: C_5  and  O_6
REMARK    3  A    between atoms: C_5  and  C_7
REMARK    4  A    between atoms: C_8  and  C_9
REMARK    5  A    between atoms: C_13  and  N_14
REMARK    6  A    between atoms: C_16  and  C_17
REMARK    7  A    between atoms: C_17  and  O_19
REMARK                            x       y       z     vdW  Elec       q    Type
REMARK                         _______ _______ _______ _____ _____    ______ ____
ROOT
ATOM      1  C   UNL     1       1.769   6.247  20.077  0.00  0.00    +0.000 A 
ATOM      2  C   UNL     1       1.166   4.999  20.164  0.00  0.00    +0.000 A 
ATOM      3  C   UNL     1       1.608   3.940  19.347  0.00  0.00    +0.000 A 
ATOM      4  C   UNL     1       2.692   4.108  18.476  0.00  0.00    +0.000 A 
ATOM      5  C   UNL     1       3.318   5.347  18.415  0.00  0.00    +0.000 A 
ATOM      6  C   UNL     1       2.814   6.427  19.184  0.00  0.00    +0.000 A 
ENDROOT
BRANCH   5   7
ATOM      7  N   UNL     1       4.439   5.609  17.594  0.00  0.00    +0.000 N 
ATOM      8  N   UNL     1       4.929   6.889  17.622  0.00  0.00    +0.000 NA
ATOM      9  C   UNL     1       6.010   6.778  16.831  0.00  0.00    +0.000 A 
ATOM     10  C   UNL     1       5.716   5.799  15.861  0.00  0.00    +0.000 A 
ATOM     11  C   UNL     1       5.973   5.501  14.519  0.00  0.00    +0.000 A 
ATOM     12  C   UNL     1       5.929   4.158  14.141  0.00  0.00    +0.000 A 
ATOM     13  C   UNL     1       5.778   3.163  15.110  0.00  0.00    +0.000 A 
ATOM     14  C   UNL     1       5.338   3.472  16.406  0.00  0.00    +0.000 A 
ATOM     15  C   UNL     1       5.117   4.827  16.680  0.00  0.00    +0.000 A 
BRANCH   9  16
ATOM     16  C   UNL     1       7.291   7.069  17.502  0.00  0.00    +0.000 C 
ATOM     17  O   UNL     1       7.845   6.366  18.327  0.00  0.00    +0.000 OA
BRANCH  16  18
ATOM     18  O   UNL     1       7.695   8.358  17.248  0.00  0.00    +0.000 OA
ATOM     19  H   UNL     1       8.576   8.293  16.806  0.00  0.00    +0.000 HD
ENDBRANCH  16  18
ENDBRANCH   9  16
ENDBRANCH   5   7
BRANCH   1  21
ATOM     20  C   UNL     1       1.222   8.293  21.634  0.00  0.00    +0.000 C 
ATOM     21  C   UNL     1       1.419   7.336  20.953  0.00  0.00    +0.000 C 
BRANCH  20  26
ATOM     22  C   UNL     1      -1.237  12.290  21.629  0.00  0.00    +0.000 C 
ATOM     23  N   UNL     1      -0.529  11.135  22.126  0.00  0.00    +0.000 N 
ATOM     24  C   UNL     1      -1.162  10.079  22.869  0.00  0.00    +0.000 C 
ATOM     25  C   UNL     1       0.010   9.378  23.528  0.00  0.00    +0.000 C 
ATOM     26  C   UNL     1       1.145   9.492  22.504  0.00  0.00    +0.000 C 
ATOM     27  C   UNL     1       0.761  10.792  21.746  0.00  0.00    +0.000 C 
ATOM     28  O   UNL     1       1.493  11.448  21.015  0.00  0.00    +0.000 OA
BRANCH  26  29
ATOM     29  O   UNL     1       2.379   9.612  23.202  0.00  0.00    +0.000 OA
ATOM     30  H   UNL     1       2.909  10.268  22.715  0.00  0.00    +0.000 HD
ENDBRANCH  26  29
ENDBRANCH  20  26
ENDBRANCH   1  21
TORSDOF 6
ENDMDL
MODEL 9
REMARK VINA RESULT:      -7.4      2.134      8.934
REMARK  Name = 
REMARK  7 active torsions:
REMARK  status: ('A' for Active; 'I' for Inactive)
REMARK    1  A    between atoms: C_1  and  N_2
REMARK    2  A    between atoms: C_5  and  O_6
REMARK    3  A    between atoms: C_5  and  C_7
REMARK    4  A    between atoms: C_8  and  C_9
REMARK    5  A    between atoms: C_13  and  N_14
REMARK    6  A    between atoms: C_16  and  C_17
REMARK    7  A    between atoms: C_17  and  O_19
REMARK                            x       y       z     vdW  Elec       q    Type
REMARK                         _______ _______ _______ _____ _____    ______ ____
ROOT
ATOM      1  C   UNL     1       1.979   7.256  19.794  0.00  0.00    +0.000 A 
ATOM      2  C   UNL     1       1.465   6.289  20.649  0.00  0.00    +0.000 A 
ATOM      3  C   UNL     1       2.054   5.012  20.712  0.00  0.00    +0.000 A 
ATOM      4  C   UNL     1       3.196   4.710  19.959  0.00  0.00    +0.000 A 
ATOM      5  C   UNL     1       3.732   5.687  19.130  0.00  0.00    +0.000 A 
ATOM      6  C   UNL     1       3.083   6.944  19.016  0.00  0.00    +0.000 A 
ENDROOT
BRANCH   5   7
ATOM      7  N   UNL     1       4.899   5.493  18.356  0.00  0.00    +0.000 N 
ATOM      8  N   UNL     1       6.022   6.166  18.765  0.00  0.00    +0.000 NA
ATOM      9  C   UNL     1       6.940   5.704  17.900  0.00  0.00    +0.000 A 
ATOM     10  C   UNL     1       6.271   5.439  16.687  0.00  0.00    +0.000 A 
ATOM     11  C   UNL     1       6.487   5.486  15.306  0.00  0.00    +0.000 A 
ATOM     12  C   UNL     1       5.737   4.617  14.511  0.00  0.00    +0.000 A 
ATOM     13  C   UNL     1       4.921   3.651  15.106  0.00  0.00    +0.000 A 
ATOM     14  C   UNL     1       4.569   3.734  16.463  0.00  0.00    +0.000 A 
ATOM     15  C   UNL     1       5.124   4.797  17.185  0.00  0.00    +0.000 A 
BRANCH   9  16
ATOM     16  C   UNL     1       8.057   4.972  18.526  0.00  0.00    +0.000 C 
ATOM     17  O   UNL     1       8.656   4.029  18.044  0.00  0.00    +0.000 OA
BRANCH  16  18
ATOM     18  O   UNL     1       8.210   5.344  19.840  0.00  0.00    +0.000 OA
ATOM     19  H   UNL     1       8.963   4.813  20.196  0.00  0.00    +0.000 HD
ENDBRANCH  16  18
ENDBRANCH   9  16
ENDBRANCH   5   7
BRANCH   1  21
ATOM     20  C   UNL     1       1.054   9.709  19.613  0.00  0.00    +0.000 C 
ATOM     21  C   UNL     1       1.472   8.603  19.759  0.00  0.00    +0.000 C 
BRANCH  20  26
ATOM     22  C   UNL     1      -2.895  12.212  20.009  0.00  0.00    +0.000 C 
ATOM     23  N   UNL     1      -1.487  11.897  19.983  0.00  0.00    +0.000 N 
ATOM     24  C   UNL     1      -0.634  11.995  21.137  0.00  0.00    +0.000 C 
ATOM     25  C   UNL     1       0.756  12.012  20.531  0.00  0.00    +0.000 C 
ATOM     26  C   UNL     1       0.645  11.101  19.303  0.00  0.00    +0.000 C 
ATOM     27  C   UNL     1      -0.856  11.244  18.933  0.00  0.00    +0.000 C 
ATOM     28  O   UNL     1      -1.376  10.923  17.872  0.00  0.00    +0.000 OA
BRANCH  26  29
ATOM     29  O   UNL     1       1.507  11.600  18.286  0.00  0.00    +0.000 OA
ATOM     30  H   UNL     1       1.635  10.872  17.651  0.00  0.00    +0.000 HD
ENDBRANCH  26  29
ENDBRANCH  20  26
ENDBRANCH   1  21
TORSDOF 6
ENDMDL
