MODEL 1
REMARK VINA RESULT:      -8.5      0.000      0.000
REMARK  Name = 
REMARK  8 active torsions:
REMARK  status: ('A' for Active; 'I' for Inactive)
REMARK    1  A    between atoms: C_1  and  C_2
REMARK    2  A    between atoms: C_4  and  C_5
REMARK    3  A    between atoms: C_6  and  C_7
REMARK    4  A    between atoms: C_12  and  O_13
REMARK    5  A    between atoms: O_13  and  C_14
REMARK    6  A    between atoms: C_14  and  C_15
REMARK    7  A    between atoms: C_22  and  C_23
REMARK    8  A    between atoms: C_24  and  O_25
REMARK                            x       y       z     vdW  Elec       q    Type
REMARK                         _______ _______ _______ _____ _____    ______ ____
ROOT
ATOM      1  C   UNL     1       4.835   5.937  17.480  0.00  0.00    +0.000 A 
ATOM      2  C   UNL     1       6.104   6.552  17.513  0.00  0.00    +0.000 A 
ATOM      3  C   UNL     1       7.209   5.990  16.874  0.00  0.00    +0.000 A 
ATOM      4  C   UNL     1       7.061   4.827  16.138  0.00  0.00    +0.000 A 
ATOM      5  C   UNL     1       5.809   4.223  16.048  0.00  0.00    +0.000 A 
ATOM      6  C   UNL     1       4.693   4.739  16.737  0.00  0.00    +0.000 A 
ENDROOT
BRANCH   1   8
ATOM      7  C   UNL     1       2.975   7.593  17.780  0.00  0.00    +0.000 C 
ATOM      8  C   UNL     1       3.702   6.546  18.220  0.00  0.00    +0.000 C 
BRANCH   7  12
ATOM      9  C   UNL     1       0.949   8.741  22.200  0.00  0.00    +0.000 C 
ATOM     10  C   UNL     1       0.982   8.921  20.712  0.00  0.00    +0.000 A 
ATOM     11  C   UNL     1       1.873   8.161  19.946  0.00  0.00    +0.000 A 
ATOM     12  C   UNL     1       1.943   8.303  18.556  0.00  0.00    +0.000 A 
ATOM     13  C   UNL     1       1.107   9.248  17.934  0.00  0.00    +0.000 A 
ATOM     14  C   UNL     1       0.204  10.030  18.679  0.00  0.00    +0.000 A 
ATOM     15  C   UNL     1      -0.654  11.046  17.978  0.00  0.00    +0.000 C 
ATOM     16  C   UNL     1       0.143   9.839  20.068  0.00  0.00    +0.000 A 
BRANCH  16  17
ATOM     17  O   UNL     1      -0.721  10.547  20.860  0.00  0.00    +0.000 OA
ATOM     18  H   UNL     1      -0.664  10.224  21.771  0.00  0.00    +0.000 HD
ENDBRANCH  16  17
ENDBRANCH   7  12
ENDBRANCH   1   8
BRANCH   6  19
ATOM     19  O   UNL     1       3.462   4.100  16.737  0.00  0.00    +0.000 OA
BRANCH  19  20
ATOM     20  C   UNL     1       3.398   2.940  17.584  0.00  0.00    +0.000 C 
BRANCH  20  21
ATOM     21  C   UNL     1       2.696   3.123  18.911  0.00  0.00    +0.000 A 
ATOM     22  C   UNL     1       1.446   3.727  19.045  0.00  0.00    +0.000 A 
ATOM     23  C   UNL     1       0.859   3.846  20.311  0.00  0.00    +0.000 A 
ATOM     24  C   UNL     1       1.510   3.362  21.446  0.00  0.00    +0.000 A 
ATOM     25  C   UNL     1       2.754   2.754  21.324  0.00  0.00    +0.000 A 
ATOM     26  C   UNL     1       3.343   2.634  20.064  0.00  0.00    +0.000 A 
ENDBRANCH  20  21
ENDBRANCH  19  20
ENDBRANCH   6  19
TORSDOF 6
ENDMDL
MODEL 2
REMARK VINA RESULT:      -8.4      0.332      1.012
REMARK  Name = 
REMARK  8 active torsions:
REMARK  status: ('A' for Active; 'I' for Inactive)
REMARK    1  A    between atoms: C_1  and  C_2
REMARK    2  A    between atoms: C_4  and  C_5
REMARK    3  A    between atoms: C_6  and  C_7
REMARK    4  A    between atoms: C_12  and  O_13
REMARK    5  A    between atoms: O_13  and  C_14
REMARK    6  A    between atoms: C_14  and  C_15
REMARK    7  A    between atoms: C_22  and  C_23
REMARK    8  A    between atoms: C_24  and  O_25
REMARK                            x       y       z     vdW  Elec       q    Type
REMARK                         _______ _______ _______ _____ _____    ______ ____
ROOT
ATOM      1  C   UNL     1       4.479   5.677  17.382  0.00  0.00    +0.000 A 
ATOM      2  C   UNL     1       5.748   6.289  17.421  0.00  0.00    +0.000 A 
ATOM      3  C   UNL     1       6.872   5.689  16.853  0.00  0.00    +0.000 A 
ATOM      4  C   UNL     1       6.742   4.486  16.180  0.00  0.00    +0.000 A 
ATOM      5  C   UNL     1       5.491   3.881  16.084  0.00  0.00    +0.000 A 
ATOM      6  C   UNL     1       4.356   4.438  16.705  0.00  0.00    +0.000 A 
ENDROOT
BRANCH   1   8
ATOM      7  C   UNL     1       2.964   7.617  17.865  0.00  0.00    +0.000 C 
ATOM      8  C   UNL     1       3.325   6.331  18.048  0.00  0.00    +0.000 C 
BRANCH   7  12
ATOM      9  C   UNL     1       0.972   8.943  22.251  0.00  0.00    +0.000 C 
ATOM     10  C   UNL     1       0.967   9.032  20.754  0.00  0.00    +0.000 A 
ATOM     11  C   UNL     1       1.879   8.268  20.016  0.00  0.00    +0.000 A 
ATOM     12  C   UNL     1       1.914   8.326  18.619  0.00  0.00    +0.000 A 
ATOM     13  C   UNL     1       1.022   9.190  17.959  0.00  0.00    +0.000 A 
ATOM     14  C   UNL     1       0.098   9.974  18.675  0.00  0.00    +0.000 A 
ATOM     15  C   UNL     1      -0.821  10.904  17.932  0.00  0.00    +0.000 C 
ATOM     16  C   UNL     1       0.073   9.867  20.074  0.00  0.00    +0.000 A 
BRANCH  16  17
ATOM     17  O   UNL     1      -0.807  10.583  20.840  0.00  0.00    +0.000 OA
ATOM     18  H   UNL     1      -0.440  10.705  21.727  0.00  0.00    +0.000 HD
ENDBRANCH  16  17
ENDBRANCH   7  12
ENDBRANCH   1   8
BRANCH   6  19
ATOM     19  O   UNL     1       3.123   3.803  16.702  0.00  0.00    +0.000 OA
BRANCH  19  20
ATOM     20  C   UNL     1       3.071   2.608  17.498  0.00  0.00    +0.000 C 
BRANCH  20  21
ATOM     21  C   UNL     1       2.606   2.781  18.927  0.00  0.00    +0.000 A 
ATOM     22  C   UNL     1       3.416   2.536  20.036  0.00  0.00    +0.000 A 
ATOM     23  C   UNL     1       2.912   2.733  21.328  0.00  0.00    +0.000 A 
ATOM     24  C   UNL     1       1.604   3.178  21.522  0.00  0.00    +0.000 A 
ATOM     25  C   UNL     1       0.789   3.430  20.424  0.00  0.00    +0.000 A 
ATOM     26  C   UNL     1       1.288   3.234  19.135  0.00  0.00    +0.000 A 
ENDBRANCH  20  21
ENDBRANCH  19  20
ENDBRANCH   6  19
TORSDOF 6
ENDMDL
MODEL 3
REMARK VINA RESULT:      -8.4      0.203      1.988
REMARK  Name = 
REMARK  8 active torsions:
REMARK  status: ('A' for Active; 'I' for Inactive)
REMARK    1  A    between atoms: C_1  and  C_2
REMARK    2  A    between atoms: C_4  and  C_5
REMARK    3  A    between atoms: C_6  and  C_7
REMARK    4  A    between atoms: C_12  and  O_13
REMARK    5  A    between atoms: O_13  and  C_14
REMARK    6  A    between atoms: C_14  and  C_15
REMARK    7  A    between atoms: C_22  and  C_23
REMARK    8  A    between atoms: C_24  and  O_25
REMARK                            x       y       z     vdW  Elec       q    Type
REMARK                         _______ _______ _______ _____ _____    ______ ____
ROOT
ATOM      1  C   UNL     1       4.809   6.017  17.381  0.00  0.00    +0.000 A 
ATOM      2  C   UNL     1       6.113   6.551  17.321  0.00  0.00    +0.000 A 
ATOM      3  C   UNL     1       7.141   5.904  16.637  0.00  0.00    +0.000 A 
ATOM      4  C   UNL     1       6.877   4.733  15.947  0.00  0.00    +0.000 A 
ATOM      5  C   UNL     1       5.587   4.207  15.948  0.00  0.00    +0.000 A 
ATOM      6  C   UNL     1       4.549   4.811  16.685  0.00  0.00    +0.000 A 
ENDROOT
BRANCH   1   8
ATOM      7  C   UNL     1       2.947   7.673  17.677  0.00  0.00    +0.000 C 
ATOM      8  C   UNL     1       3.763   6.717  18.167  0.00  0.00    +0.000 C 
BRANCH   7  12
ATOM      9  C   UNL     1      -0.933  10.815  17.847  0.00  0.00    +0.000 C 
ATOM     10  C   UNL     1       0.069   9.965  18.569  0.00  0.00    +0.000 A 
ATOM     11  C   UNL     1       1.053   9.289  17.837  0.00  0.00    +0.000 A 
ATOM     12  C   UNL     1       2.002   8.479  18.469  0.00  0.00    +0.000 A 
ATOM     13  C   UNL     1       1.940   8.335  19.867  0.00  0.00    +0.000 A 
ATOM     14  C   UNL     1       0.958   8.998  20.628  0.00  0.00    +0.000 A 
ATOM     15  C   UNL     1       0.911   8.797  22.117  0.00  0.00    +0.000 C 
ATOM     16  C   UNL     1       0.041   9.825  19.962  0.00  0.00    +0.000 A 
BRANCH  16  17
ATOM     17  O   UNL     1      -0.931  10.517  20.632  0.00  0.00    +0.000 OA
ATOM     18  H   UNL     1      -1.519  10.949  19.995  0.00  0.00    +0.000 HD
ENDBRANCH  16  17
ENDBRANCH   7  12
ENDBRANCH   1   8
BRANCH   6  19
ATOM     19  O   UNL     1       3.283   4.251  16.777  0.00  0.00    +0.000 OA
BRANCH  19  20
ATOM     20  C   UNL     1       3.231   3.027  17.526  0.00  0.00    +0.000 C 
BRANCH  20  21
ATOM     21  C   UNL     1       2.686   3.131  18.933  0.00  0.00    +0.000 A 
ATOM     22  C   UNL     1       3.274   2.511  20.036  0.00  0.00    +0.000 A 
ATOM     23  C   UNL     1       2.712   2.668  21.310  0.00  0.00    +0.000 A 
ATOM     24  C   UNL     1       1.568   3.445  21.492  0.00  0.00    +0.000 A 
ATOM     25  C   UNL     1       0.975   4.071  20.401  0.00  0.00    +0.000 A 
ATOM     26  C   UNL     1       1.532   3.916  19.131  0.00  0.00    +0.000 A 
ENDBRANCH  20  21
ENDBRANCH  19  20
ENDBRANCH   6  19
TORSDOF 6
ENDMDL
MODEL 4
REMARK VINA RESULT:      -8.3      1.121      2.262
REMARK  Name = 
REMARK  8 active torsions:
REMARK  status: ('A' for Active; 'I' for Inactive)
REMARK    1  A    between atoms: C_1  and  C_2
REMARK    2  A    between atoms: C_4  and  C_5
REMARK    3  A    between atoms: C_6  and  C_7
REMARK    4  A    between atoms: C_12  and  O_13
REMARK    5  A    between atoms: O_13  and  C_14
REMARK    6  A    between atoms: C_14  and  C_15
REMARK    7  A    between atoms: C_22  and  C_23
REMARK    8  A    between atoms: C_24  and  O_25
REMARK                            x       y       z     vdW  Elec       q    Type
REMARK                         _______ _______ _______ _____ _____    ______ ____
ROOT
ATOM      1  C   UNL     1       4.880   6.155  16.997  0.00  0.00    +0.000 A 
ATOM      2  C   UNL     1       5.003   6.330  15.603  0.00  0.00    +0.000 A 
ATOM      3  C   UNL     1       5.759   5.460  14.818  0.00  0.00    +0.000 A 
ATOM      4  C   UNL     1       6.365   4.359  15.399  0.00  0.00    +0.000 A 
ATOM      5  C   UNL     1       6.221   4.134  16.766  0.00  0.00    +0.000 A 
ATOM      6  C   UNL     1       5.515   5.035  17.588  0.00  0.00    +0.000 A 
ENDROOT
BRANCH   1   8
ATOM      7  C   UNL     1       2.801   7.017  18.105  0.00  0.00    +0.000 C 
ATOM      8  C   UNL     1       4.108   7.139  17.796  0.00  0.00    +0.000 C 
BRANCH   7  12
ATOM      9  C   UNL     1      -0.542  10.717  17.801  0.00  0.00    +0.000 C 
ATOM     10  C   UNL     1       0.304   9.811  18.645  0.00  0.00    +0.000 A 
ATOM     11  C   UNL     1       1.181   8.913  18.025  0.00  0.00    +0.000 A 
ATOM     12  C   UNL     1       1.982   8.045  18.773  0.00  0.00    +0.000 A 
ATOM     13  C   UNL     1       1.877   8.072  20.175  0.00  0.00    +0.000 A 
ATOM     14  C   UNL     1       1.000   8.961  20.826  0.00  0.00    +0.000 A 
ATOM     15  C   UNL     1       0.900   8.941  22.326  0.00  0.00    +0.000 C 
ATOM     16  C   UNL     1       0.234   9.837  20.043  0.00  0.00    +0.000 A 
BRANCH  16  17
ATOM     17  O   UNL     1      -0.629  10.742  20.601  0.00  0.00    +0.000 OA
ATOM     18  H   UNL     1      -0.261  11.069  21.436  0.00  0.00    +0.000 HD
ENDBRANCH  16  17
ENDBRANCH   7  12
ENDBRANCH   1   8
BRANCH   6  19
ATOM     19  O   UNL     1       5.440   4.880  18.964  0.00  0.00    +0.000 OA
BRANCH  19  20
ATOM     20  C   UNL     1       4.870   3.631  19.388  0.00  0.00    +0.000 C 
BRANCH  20  21
ATOM     21  C   UNL     1       3.368   3.610  19.561  0.00  0.00    +0.000 A 
ATOM     22  C   UNL     1       2.694   4.342  20.538  0.00  0.00    +0.000 A 
ATOM     23  C   UNL     1       1.297   4.276  20.623  0.00  0.00    +0.000 A 
ATOM     24  C   UNL     1       0.566   3.488  19.734  0.00  0.00    +0.000 A 
ATOM     25  C   UNL     1       1.226   2.757  18.753  0.00  0.00    +0.000 A 
ATOM     26  C   UNL     1       2.618   2.819  18.666  0.00  0.00    +0.000 A 
ENDBRANCH  20  21
ENDBRANCH  19  20
ENDBRANCH   6  19
TORSDOF 6
ENDMDL
MODEL 5
REMARK VINA RESULT:      -8.3      1.059      1.360
REMARK  Name = 
REMARK  8 active torsions:
REMARK  status: ('A' for Active; 'I' for Inactive)
REMARK    1  A    between atoms: C_1  and  C_2
REMARK    2  A    between atoms: C_4  and  C_5
REMARK    3  A    between atoms: C_6  and  C_7
REMARK    4  A    between atoms: C_12  and  O_13
REMARK    5  A    between atoms: O_13  and  C_14
REMARK    6  A    between atoms: C_14  and  C_15
REMARK    7  A    between atoms: C_22  and  C_23
REMARK    8  A    between atoms: C_24  and  O_25
REMARK                            x       y       z     vdW  Elec       q    Type
REMARK                         _______ _______ _______ _____ _____    ______ ____
ROOT
ATOM      1  C   UNL     1       4.639   6.042  17.374  0.00  0.00    +0.000 A 
ATOM      2  C   UNL     1       4.866   6.441  16.041  0.00  0.00    +0.000 A 
ATOM      3  C   UNL     1       5.924   5.929  15.291  0.00  0.00    +0.000 A 
ATOM      4  C   UNL     1       6.749   4.961  15.837  0.00  0.00    +0.000 A 
ATOM      5  C   UNL     1       6.520   4.512  17.136  0.00  0.00    +0.000 A 
ATOM      6  C   UNL     1       5.496   5.062  17.933  0.00  0.00    +0.000 A 
ENDROOT
BRANCH   1   8
ATOM      7  C   UNL     1       2.835   7.742  17.757  0.00  0.00    +0.000 C 
ATOM      8  C   UNL     1       3.532   6.656  18.148  0.00  0.00    +0.000 C 
BRANCH   7  12
ATOM      9  C   UNL     1       0.997   8.926  22.250  0.00  0.00    +0.000 C 
ATOM     10  C   UNL     1       0.962   9.088  20.759  0.00  0.00    +0.000 A 
ATOM     11  C   UNL     1       1.826   8.327  19.964  0.00  0.00    +0.000 A 
ATOM     12  C   UNL     1       1.831   8.453  18.571  0.00  0.00    +0.000 A 
ATOM     13  C   UNL     1       0.959   9.381  17.975  0.00  0.00    +0.000 A 
ATOM     14  C   UNL     1       0.083  10.164  18.751  0.00  0.00    +0.000 A 
ATOM     15  C   UNL     1      -0.816  11.163  18.077  0.00  0.00    +0.000 C 
ATOM     16  C   UNL     1       0.086   9.990  20.143  0.00  0.00    +0.000 A 
BRANCH  16  17
ATOM     17  O   UNL     1      -0.748  10.700  20.964  0.00  0.00    +0.000 OA
ATOM     18  H   UNL     1      -0.306  11.512  21.252  0.00  0.00    +0.000 HD
ENDBRANCH  16  17
ENDBRANCH   7  12
ENDBRANCH   1   8
BRANCH   6  19
ATOM     19  O   UNL     1       5.313   4.697  19.258  0.00  0.00    +0.000 OA
BRANCH  19  20
ATOM     20  C   UNL     1       4.788   3.372  19.439  0.00  0.00    +0.000 C 
BRANCH  20  21
ATOM     21  C   UNL     1       3.281   3.253  19.479  0.00  0.00    +0.000 A 
ATOM     22  C   UNL     1       2.531   2.616  18.490  0.00  0.00    +0.000 A 
ATOM     23  C   UNL     1       1.137   2.539  18.609  0.00  0.00    +0.000 A 
ATOM     24  C   UNL     1       0.485   3.090  19.713  0.00  0.00    +0.000 A 
ATOM     25  C   UNL     1       1.222   3.723  20.707  0.00  0.00    +0.000 A 
ATOM     26  C   UNL     1       2.611   3.803  20.592  0.00  0.00    +0.000 A 
ENDBRANCH  20  21
ENDBRANCH  19  20
ENDBRANCH   6  19
TORSDOF 6
ENDMDL
MODEL 6
REMARK VINA RESULT:      -8.2      1.033      2.181
REMARK  Name = 
REMARK  8 active torsions:
REMARK  status: ('A' for Active; 'I' for Inactive)
REMARK    1  A    between atoms: C_1  and  C_2
REMARK    2  A    between atoms: C_4  and  C_5
REMARK    3  A    between atoms: C_6  and  C_7
REMARK    4  A    between atoms: C_12  and  O_13
REMARK    5  A    between atoms: O_13  and  C_14
REMARK    6  A    between atoms: C_14  and  C_15
REMARK    7  A    between atoms: C_22  and  C_23
REMARK    8  A    between atoms: C_24  and  O_25
REMARK                            x       y       z     vdW  Elec       q    Type
REMARK                         _______ _______ _______ _____ _____    ______ ____
ROOT
ATOM      1  C   UNL     1       4.682   5.999  17.342  0.00  0.00    +0.000 A 
ATOM      2  C   UNL     1       4.869   6.340  15.987  0.00  0.00    +0.000 A 
ATOM      3  C   UNL     1       5.856   5.737  15.208  0.00  0.00    +0.000 A 
ATOM      4  C   UNL     1       6.643   4.734  15.749  0.00  0.00    +0.000 A 
ATOM      5  C   UNL     1       6.447   4.343  17.071  0.00  0.00    +0.000 A 
ATOM      6  C   UNL     1       5.500   4.983  17.895  0.00  0.00    +0.000 A 
ENDROOT
BRANCH   1   8
ATOM      7  C   UNL     1       2.884   7.715  17.684  0.00  0.00    +0.000 C 
ATOM      8  C   UNL     1       3.653   6.708  18.144  0.00  0.00    +0.000 C 
BRANCH   7  12
ATOM      9  C   UNL     1      -0.989  10.861  17.944  0.00  0.00    +0.000 C 
ATOM     10  C   UNL     1       0.032  10.013  18.643  0.00  0.00    +0.000 A 
ATOM     11  C   UNL     1       0.995   9.334  17.888  0.00  0.00    +0.000 A 
ATOM     12  C   UNL     1       1.961   8.526  18.498  0.00  0.00    +0.000 A 
ATOM     13  C   UNL     1       1.937   8.390  19.898  0.00  0.00    +0.000 A 
ATOM     14  C   UNL     1       0.977   9.058  20.682  0.00  0.00    +0.000 A 
ATOM     15  C   UNL     1       0.971   8.864  22.173  0.00  0.00    +0.000 C 
ATOM     16  C   UNL     1       0.042   9.881  20.037  0.00  0.00    +0.000 A 
BRANCH  16  17
ATOM     17  O   UNL     1      -0.911  10.577  20.730  0.00  0.00    +0.000 OA
ATOM     18  H   UNL     1      -1.777  10.166  20.592  0.00  0.00    +0.000 HD
ENDBRANCH  16  17
ENDBRANCH   7  12
ENDBRANCH   1   8
BRANCH   6  19
ATOM     19  O   UNL     1       5.356   4.672  19.239  0.00  0.00    +0.000 OA
BRANCH  19  20
ATOM     20  C   UNL     1       4.813   3.365  19.489  0.00  0.00    +0.000 C 
BRANCH  20  21
ATOM     21  C   UNL     1       3.305   3.266  19.519  0.00  0.00    +0.000 A 
ATOM     22  C   UNL     1       2.526   3.007  18.391  0.00  0.00    +0.000 A 
ATOM     23  C   UNL     1       1.133   2.918  18.507  0.00  0.00    +0.000 A 
ATOM     24  C   UNL     1       0.510   3.083  19.745  0.00  0.00    +0.000 A 
ATOM     25  C   UNL     1       1.276   3.338  20.877  0.00  0.00    +0.000 A 
ATOM     26  C   UNL     1       2.664   3.427  20.765  0.00  0.00    +0.000 A 
ENDBRANCH  20  21
ENDBRANCH  19  20
ENDBRANCH   6  19
TORSDOF 6
ENDMDL
MODEL 7
REMARK VINA RESULT:      -8.0      1.671      6.308
REMARK  Name = 
REMARK  8 active torsions:
REMARK  status: ('A' for Active; 'I' for Inactive)
REMARK    1  A    between atoms: C_1  and  C_2
REMARK    2  A    between atoms: C_4  and  C_5
REMARK    3  A    between atoms: C_6  and  C_7
REMARK    4  A    between atoms: C_12  and  O_13
REMARK    5  A    between atoms: O_13  and  C_14
REMARK    6  A    between atoms: C_14  and  C_15
REMARK    7  A    between atoms: C_22  and  C_23
REMARK    8  A    between atoms: C_24  and  O_25
REMARK                            x       y       z     vdW  Elec       q    Type
REMARK                         _______ _______ _______ _____ _____    ______ ____
ROOT
ATOM      1  C   UNL     1       1.975   8.698  18.746  0.00  0.00    +0.000 A 
ATOM      2  C   UNL     1       1.344   9.653  17.924  0.00  0.00    +0.000 A 
ATOM      3  C   UNL     1       0.105  10.202  18.254  0.00  0.00    +0.000 A 
ATOM      4  C   UNL     1      -0.508   9.851  19.445  0.00  0.00    +0.000 A 
ATOM      5  C   UNL     1       0.116   8.945  20.301  0.00  0.00    +0.000 A 
ATOM      6  C   UNL     1       1.337   8.331  19.956  0.00  0.00    +0.000 A 
ENDROOT
BRANCH   1   8
ATOM      7  C   UNL     1       3.392   6.962  17.616  0.00  0.00    +0.000 C 
ATOM      8  C   UNL     1       3.268   8.104  18.324  0.00  0.00    +0.000 C 
BRANCH   7  12
ATOM      9  C   UNL     1       7.988   5.596  19.020  0.00  0.00    +0.000 C 
ATOM     10  C   UNL     1       6.884   5.554  18.005  0.00  0.00    +0.000 A 
ATOM     11  C   UNL     1       5.718   6.297  18.225  0.00  0.00    +0.000 A 
ATOM     12  C   UNL     1       4.662   6.280  17.309  0.00  0.00    +0.000 A 
ATOM     13  C   UNL     1       4.780   5.479  16.159  0.00  0.00    +0.000 A 
ATOM     14  C   UNL     1       5.939   4.717  15.915  0.00  0.00    +0.000 A 
ATOM     15  C   UNL     1       6.015   3.853  14.686  0.00  0.00    +0.000 C 
ATOM     16  C   UNL     1       6.989   4.781  16.842  0.00  0.00    +0.000 A 
BRANCH  16  17
ATOM     17  O   UNL     1       8.154   4.084  16.667  0.00  0.00    +0.000 OA
ATOM     18  H   UNL     1       8.576   3.936  17.527  0.00  0.00    +0.000 HD
ENDBRANCH  16  17
ENDBRANCH   7  12
ENDBRANCH   1   8
BRANCH   6  19
ATOM     19  O   UNL     1       1.925   7.357  20.749  0.00  0.00    +0.000 OA
BRANCH  19  20
ATOM     20  C   UNL     1       1.252   6.088  20.723  0.00  0.00    +0.000 C 
BRANCH  20  21
ATOM     21  C   UNL     1       1.924   4.994  19.923  0.00  0.00    +0.000 A 
ATOM     22  C   UNL     1       1.377   4.438  18.767  0.00  0.00    +0.000 A 
ATOM     23  C   UNL     1       2.071   3.436  18.076  0.00  0.00    +0.000 A 
ATOM     24  C   UNL     1       3.312   2.987  18.530  0.00  0.00    +0.000 A 
ATOM     25  C   UNL     1       3.869   3.537  19.679  0.00  0.00    +0.000 A 
ATOM     26  C   UNL     1       3.180   4.535  20.370  0.00  0.00    +0.000 A 
ENDBRANCH  20  21
ENDBRANCH  19  20
ENDBRANCH   6  19
TORSDOF 6
ENDMDL
MODEL 8
REMARK VINA RESULT:      -7.9      1.605      4.677
REMARK  Name = 
REMARK  8 active torsions:
REMARK  status: ('A' for Active; 'I' for Inactive)
REMARK    1  A    between atoms: C_1  and  C_2
REMARK    2  A    between atoms: C_4  and  C_5
REMARK    3  A    between atoms: C_6  and  C_7
REMARK    4  A    between atoms: C_12  and  O_13
REMARK    5  A    between atoms: O_13  and  C_14
REMARK    6  A    between atoms: C_14  and  C_15
REMARK    7  A    between atoms: C_22  and  C_23
REMARK    8  A    between atoms: C_24  and  O_25
REMARK                            x       y       z     vdW  Elec       q    Type
REMARK                         _______ _______ _______ _____ _____    ______ ____
ROOT
ATOM      1  C   UNL     1       2.144   5.143  19.860  0.00  0.00    +0.000 A 
ATOM      2  C   UNL     1       1.657   4.248  20.834  0.00  0.00    +0.000 A 
ATOM      3  C   UNL     1       1.738   2.866  20.667  0.00  0.00    +0.000 A 
ATOM      4  C   UNL     1       2.361   2.344  19.546  0.00  0.00    +0.000 A 
ATOM      5  C   UNL     1       2.895   3.205  18.590  0.00  0.00    +0.000 A 
ATOM      6  C   UNL     1       2.768   4.603  18.708  0.00  0.00    +0.000 A 
ENDROOT
BRANCH   1   8
ATOM      7  C   UNL     1       1.025   7.176  20.815  0.00  0.00    +0.000 C 
ATOM      8  C   UNL     1       1.986   6.606  20.060  0.00  0.00    +0.000 C 
BRANCH   7  12
ATOM      9  C   UNL     1       1.225  11.732  18.776  0.00  0.00    +0.000 C 
ATOM     10  C   UNL     1       0.796  10.843  19.905  0.00  0.00    +0.000 A 
ATOM     11  C   UNL     1       1.147   9.488  19.886  0.00  0.00    +0.000 A 
ATOM     12  C   UNL     1       0.761   8.623  20.914  0.00  0.00    +0.000 A 
ATOM     13  C   UNL     1      -0.011   9.135  21.972  0.00  0.00    +0.000 A 
ATOM     14  C   UNL     1      -0.383  10.493  22.015  0.00  0.00    +0.000 A 
ATOM     15  C   UNL     1      -1.231  10.995  23.150  0.00  0.00    +0.000 C 
ATOM     16  C   UNL     1       0.046  11.337  20.980  0.00  0.00    +0.000 A 
BRANCH  16  17
ATOM     17  O   UNL     1      -0.259  12.671  20.959  0.00  0.00    +0.000 OA
ATOM     18  H   UNL     1      -1.211  12.784  20.826  0.00  0.00    +0.000 HD
ENDBRANCH  16  17
ENDBRANCH   7  12
ENDBRANCH   1   8
BRANCH   6  19
ATOM     19  O   UNL     1       3.208   5.473  17.722  0.00  0.00    +0.000 OA
BRANCH  19  20
ATOM     20  C   UNL     1       4.434   5.076  17.087  0.00  0.00    +0.000 C 
BRANCH  20  21
ATOM     21  C   UNL     1       5.699   5.698  17.636  0.00  0.00    +0.000 A 
ATOM     22  C   UNL     1       6.405   5.179  18.722  0.00  0.00    +0.000 A 
ATOM     23  C   UNL     1       7.576   5.810  19.161  0.00  0.00    +0.000 A 
ATOM     24  C   UNL     1       8.052   6.954  18.519  0.00  0.00    +0.000 A 
ATOM     25  C   UNL     1       7.360   7.476  17.433  0.00  0.00    +0.000 A 
ATOM     26  C   UNL     1       6.192   6.851  16.993  0.00  0.00    +0.000 A 
ENDBRANCH  20  21
ENDBRANCH  19  20
ENDBRANCH   6  19
TORSDOF 6
ENDMDL
MODEL 9
REMARK VINA RESULT:      -7.7      1.657      4.400
REMARK  Name = 
REMARK  8 active torsions:
REMARK  status: ('A' for Active; 'I' for Inactive)
REMARK    1  A    between atoms: C_1  and  C_2
REMARK    2  A    between atoms: C_4  and  C_5
REMARK    3  A    between atoms: C_6  and  C_7
REMARK    4  A    between atoms: C_12  and  O_13
REMARK    5  A    between atoms: O_13  and  C_14
REMARK    6  A    between atoms: C_14  and  C_15
REMARK    7  A    between atoms: C_22  and  C_23
REMARK    8  A    between atoms: C_24  and  O_25
REMARK                            x       y       z     vdW  Elec       q    Type
REMARK                         _______ _______ _______ _____ _____    ______ ____
ROOT
ATOM      1  C   UNL     1       2.667   4.771  19.150  0.00  0.00    +0.000 A 
ATOM      2  C   UNL     1       1.678   3.928  18.603  0.00  0.00    +0.000 A 
ATOM      3  C   UNL     1       1.932   2.588  18.316  0.00  0.00    +0.000 A 
ATOM      4  C   UNL     1       3.167   2.041  18.621  0.00  0.00    +0.000 A 
ATOM      5  C   UNL     1       4.148   2.838  19.206  0.00  0.00    +0.000 A 
ATOM      6  C   UNL     1       3.934   4.210  19.446  0.00  0.00    +0.000 A 
ENDROOT
BRANCH   1   8
ATOM      7  C   UNL     1       1.713   6.679  20.470  0.00  0.00    +0.000 C 
ATOM      8  C   UNL     1       2.363   6.204  19.388  0.00  0.00    +0.000 C 
BRANCH   7  12
ATOM      9  C   UNL     1       1.058  11.271  18.612  0.00  0.00    +0.000 C 
ATOM     10  C   UNL     1       0.893  10.304  19.747  0.00  0.00    +0.000 A 
ATOM     11  C   UNL     1       1.414   9.010  19.629  0.00  0.00    +0.000 A 
ATOM     12  C   UNL     1       1.276   8.074  20.659  0.00  0.00    +0.000 A 
ATOM     13  C   UNL     1       0.580   8.451  21.822  0.00  0.00    +0.000 A 
ATOM     14  C   UNL     1       0.041   9.744  21.966  0.00  0.00    +0.000 A 
ATOM     15  C   UNL     1      -0.718  10.098  23.215  0.00  0.00    +0.000 C 
ATOM     16  C   UNL     1       0.224  10.664  20.923  0.00  0.00    +0.000 A 
BRANCH  16  17
ATOM     17  O   UNL     1      -0.254  11.945  20.994  0.00  0.00    +0.000 OA
ATOM     18  H   UNL     1       0.483  12.570  20.926  0.00  0.00    +0.000 HD
ENDBRANCH  16  17
ENDBRANCH   7  12
ENDBRANCH   1   8
BRANCH   6  19
ATOM     19  O   UNL     1       4.929   5.040  19.939  0.00  0.00    +0.000 OA
BRANCH  19  20
ATOM     20  C   UNL     1       6.124   5.069  19.141  0.00  0.00    +0.000 C 
BRANCH  20  21
ATOM     21  C   UNL     1       5.924   5.252  17.653  0.00  0.00    +0.000 A 
ATOM     22  C   UNL     1       5.294   6.362  17.089  0.00  0.00    +0.000 A 
ATOM     23  C   UNL     1       5.161   6.460  15.698  0.00  0.00    +0.000 A 
ATOM     24  C   UNL     1       5.658   5.458  14.863  0.00  0.00    +0.000 A 
ATOM     25  C   UNL     1       6.292   4.350  15.413  0.00  0.00    +0.000 A 
ATOM     26  C   UNL     1       6.425   4.248  16.799  0.00  0.00    +0.000 A 
ENDBRANCH  20  21
ENDBRANCH  19  20
ENDBRANCH   6  19
TORSDOF 6
ENDMDL
