MODEL 1
REMARK VINA RESULT:      -7.3      0.000      0.000
REMARK  Name = 
REMARK  11 active torsions:
REMARK  status: ('A' for Active; 'I' for Inactive)
REMARK    1  A    between atoms: C_2  and  C_4
REMARK    2  A    between atoms: C_7  and  O_8
REMARK    3  A    between atoms: O_8  and  C_9
REMARK    4  A    between atoms: C_9  and  C_10
REMARK    5  A    between atoms: C_10  and  O_11
REMARK    6  A    between atoms: C_10  and  C_12
REMARK    7  A    between atoms: C_12  and  O_13
REMARK    8  A    between atoms: C_12  and  C_14
REMARK    9  A    between atoms: C_14  and  O_15
REMARK   10  A    between atoms: O_15  and  C_16
REMARK   11  A    between atoms: C_19  and  C_20
REMARK                            x       y       z     vdW  Elec       q    Type
REMARK                         _______ _______ _______ _____ _____    ______ ____
ROOT
ATOM      1  C   UNL     1       1.510   3.439  21.058  0.00  0.00    +0.000 C 
ENDROOT
BRANCH   1   2
ATOM      2  O   UNL     1       2.272   2.635  21.968  0.00  0.00    +0.000 OA
ATOM      3  H   UNL     1       2.807   3.226  22.527  0.00  0.00    +0.000 HD
ENDBRANCH   1   2
BRANCH   1   4
ATOM      4  C   UNL     1       1.833   4.936  21.235  0.00  0.00    +0.000 C 
BRANCH   4   5
ATOM      5  O   UNL     1       2.684   5.371  20.164  0.00  0.00    +0.000 OA
BRANCH   5   9
ATOM      6  C   UNL     1       1.638   9.130  18.681  0.00  0.00    +0.000 A 
ATOM      7  C   UNL     1       1.388   8.771  20.009  0.00  0.00    +0.000 A 
ATOM      8  C   UNL     1       1.748   7.499  20.467  0.00  0.00    +0.000 A 
ATOM      9  C   UNL     1       2.352   6.580  19.607  0.00  0.00    +0.000 A 
ATOM     10  C   UNL     1       2.625   6.951  18.289  0.00  0.00    +0.000 A 
ATOM     11  C   UNL     1       2.266   8.221  17.825  0.00  0.00    +0.000 A 
BRANCH   6  13
ATOM     12  N   UNL     1       0.008  10.781  18.047  0.00  0.00    +0.000 NA
ATOM     13  C   UNL     1       1.257  10.480  18.183  0.00  0.00    +0.000 C 
ATOM     14  N   UNL     1       2.225  11.390  17.861  0.00  0.00    +0.000 N 
ATOM     15  H   UNL     1      -0.083  11.753  17.746  0.00  0.00    +0.000 HD
ATOM     16  H   UNL     1       1.935  12.133  17.236  0.00  0.00    +0.000 HD
ATOM     17  H   UNL     1       3.117  10.996  17.581  0.00  0.00    +0.000 HD
ENDBRANCH   6  13
ENDBRANCH   5   9
ENDBRANCH   4   5
ENDBRANCH   1   4
BRANCH   1  18
ATOM     18  C   UNL     1       1.788   2.989  19.608  0.00  0.00    +0.000 C 
BRANCH  18  19
ATOM     19  O   UNL     1       0.562   2.578  18.990  0.00  0.00    +0.000 OA
ATOM     20  H   UNL     1       0.020   2.131  19.664  0.00  0.00    +0.000 HD
ENDBRANCH  18  19
BRANCH  18  21
ATOM     21  C   UNL     1       2.843   1.868  19.546  0.00  0.00    +0.000 C 
BRANCH  21  22
ATOM     22  O   UNL     1       4.144   2.430  19.784  0.00  0.00    +0.000 OA
BRANCH  22  23
ATOM     23  C   UNL     1       4.612   3.273  18.813  0.00  0.00    +0.000 A 
ATOM     24  C   UNL     1       4.093   3.074  17.534  0.00  0.00    +0.000 A 
ATOM     25  C   UNL     1       4.499   3.881  16.461  0.00  0.00    +0.000 A 
ATOM     26  C   UNL     1       5.419   4.917  16.679  0.00  0.00    +0.000 A 
ATOM     27  C   UNL     1       5.920   5.129  17.965  0.00  0.00    +0.000 A 
ATOM     28  C   UNL     1       5.516   4.316  19.028  0.00  0.00    +0.000 A 
BRANCH  26  29
ATOM     29  C   UNL     1       5.867   5.776  15.546  0.00  0.00    +0.000 C 
ATOM     30  N   UNL     1       5.277   6.886  15.230  0.00  0.00    +0.000 NA
ATOM     31  N   UNL     1       6.951   5.432  14.800  0.00  0.00    +0.000 N 
ATOM     32  H   UNL     1       4.450   7.051  15.806  0.00  0.00    +0.000 HD
ATOM     33  H   UNL     1       7.713   4.989  15.297  0.00  0.00    +0.000 HD
ATOM     34  H   UNL     1       7.261   6.222  14.241  0.00  0.00    +0.000 HD
ENDBRANCH  26  29
ENDBRANCH  22  23
ENDBRANCH  21  22
ENDBRANCH  18  21
ENDBRANCH   1  18
TORSDOF 11
ENDMDL
MODEL 2
REMARK VINA RESULT:      -7.3      0.746      1.349
REMARK  Name = 
REMARK  11 active torsions:
REMARK  status: ('A' for Active; 'I' for Inactive)
REMARK    1  A    between atoms: C_2  and  C_4
REMARK    2  A    between atoms: C_7  and  O_8
REMARK    3  A    between atoms: O_8  and  C_9
REMARK    4  A    between atoms: C_9  and  C_10
REMARK    5  A    between atoms: C_10  and  O_11
REMARK    6  A    between atoms: C_10  and  C_12
REMARK    7  A    between atoms: C_12  and  O_13
REMARK    8  A    between atoms: C_12  and  C_14
REMARK    9  A    between atoms: C_14  and  O_15
REMARK   10  A    between atoms: O_15  and  C_16
REMARK   11  A    between atoms: C_19  and  C_20
REMARK                            x       y       z     vdW  Elec       q    Type
REMARK                         _______ _______ _______ _____ _____    ______ ____
ROOT
ATOM      1  C   UNL     1       1.328   3.170  20.095  0.00  0.00    +0.000 C 
ENDROOT
BRANCH   1   2
ATOM      2  O   UNL     1       0.093   2.488  19.842  0.00  0.00    +0.000 OA
ATOM      3  H   UNL     1      -0.299   2.851  19.028  0.00  0.00    +0.000 HD
ENDBRANCH   1   2
BRANCH   1   4
ATOM      4  C   UNL     1       1.078   4.625  20.540  0.00  0.00    +0.000 C 
BRANCH   4   5
ATOM      5  O   UNL     1       2.273   5.396  20.346  0.00  0.00    +0.000 OA
BRANCH   5   9
ATOM      6  C   UNL     1       1.626   9.260  18.906  0.00  0.00    +0.000 A 
ATOM      7  C   UNL     1       1.122   8.844  20.142  0.00  0.00    +0.000 A 
ATOM      8  C   UNL     1       1.354   7.539  20.588  0.00  0.00    +0.000 A 
ATOM      9  C   UNL     1       2.085   6.642  19.805  0.00  0.00    +0.000 A 
ATOM     10  C   UNL     1       2.610   7.067  18.583  0.00  0.00    +0.000 A 
ATOM     11  C   UNL     1       2.378   8.371  18.132  0.00  0.00    +0.000 A 
BRANCH   6  13
ATOM     12  N   UNL     1       2.221  11.195  17.609  0.00  0.00    +0.000 NA
ATOM     13  C   UNL     1       1.381  10.645  18.421  0.00  0.00    +0.000 C 
ATOM     14  N   UNL     1       0.278  11.333  18.843  0.00  0.00    +0.000 N 
ATOM     15  H   UNL     1       1.883  12.120  17.335  0.00  0.00    +0.000 HD
ATOM     16  H   UNL     1       0.334  12.341  18.758  0.00  0.00    +0.000 HD
ATOM     17  H   UNL     1      -0.087  11.057  19.749  0.00  0.00    +0.000 HD
ENDBRANCH   6  13
ENDBRANCH   5   9
ENDBRANCH   4   5
ENDBRANCH   1   4
BRANCH   1  18
ATOM     18  C   UNL     1       2.137   2.405  21.163  0.00  0.00    +0.000 C 
BRANCH  18  19
ATOM     19  O   UNL     1       2.004   3.063  22.429  0.00  0.00    +0.000 OA
ATOM     20  H   UNL     1       2.292   3.986  22.320  0.00  0.00    +0.000 HD
ENDBRANCH  18  19
BRANCH  18  21
ATOM     21  C   UNL     1       3.618   2.258  20.766  0.00  0.00    +0.000 C 
BRANCH  21  22
ATOM     22  O   UNL     1       3.712   2.094  19.342  0.00  0.00    +0.000 OA
BRANCH  22  23
ATOM     23  C   UNL     1       4.326   3.114  18.666  0.00  0.00    +0.000 A 
ATOM     24  C   UNL     1       4.096   3.157  17.291  0.00  0.00    +0.000 A 
ATOM     25  C   UNL     1       4.673   4.159  16.498  0.00  0.00    +0.000 A 
ATOM     26  C   UNL     1       5.473   5.144  17.095  0.00  0.00    +0.000 A 
ATOM     27  C   UNL     1       5.684   5.113  18.475  0.00  0.00    +0.000 A 
ATOM     28  C   UNL     1       5.111   4.106  19.258  0.00  0.00    +0.000 A 
BRANCH  26  29
ATOM     29  C   UNL     1       6.101   6.210  16.263  0.00  0.00    +0.000 C 
ATOM     30  N   UNL     1       5.410   7.062  15.573  0.00  0.00    +0.000 NA
ATOM     31  N   UNL     1       7.453   6.346  16.214  0.00  0.00    +0.000 N 
ATOM     32  H   UNL     1       4.409   6.867  15.627  0.00  0.00    +0.000 HD
ATOM     33  H   UNL     1       7.953   6.158  17.074  0.00  0.00    +0.000 HD
ATOM     34  H   UNL     1       7.705   7.244  15.809  0.00  0.00    +0.000 HD
ENDBRANCH  26  29
ENDBRANCH  22  23
ENDBRANCH  21  22
ENDBRANCH  18  21
ENDBRANCH   1  18
TORSDOF 11
ENDMDL
MODEL 3
REMARK VINA RESULT:      -7.3      1.078      1.926
REMARK  Name = 
REMARK  11 active torsions:
REMARK  status: ('A' for Active; 'I' for Inactive)
REMARK    1  A    between atoms: C_2  and  C_4
REMARK    2  A    between atoms: C_7  and  O_8
REMARK    3  A    between atoms: O_8  and  C_9
REMARK    4  A    between atoms: C_9  and  C_10
REMARK    5  A    between atoms: C_10  and  O_11
REMARK    6  A    between atoms: C_10  and  C_12
REMARK    7  A    between atoms: C_12  and  O_13
REMARK    8  A    between atoms: C_12  and  C_14
REMARK    9  A    between atoms: C_14  and  O_15
REMARK   10  A    between atoms: O_15  and  C_16
REMARK   11  A    between atoms: C_19  and  C_20
REMARK                            x       y       z     vdW  Elec       q    Type
REMARK                         _______ _______ _______ _____ _____    ______ ____
ROOT
ATOM      1  C   UNL     1       1.610   4.022  20.230  0.00  0.00    +0.000 C 
ENDROOT
BRANCH   1   2
ATOM      2  O   UNL     1       0.185   3.959  20.374  0.00  0.00    +0.000 OA
ATOM      3  H   UNL     1      -0.221   4.408  19.611  0.00  0.00    +0.000 HD
ENDBRANCH   1   2
BRANCH   1   4
ATOM      4  C   UNL     1       2.170   5.337  20.808  0.00  0.00    +0.000 C 
BRANCH   4   5
ATOM      5  O   UNL     1       2.751   6.114  19.751  0.00  0.00    +0.000 OA
BRANCH   5   9
ATOM      6  C   UNL     1       1.105   9.869  18.969  0.00  0.00    +0.000 A 
ATOM      7  C   UNL     1       1.771   9.140  17.979  0.00  0.00    +0.000 A 
ATOM      8  C   UNL     1       2.315   7.887  18.281  0.00  0.00    +0.000 A 
ATOM      9  C   UNL     1       2.202   7.357  19.568  0.00  0.00    +0.000 A 
ATOM     10  C   UNL     1       1.514   8.076  20.548  0.00  0.00    +0.000 A 
ATOM     11  C   UNL     1       0.970   9.330  20.251  0.00  0.00    +0.000 A 
BRANCH   6  13
ATOM     12  N   UNL     1      -0.737  11.408  18.829  0.00  0.00    +0.000 NA
ATOM     13  C   UNL     1       0.526  11.205  18.658  0.00  0.00    +0.000 C 
ATOM     14  N   UNL     1       1.328  12.205  18.185  0.00  0.00    +0.000 N 
ATOM     15  H   UNL     1      -0.963  12.382  18.620  0.00  0.00    +0.000 HD
ATOM     16  H   UNL     1       0.851  12.950  17.692  0.00  0.00    +0.000 HD
ATOM     17  H   UNL     1       2.157  11.900  17.685  0.00  0.00    +0.000 HD
ENDBRANCH   6  13
ENDBRANCH   5   9
ENDBRANCH   4   5
ENDBRANCH   1   4
BRANCH   1  18
ATOM     18  C   UNL     1       2.257   2.803  20.921  0.00  0.00    +0.000 C 
BRANCH  18  19
ATOM     19  O   UNL     1       2.428   3.077  22.317  0.00  0.00    +0.000 OA
ATOM     20  H   UNL     1       1.660   3.594  22.619  0.00  0.00    +0.000 HD
ENDBRANCH  18  19
BRANCH  18  21
ATOM     21  C   UNL     1       3.595   2.414  20.264  0.00  0.00    +0.000 C 
BRANCH  21  22
ATOM     22  O   UNL     1       3.434   2.398  18.836  0.00  0.00    +0.000 OA
BRANCH  22  23
ATOM     23  C   UNL     1       4.275   3.219  18.135  0.00  0.00    +0.000 A 
ATOM     24  C   UNL     1       5.261   3.861  18.885  0.00  0.00    +0.000 A 
ATOM     25  C   UNL     1       6.180   4.724  18.271  0.00  0.00    +0.000 A 
ATOM     26  C   UNL     1       6.125   4.928  16.885  0.00  0.00    +0.000 A 
ATOM     27  C   UNL     1       5.151   4.266  16.133  0.00  0.00    +0.000 A 
ATOM     28  C   UNL     1       4.234   3.413  16.753  0.00  0.00    +0.000 A 
BRANCH  26  29
ATOM     29  C   UNL     1       7.089   5.851  16.221  0.00  0.00    +0.000 C 
ATOM     30  N   UNL     1       7.533   6.930  16.785  0.00  0.00    +0.000 NA
ATOM     31  N   UNL     1       7.569   5.576  14.978  0.00  0.00    +0.000 N 
ATOM     32  H   UNL     1       7.094   7.088  17.694  0.00  0.00    +0.000 HD
ATOM     33  H   UNL     1       7.734   4.599  14.769  0.00  0.00    +0.000 HD
ATOM     34  H   UNL     1       8.378   6.157  14.774  0.00  0.00    +0.000 HD
ENDBRANCH  26  29
ENDBRANCH  22  23
ENDBRANCH  21  22
ENDBRANCH  18  21
ENDBRANCH   1  18
TORSDOF 11
ENDMDL
MODEL 4
REMARK VINA RESULT:      -7.3      3.250      4.900
REMARK  Name = 
REMARK  11 active torsions:
REMARK  status: ('A' for Active; 'I' for Inactive)
REMARK    1  A    between atoms: C_2  and  C_4
REMARK    2  A    between atoms: C_7  and  O_8
REMARK    3  A    between atoms: O_8  and  C_9
REMARK    4  A    between atoms: C_9  and  C_10
REMARK    5  A    between atoms: C_10  and  O_11
REMARK    6  A    between atoms: C_10  and  C_12
REMARK    7  A    between atoms: C_12  and  O_13
REMARK    8  A    between atoms: C_12  and  C_14
REMARK    9  A    between atoms: C_14  and  O_15
REMARK   10  A    between atoms: O_15  and  C_16
REMARK   11  A    between atoms: C_19  and  C_20
REMARK                            x       y       z     vdW  Elec       q    Type
REMARK                         _______ _______ _______ _____ _____    ______ ____
ROOT
ATOM      1  C   UNL     1       6.210   6.765  17.113  0.00  0.00    +0.000 C 
ENDROOT
BRANCH   1   2
ATOM      2  O   UNL     1       7.269   7.730  17.142  0.00  0.00    +0.000 OA
ATOM      3  H   UNL     1       7.071   8.384  17.836  0.00  0.00    +0.000 HD
ENDBRANCH   1   2
BRANCH   1   4
ATOM      4  C   UNL     1       4.847   7.443  16.869  0.00  0.00    +0.000 C 
BRANCH   4   5
ATOM      5  O   UNL     1       3.807   6.651  17.462  0.00  0.00    +0.000 OA
BRANCH   5   9
ATOM      6  C   UNL     1       1.161   8.845  19.830  0.00  0.00    +0.000 A 
ATOM      7  C   UNL     1       1.501   9.256  18.538  0.00  0.00    +0.000 A 
ATOM      8  C   UNL     1       2.397   8.497  17.777  0.00  0.00    +0.000 A 
ATOM      9  C   UNL     1       2.959   7.331  18.299  0.00  0.00    +0.000 A 
ATOM     10  C   UNL     1       2.597   6.908  19.580  0.00  0.00    +0.000 A 
ATOM     11  C   UNL     1       1.704   7.665  20.345  0.00  0.00    +0.000 A 
BRANCH   6  13
ATOM     12  N   UNL     1      -0.575  10.492  20.070  0.00  0.00    +0.000 NA
ATOM     13  C   UNL     1       0.211   9.648  20.649  0.00  0.00    +0.000 C 
ATOM     14  N   UNL     1       0.183   9.497  22.007  0.00  0.00    +0.000 N 
ATOM     15  H   UNL     1      -1.193  10.920  20.761  0.00  0.00    +0.000 HD
ATOM     16  H   UNL     1      -0.219  10.271  22.523  0.00  0.00    +0.000 HD
ATOM     17  H   UNL     1       1.049   9.180  22.429  0.00  0.00    +0.000 HD
ENDBRANCH   6  13
ENDBRANCH   5   9
ENDBRANCH   4   5
ENDBRANCH   1   4
BRANCH   1  18
ATOM     18  C   UNL     1       6.497   5.709  16.025  0.00  0.00    +0.000 C 
BRANCH  18  19
ATOM     19  O   UNL     1       5.553   5.852  14.957  0.00  0.00    +0.000 OA
ATOM     20  H   UNL     1       4.676   5.595  15.292  0.00  0.00    +0.000 HD
ENDBRANCH  18  19
BRANCH  18  21
ATOM     21  C   UNL     1       6.478   4.277  16.595  0.00  0.00    +0.000 C 
BRANCH  21  22
ATOM     22  O   UNL     1       5.235   3.646  16.247  0.00  0.00    +0.000 OA
BRANCH  22  23
ATOM     23  C   UNL     1       4.331   3.514  17.266  0.00  0.00    +0.000 A 
ATOM     24  C   UNL     1       4.863   3.534  18.555  0.00  0.00    +0.000 A 
ATOM     25  C   UNL     1       4.030   3.408  19.677  0.00  0.00    +0.000 A 
ATOM     26  C   UNL     1       2.644   3.284  19.504  0.00  0.00    +0.000 A 
ATOM     27  C   UNL     1       2.111   3.287  18.213  0.00  0.00    +0.000 A 
ATOM     28  C   UNL     1       2.949   3.406  17.100  0.00  0.00    +0.000 A 
BRANCH  26  29
ATOM     29  C   UNL     1       1.748   3.140  20.686  0.00  0.00    +0.000 C 
ATOM     30  N   UNL     1       0.459   3.058  20.586  0.00  0.00    +0.000 NA
ATOM     31  N   UNL     1       2.263   3.063  21.943  0.00  0.00    +0.000 N 
ATOM     32  H   UNL     1       0.148   3.167  19.619  0.00  0.00    +0.000 HD
ATOM     33  H   UNL     1       3.140   2.566  22.036  0.00  0.00    +0.000 HD
ATOM     34  H   UNL     1       1.558   2.732  22.595  0.00  0.00    +0.000 HD
ENDBRANCH  26  29
ENDBRANCH  22  23
ENDBRANCH  21  22
ENDBRANCH  18  21
ENDBRANCH   1  18
TORSDOF 11
ENDMDL
MODEL 5
REMARK VINA RESULT:      -7.3      0.810      5.137
REMARK  Name = 
REMARK  11 active torsions:
REMARK  status: ('A' for Active; 'I' for Inactive)
REMARK    1  A    between atoms: C_2  and  C_4
REMARK    2  A    between atoms: C_7  and  O_8
REMARK    3  A    between atoms: O_8  and  C_9
REMARK    4  A    between atoms: C_9  and  C_10
REMARK    5  A    between atoms: C_10  and  O_11
REMARK    6  A    between atoms: C_10  and  C_12
REMARK    7  A    between atoms: C_12  and  O_13
REMARK    8  A    between atoms: C_12  and  C_14
REMARK    9  A    between atoms: C_14  and  O_15
REMARK   10  A    between atoms: O_15  and  C_16
REMARK   11  A    between atoms: C_19  and  C_20
REMARK                            x       y       z     vdW  Elec       q    Type
REMARK                         _______ _______ _______ _____ _____    ______ ____
ROOT
ATOM      1  C   UNL     1       1.752   1.895  19.706  0.00  0.00    +0.000 C 
ENDROOT
BRANCH   1   2
ATOM      2  O   UNL     1       0.782   2.368  18.763  0.00  0.00    +0.000 OA
ATOM      3  H   UNL     1       0.171   1.637  18.557  0.00  0.00    +0.000 HD
ENDBRANCH   1   2
BRANCH   1   4
ATOM      4  C   UNL     1       3.074   1.524  19.005  0.00  0.00    +0.000 C 
BRANCH   4   5
ATOM      5  O   UNL     1       4.133   2.348  19.516  0.00  0.00    +0.000 OA
BRANCH   5   9
ATOM      6  C   UNL     1       5.422   5.581  17.213  0.00  0.00    +0.000 A 
ATOM      7  C   UNL     1       5.784   5.448  18.556  0.00  0.00    +0.000 A 
ATOM      8  C   UNL     1       5.327   4.353  19.298  0.00  0.00    +0.000 A 
ATOM      9  C   UNL     1       4.506   3.391  18.707  0.00  0.00    +0.000 A 
ATOM     10  C   UNL     1       4.167   3.512  17.357  0.00  0.00    +0.000 A 
ATOM     11  C   UNL     1       4.621   4.606  16.613  0.00  0.00    +0.000 A 
BRANCH   6  13
ATOM     12  N   UNL     1       5.246   7.111  15.365  0.00  0.00    +0.000 NA
ATOM     13  C   UNL     1       5.901   6.744  16.416  0.00  0.00    +0.000 C 
ATOM     14  N   UNL     1       7.032   7.411  16.792  0.00  0.00    +0.000 N 
ATOM     15  H   UNL     1       5.674   7.948  14.966  0.00  0.00    +0.000 HD
ATOM     16  H   UNL     1       7.482   7.952  16.063  0.00  0.00    +0.000 HD
ATOM     17  H   UNL     1       7.707   6.865  17.318  0.00  0.00    +0.000 HD
ENDBRANCH   6  13
ENDBRANCH   5   9
ENDBRANCH   4   5
ENDBRANCH   1   4
BRANCH   1  18
ATOM     18  C   UNL     1       1.991   2.967  20.789  0.00  0.00    +0.000 C 
BRANCH  18  19
ATOM     19  O   UNL     1       1.492   2.497  22.047  0.00  0.00    +0.000 OA
ATOM     20  H   UNL     1       0.582   2.180  21.911  0.00  0.00    +0.000 HD
ENDBRANCH  18  19
BRANCH  18  21
ATOM     21  C   UNL     1       1.355   4.319  20.409  0.00  0.00    +0.000 C 
BRANCH  21  22
ATOM     22  O   UNL     1       2.228   5.384  20.819  0.00  0.00    +0.000 OA
BRANCH  22  23
ATOM     23  C   UNL     1       1.963   6.611  20.274  0.00  0.00    +0.000 A 
ATOM     24  C   UNL     1       2.356   6.783  18.947  0.00  0.00    +0.000 A 
ATOM     25  C   UNL     1       2.133   8.000  18.286  0.00  0.00    +0.000 A 
ATOM     26  C   UNL     1       1.486   9.048  18.956  0.00  0.00    +0.000 A 
ATOM     27  C   UNL     1       1.073   8.865  20.277  0.00  0.00    +0.000 A 
ATOM     28  C   UNL     1       1.305   7.652  20.932  0.00  0.00    +0.000 A 
BRANCH  26  29
ATOM     29  C   UNL     1       1.251  10.349  18.268  0.00  0.00    +0.000 C 
ATOM     30  N   UNL     1       0.078  10.735  17.875  0.00  0.00    +0.000 NA
ATOM     31  N   UNL     1       2.279  11.212  18.043  0.00  0.00    +0.000 N 
ATOM     32  H   UNL     1      -0.630  10.018  18.040  0.00  0.00    +0.000 HD
ATOM     33  H   UNL     1       2.990  11.257  18.763  0.00  0.00    +0.000 HD
ATOM     34  H   UNL     1       1.923  12.130  17.792  0.00  0.00    +0.000 HD
ENDBRANCH  26  29
ENDBRANCH  22  23
ENDBRANCH  21  22
ENDBRANCH  18  21
ENDBRANCH   1  18
TORSDOF 11
ENDMDL
MODEL 6
REMARK VINA RESULT:      -7.2      2.838      7.360
REMARK  Name = 
REMARK  11 active torsions:
REMARK  status: ('A' for Active; 'I' for Inactive)
REMARK    1  A    between atoms: C_2  and  C_4
REMARK    2  A    between atoms: C_7  and  O_8
REMARK    3  A    between atoms: O_8  and  C_9
REMARK    4  A    between atoms: C_9  and  C_10
REMARK    5  A    between atoms: C_10  and  O_11
REMARK    6  A    between atoms: C_10  and  C_12
REMARK    7  A    between atoms: C_12  and  O_13
REMARK    8  A    between atoms: C_12  and  C_14
REMARK    9  A    between atoms: C_14  and  O_15
REMARK   10  A    between atoms: O_15  and  C_16
REMARK   11  A    between atoms: C_19  and  C_20
REMARK                            x       y       z     vdW  Elec       q    Type
REMARK                         _______ _______ _______ _____ _____    ______ ____
ROOT
ATOM      1  C   UNL     1       6.535   6.285  18.243  0.00  0.00    +0.000 C 
ENDROOT
BRANCH   1   2
ATOM      2  O   UNL     1       7.907   5.942  18.481  0.00  0.00    +0.000 OA
ATOM      3  H   UNL     1       8.348   6.707  18.892  0.00  0.00    +0.000 HD
ENDBRANCH   1   2
BRANCH   1   4
ATOM      4  C   UNL     1       6.264   6.482  16.738  0.00  0.00    +0.000 C 
BRANCH   4   5
ATOM      5  O   UNL     1       7.324   5.881  15.980  0.00  0.00    +0.000 OA
BRANCH   5   9
ATOM      6  C   UNL     1       5.893   3.523  12.846  0.00  0.00    +0.000 A 
ATOM      7  C   UNL     1       5.218   3.606  14.068  0.00  0.00    +0.000 A 
ATOM      8  C   UNL     1       5.733   4.402  15.097  0.00  0.00    +0.000 A 
ATOM      9  C   UNL     1       6.920   5.115  14.916  0.00  0.00    +0.000 A 
ATOM     10  C   UNL     1       7.577   5.051  13.685  0.00  0.00    +0.000 A 
ATOM     11  C   UNL     1       7.068   4.255  12.654  0.00  0.00    +0.000 A 
BRANCH   6  13
ATOM     12  N   UNL     1       4.229   2.985  11.196  0.00  0.00    +0.000 NA
ATOM     13  C   UNL     1       5.355   2.676  11.747  0.00  0.00    +0.000 C 
ATOM     14  N   UNL     1       6.047   1.573  11.333  0.00  0.00    +0.000 N 
ATOM     15  H   UNL     1       4.029   2.337  10.431  0.00  0.00    +0.000 HD
ATOM     16  H   UNL     1       5.501   0.875  10.842  0.00  0.00    +0.000 HD
ATOM     17  H   UNL     1       6.649   1.149  12.030  0.00  0.00    +0.000 HD
ENDBRANCH   6  13
ENDBRANCH   5   9
ENDBRANCH   4   5
ENDBRANCH   1   4
BRANCH   1  18
ATOM     18  C   UNL     1       5.617   5.189  18.824  0.00  0.00    +0.000 C 
BRANCH  18  19
ATOM     19  O   UNL     1       6.227   3.906  18.643  0.00  0.00    +0.000 OA
ATOM     20  H   UNL     1       6.193   3.686  17.696  0.00  0.00    +0.000 HD
ENDBRANCH  18  19
BRANCH  18  21
ATOM     21  C   UNL     1       4.210   5.228  18.197  0.00  0.00    +0.000 C 
BRANCH  21  22
ATOM     22  O   UNL     1       3.234   5.407  19.236  0.00  0.00    +0.000 OA
BRANCH  22  23
ATOM     23  C   UNL     1       2.634   6.636  19.281  0.00  0.00    +0.000 A 
ATOM     24  C   UNL     1       2.631   7.354  18.085  0.00  0.00    +0.000 A 
ATOM     25  C   UNL     1       2.042   8.625  18.013  0.00  0.00    +0.000 A 
ATOM     26  C   UNL     1       1.428   9.173  19.148  0.00  0.00    +0.000 A 
ATOM     27  C   UNL     1       1.411   8.442  20.338  0.00  0.00    +0.000 A 
ATOM     28  C   UNL     1       2.007   7.179  20.404  0.00  0.00    +0.000 A 
BRANCH  26  29
ATOM     29  C   UNL     1       0.807  10.527  19.089  0.00  0.00    +0.000 C 
ATOM     30  N   UNL     1       0.200  10.976  18.036  0.00  0.00    +0.000 NA
ATOM     31  N   UNL     1       0.833  11.351  20.170  0.00  0.00    +0.000 N 
ATOM     32  H   UNL     1       0.262  10.319  17.256  0.00  0.00    +0.000 HD
ATOM     33  H   UNL     1       0.744  10.904  21.074  0.00  0.00    +0.000 HD
ATOM     34  H   UNL     1       0.174  12.115  20.050  0.00  0.00    +0.000 HD
ENDBRANCH  26  29
ENDBRANCH  22  23
ENDBRANCH  21  22
ENDBRANCH  18  21
ENDBRANCH   1  18
TORSDOF 11
ENDMDL
MODEL 7
REMARK VINA RESULT:      -7.2      3.226      4.775
REMARK  Name = 
REMARK  11 active torsions:
REMARK  status: ('A' for Active; 'I' for Inactive)
REMARK    1  A    between atoms: C_2  and  C_4
REMARK    2  A    between atoms: C_7  and  O_8
REMARK    3  A    between atoms: O_8  and  C_9
REMARK    4  A    between atoms: C_9  and  C_10
REMARK    5  A    between atoms: C_10  and  O_11
REMARK    6  A    between atoms: C_10  and  C_12
REMARK    7  A    between atoms: C_12  and  O_13
REMARK    8  A    between atoms: C_12  and  C_14
REMARK    9  A    between atoms: C_14  and  O_15
REMARK   10  A    between atoms: O_15  and  C_16
REMARK   11  A    between atoms: C_19  and  C_20
REMARK                            x       y       z     vdW  Elec       q    Type
REMARK                         _______ _______ _______ _____ _____    ______ ____
ROOT
ATOM      1  C   UNL     1       5.914   6.737  17.284  0.00  0.00    +0.000 C 
ENDROOT
BRANCH   1   2
ATOM      2  O   UNL     1       6.754   7.881  17.084  0.00  0.00    +0.000 OA
ATOM      3  H   UNL     1       7.489   7.625  16.499  0.00  0.00    +0.000 HD
ENDBRANCH   1   2
BRANCH   1   4
ATOM      4  C   UNL     1       4.465   7.027  16.844  0.00  0.00    +0.000 C 
BRANCH   4   5
ATOM      5  O   UNL     1       3.556   6.533  17.839  0.00  0.00    +0.000 OA
BRANCH   5   9
ATOM      6  C   UNL     1       1.135   9.314  19.796  0.00  0.00    +0.000 A 
ATOM      7  C   UNL     1       1.552   8.135  20.423  0.00  0.00    +0.000 A 
ATOM      8  C   UNL     1       2.358   7.224  19.731  0.00  0.00    +0.000 A 
ATOM      9  C   UNL     1       2.749   7.480  18.415  0.00  0.00    +0.000 A 
ATOM     10  C   UNL     1       2.353   8.671  17.801  0.00  0.00    +0.000 A 
ATOM     11  C   UNL     1       1.546   9.583  18.488  0.00  0.00    +0.000 A 
BRANCH   6  13
ATOM     12  N   UNL     1       0.692  10.807  21.628  0.00  0.00    +0.000 NA
ATOM     13  C   UNL     1       0.275  10.287  20.522  0.00  0.00    +0.000 C 
ATOM     14  N   UNL     1      -0.954  10.619  20.024  0.00  0.00    +0.000 N 
ATOM     15  H   UNL     1       0.010  11.487  21.969  0.00  0.00    +0.000 HD
ATOM     16  H   UNL     1      -1.608  11.003  20.696  0.00  0.00    +0.000 HD
ATOM     17  H   UNL     1      -1.393   9.914  19.441  0.00  0.00    +0.000 HD
ENDBRANCH   6  13
ENDBRANCH   5   9
ENDBRANCH   4   5
ENDBRANCH   1   4
BRANCH   1  18
ATOM     18  C   UNL     1       6.487   5.529  16.514  0.00  0.00    +0.000 C 
BRANCH  18  19
ATOM     19  O   UNL     1       7.586   5.957  15.700  0.00  0.00    +0.000 OA
ATOM     20  H   UNL     1       7.945   6.776  16.085  0.00  0.00    +0.000 HD
ENDBRANCH  18  19
BRANCH  18  21
ATOM     21  C   UNL     1       5.410   4.824  15.667  0.00  0.00    +0.000 C 
BRANCH  21  22
ATOM     22  O   UNL     1       5.189   3.503  16.186  0.00  0.00    +0.000 OA
BRANCH  22  23
ATOM     23  C   UNL     1       4.415   3.430  17.312  0.00  0.00    +0.000 A 
ATOM     24  C   UNL     1       3.039   3.356  17.099  0.00  0.00    +0.000 A 
ATOM     25  C   UNL     1       2.149   3.276  18.180  0.00  0.00    +0.000 A 
ATOM     26  C   UNL     1       2.647   3.246  19.491  0.00  0.00    +0.000 A 
ATOM     27  C   UNL     1       4.026   3.297  19.701  0.00  0.00    +0.000 A 
ATOM     28  C   UNL     1       4.907   3.384  18.619  0.00  0.00    +0.000 A 
BRANCH  26  29
ATOM     29  C   UNL     1       1.712   3.170  20.649  0.00  0.00    +0.000 C 
ATOM     30  N   UNL     1       0.426   3.101  20.512  0.00  0.00    +0.000 NA
ATOM     31  N   UNL     1       2.186   3.147  21.924  0.00  0.00    +0.000 N 
ATOM     32  H   UNL     1       0.147   3.168  19.531  0.00  0.00    +0.000 HD
ATOM     33  H   UNL     1       3.052   2.643  22.069  0.00  0.00    +0.000 HD
ATOM     34  H   UNL     1       1.457   2.856  22.569  0.00  0.00    +0.000 HD
ENDBRANCH  26  29
ENDBRANCH  22  23
ENDBRANCH  21  22
ENDBRANCH  18  21
ENDBRANCH   1  18
TORSDOF 11
ENDMDL
MODEL 8
REMARK VINA RESULT:      -7.1      1.084      1.816
REMARK  Name = 
REMARK  11 active torsions:
REMARK  status: ('A' for Active; 'I' for Inactive)
REMARK    1  A    between atoms: C_2  and  C_4
REMARK    2  A    between atoms: C_7  and  O_8
REMARK    3  A    between atoms: O_8  and  C_9
REMARK    4  A    between atoms: C_9  and  C_10
REMARK    5  A    between atoms: C_10  and  O_11
REMARK    6  A    between atoms: C_10  and  C_12
REMARK    7  A    between atoms: C_12  and  O_13
REMARK    8  A    between atoms: C_12  and  C_14
REMARK    9  A    between atoms: C_14  and  O_15
REMARK   10  A    between atoms: O_15  and  C_16
REMARK   11  A    between atoms: C_19  and  C_20
REMARK                            x       y       z     vdW  Elec       q    Type
REMARK                         _______ _______ _______ _____ _____    ______ ____
ROOT
ATOM      1  C   UNL     1       1.518   4.467  20.866  0.00  0.00    +0.000 C 
ENDROOT
BRANCH   1   2
ATOM      2  O   UNL     1       2.606   4.864  21.710  0.00  0.00    +0.000 OA
ATOM      3  H   UNL     1       3.441   4.613  21.275  0.00  0.00    +0.000 HD
ENDBRANCH   1   2
BRANCH   1   4
ATOM      4  C   UNL     1       1.624   5.124  19.475  0.00  0.00    +0.000 C 
BRANCH   4   5
ATOM      5  O   UNL     1       2.603   6.173  19.516  0.00  0.00    +0.000 OA
BRANCH   5   9
ATOM      6  C   UNL     1       1.127  10.034  18.937  0.00  0.00    +0.000 A 
ATOM      7  C   UNL     1       1.048   9.398  20.180  0.00  0.00    +0.000 A 
ATOM      8  C   UNL     1       1.548   8.100  20.333  0.00  0.00    +0.000 A 
ATOM      9  C   UNL     1       2.124   7.431  19.252  0.00  0.00    +0.000 A 
ATOM     10  C   UNL     1       2.226   8.078  18.019  0.00  0.00    +0.000 A 
ATOM     11  C   UNL     1       1.726   9.375  17.860  0.00  0.00    +0.000 A 
BRANCH   6  13
ATOM     12  N   UNL     1       1.358  12.336  18.282  0.00  0.00    +0.000 NA
ATOM     13  C   UNL     1       0.594  11.413  18.763  0.00  0.00    +0.000 C 
ATOM     14  N   UNL     1      -0.693  11.699  19.122  0.00  0.00    +0.000 N 
ATOM     15  H   UNL     1       0.829  13.204  18.180  0.00  0.00    +0.000 HD
ATOM     16  H   UNL     1      -0.890  12.678  19.294  0.00  0.00    +0.000 HD
ATOM     17  H   UNL     1      -1.085  11.109  19.848  0.00  0.00    +0.000 HD
ENDBRANCH   6  13
ENDBRANCH   5   9
ENDBRANCH   4   5
ENDBRANCH   1   4
BRANCH   1  18
ATOM     18  C   UNL     1       1.490   2.929  20.742  0.00  0.00    +0.000 C 
BRANCH  18  19
ATOM     19  O   UNL     1       2.319   2.351  21.758  0.00  0.00    +0.000 OA
ATOM     20  H   UNL     1       1.960   2.612  22.624  0.00  0.00    +0.000 HD
ENDBRANCH  18  19
BRANCH  18  21
ATOM     21  C   UNL     1       1.921   2.458  19.339  0.00  0.00    +0.000 C 
BRANCH  21  22
ATOM     22  O   UNL     1       3.334   2.198  19.341  0.00  0.00    +0.000 OA
BRANCH  22  23
ATOM     23  C   UNL     1       4.094   3.042  18.578  0.00  0.00    +0.000 A 
ATOM     24  C   UNL     1       5.075   3.761  19.261  0.00  0.00    +0.000 A 
ATOM     25  C   UNL     1       5.914   4.655  18.580  0.00  0.00    +0.000 A 
ATOM     26  C   UNL     1       5.783   4.812  17.192  0.00  0.00    +0.000 A 
ATOM     27  C   UNL     1       4.816   4.074  16.507  0.00  0.00    +0.000 A 
ATOM     28  C   UNL     1       3.978   3.190  17.194  0.00  0.00    +0.000 A 
BRANCH  26  29
ATOM     29  C   UNL     1       6.662   5.766  16.457  0.00  0.00    +0.000 C 
ATOM     30  N   UNL     1       7.374   5.418  15.432  0.00  0.00    +0.000 NA
ATOM     31  N   UNL     1       6.732   7.072  16.828  0.00  0.00    +0.000 N 
ATOM     32  H   UNL     1       7.301   4.417  15.244  0.00  0.00    +0.000 HD
ATOM     33  H   UNL     1       5.871   7.489  17.160  0.00  0.00    +0.000 HD
ATOM     34  H   UNL     1       7.173   7.625  16.098  0.00  0.00    +0.000 HD
ENDBRANCH  26  29
ENDBRANCH  22  23
ENDBRANCH  21  22
ENDBRANCH  18  21
ENDBRANCH   1  18
TORSDOF 11
ENDMDL
MODEL 9
REMARK VINA RESULT:      -7.1      3.189      4.754
REMARK  Name = 
REMARK  11 active torsions:
REMARK  status: ('A' for Active; 'I' for Inactive)
REMARK    1  A    between atoms: C_2  and  C_4
REMARK    2  A    between atoms: C_7  and  O_8
REMARK    3  A    between atoms: O_8  and  C_9
REMARK    4  A    between atoms: C_9  and  C_10
REMARK    5  A    between atoms: C_10  and  O_11
REMARK    6  A    between atoms: C_10  and  C_12
REMARK    7  A    between atoms: C_12  and  O_13
REMARK    8  A    between atoms: C_12  and  C_14
REMARK    9  A    between atoms: C_14  and  O_15
REMARK   10  A    between atoms: O_15  and  C_16
REMARK   11  A    between atoms: C_19  and  C_20
REMARK                            x       y       z     vdW  Elec       q    Type
REMARK                         _______ _______ _______ _____ _____    ______ ____
ROOT
ATOM      1  C   UNL     1       5.999   6.732  17.162  0.00  0.00    +0.000 C 
ENDROOT
BRANCH   1   2
ATOM      2  O   UNL     1       6.883   7.860  17.185  0.00  0.00    +0.000 OA
ATOM      3  H   UNL     1       6.366   8.660  16.980  0.00  0.00    +0.000 HD
ENDBRANCH   1   2
BRANCH   1   4
ATOM      4  C   UNL     1       4.541   7.172  16.924  0.00  0.00    +0.000 C 
BRANCH   4   5
ATOM      5  O   UNL     1       3.714   6.681  17.989  0.00  0.00    +0.000 OA
BRANCH   5   9
ATOM      6  C   UNL     1       0.894   9.290  19.624  0.00  0.00    +0.000 A 
ATOM      7  C   UNL     1       1.405   8.212  20.353  0.00  0.00    +0.000 A 
ATOM      8  C   UNL     1       2.345   7.356  19.768  0.00  0.00    +0.000 A 
ATOM      9  C   UNL     1       2.775   7.566  18.457  0.00  0.00    +0.000 A 
ATOM     10  C   UNL     1       2.283   8.658  17.739  0.00  0.00    +0.000 A 
ATOM     11  C   UNL     1       1.343   9.516  18.319  0.00  0.00    +0.000 A 
BRANCH   6  13
ATOM     12  N   UNL     1      -1.125  10.593  19.541  0.00  0.00    +0.000 NA
ATOM     13  C   UNL     1      -0.108  10.204  20.236  0.00  0.00    +0.000 C 
ATOM     14  N   UNL     1       0.056  10.637  21.521  0.00  0.00    +0.000 N 
ATOM     15  H   UNL     1      -1.738  11.171  20.119  0.00  0.00    +0.000 HD
ATOM     16  H   UNL     1      -0.445  11.484  21.764  0.00  0.00    +0.000 HD
ATOM     17  H   UNL     1       1.014  10.665  21.853  0.00  0.00    +0.000 HD
ENDBRANCH   6  13
ENDBRANCH   5   9
ENDBRANCH   4   5
ENDBRANCH   1   4
BRANCH   1  18
ATOM     18  C   UNL     1       6.453   5.737  16.073  0.00  0.00    +0.000 C 
BRANCH  18  19
ATOM     19  O   UNL     1       5.584   5.838  14.938  0.00  0.00    +0.000 OA
ATOM     20  H   UNL     1       5.114   4.992  14.842  0.00  0.00    +0.000 HD
ENDBRANCH  18  19
BRANCH  18  21
ATOM     21  C   UNL     1       6.507   4.291  16.603  0.00  0.00    +0.000 C 
BRANCH  21  22
ATOM     22  O   UNL     1       5.286   3.616  16.262  0.00  0.00    +0.000 OA
BRANCH  22  23
ATOM     23  C   UNL     1       4.361   3.518  17.266  0.00  0.00    +0.000 A 
ATOM     24  C   UNL     1       4.876   3.455  18.561  0.00  0.00    +0.000 A 
ATOM     25  C   UNL     1       4.022   3.355  19.669  0.00  0.00    +0.000 A 
ATOM     26  C   UNL     1       2.633   3.341  19.477  0.00  0.00    +0.000 A 
ATOM     27  C   UNL     1       2.119   3.428  18.181  0.00  0.00    +0.000 A 
ATOM     28  C   UNL     1       2.977   3.520  17.082  0.00  0.00    +0.000 A 
BRANCH  26  29
ATOM     29  C   UNL     1       1.713   3.225  20.644  0.00  0.00    +0.000 C 
ATOM     30  N   UNL     1       0.423   3.249  20.528  0.00  0.00    +0.000 NA
ATOM     31  N   UNL     1       2.204   3.063  21.902  0.00  0.00    +0.000 N 
ATOM     32  H   UNL     1       0.134   3.417  19.563  0.00  0.00    +0.000 HD
ATOM     33  H   UNL     1       3.038   2.495  21.986  0.00  0.00    +0.000 HD
ATOM     34  H   UNL     1       1.467   2.764  22.535  0.00  0.00    +0.000 HD
ENDBRANCH  26  29
ENDBRANCH  22  23
ENDBRANCH  21  22
ENDBRANCH  18  21
ENDBRANCH   1  18
TORSDOF 11
ENDMDL
