MODEL 1
REMARK VINA RESULT:      -7.4      0.000      0.000
REMARK  Name = 
REMARK  9 active torsions:
REMARK  status: ('A' for Active; 'I' for Inactive)
REMARK    1  A    between atoms: C_2  and  O_3
REMARK    2  A    between atoms: C_2  and  C_4
REMARK    3  A    between atoms: C_4  and  C_5
REMARK    4  A    between atoms: C_5  and  C_6
REMARK    5  A    between atoms: C_6  and  O_7
REMARK    6  A    between atoms: C_6  and  C_8
REMARK    7  A    between atoms: C_11  and  O_12
REMARK    8  A    between atoms: O_12  and  C_13
REMARK    9  A    between atoms: C_13  and  C_14
REMARK                            x       y       z     vdW  Elec       q    Type
REMARK                         _______ _______ _______ _____ _____    ______ ____
ROOT
ATOM      1  C   UNL     1       6.100   4.698  16.052  0.00  0.00    +0.000 A 
ATOM      2  C   UNL     1       6.795   5.523  16.950  0.00  0.00    +0.000 A 
ATOM      3  C   UNL     1       6.241   5.873  18.181  0.00  0.00    +0.000 A 
ATOM      4  C   UNL     1       4.964   5.434  18.526  0.00  0.00    +0.000 A 
ATOM      5  C   UNL     1       4.279   4.580  17.662  0.00  0.00    +0.000 A 
ATOM      6  C   UNL     1       4.838   4.217  16.430  0.00  0.00    +0.000 A 
ENDROOT
BRANCH   1   7
ATOM      7  C   UNL     1       6.752   4.344  14.733  0.00  0.00    +0.000 C 
BRANCH   7   8
ATOM      8  O   UNL     1       7.589   5.397  14.250  0.00  0.00    +0.000 OA
ATOM      9  H   UNL     1       7.138   5.807  13.491  0.00  0.00    +0.000 HD
ENDBRANCH   7   8
BRANCH   7  10
ATOM     10  C   UNL     1       5.735   3.997  13.641  0.00  0.00    +0.000 C 
BRANCH  10  11
ATOM     11  C   UNL     1       6.394   3.482  12.364  0.00  0.00    +0.000 C 
BRANCH  11  13
ATOM     12  O   UNL     1       4.371   2.785  11.253  0.00  0.00    +0.000 OA
ATOM     13  C   UNL     1       5.497   2.514  11.634  0.00  0.00    +0.000 C 
BRANCH  13  14
ATOM     14  O   UNL     1       6.047   1.288  11.483  0.00  0.00    +0.000 OA
ATOM     15  H   UNL     1       7.024   1.284  11.551  0.00  0.00    +0.000 HD
ENDBRANCH  13  14
ENDBRANCH  11  13
ENDBRANCH  10  11
ENDBRANCH   7  10
ENDBRANCH   1   7
BRANCH   4  16
ATOM     16  O   UNL     1       4.301   5.781  19.673  0.00  0.00    +0.000 OA
BRANCH  16  17
ATOM     17  C   UNL     1       2.874   5.730  19.578  0.00  0.00    +0.000 C 
BRANCH  17  18
ATOM     18  C   UNL     1       2.291   7.109  19.372  0.00  0.00    +0.000 A 
ATOM     19  C   UNL     1       2.330   7.751  18.127  0.00  0.00    +0.000 A 
ATOM     20  C   UNL     1       1.768   9.018  17.968  0.00  0.00    +0.000 A 
ATOM     21  C   UNL     1       1.156   9.640  19.052  0.00  0.00    +0.000 A 
ATOM     22  F   UNL     1       0.623  10.860  18.899  0.00  0.00    +0.000 F 
ATOM     23  C   UNL     1       1.087   9.013  20.288  0.00  0.00    +0.000 A 
ATOM     24  C   UNL     1       1.645   7.748  20.448  0.00  0.00    +0.000 A 
ENDBRANCH  17  18
ENDBRANCH  16  17
ENDBRANCH   4  16
TORSDOF 9
ENDMDL
MODEL 2
REMARK VINA RESULT:      -7.3      2.547      3.418
REMARK  Name = 
REMARK  9 active torsions:
REMARK  status: ('A' for Active; 'I' for Inactive)
REMARK    1  A    between atoms: C_2  and  O_3
REMARK    2  A    between atoms: C_2  and  C_4
REMARK    3  A    between atoms: C_4  and  C_5
REMARK    4  A    between atoms: C_5  and  C_6
REMARK    5  A    between atoms: C_6  and  O_7
REMARK    6  A    between atoms: C_6  and  C_8
REMARK    7  A    between atoms: C_11  and  O_12
REMARK    8  A    between atoms: O_12  and  C_13
REMARK    9  A    between atoms: C_13  and  C_14
REMARK                            x       y       z     vdW  Elec       q    Type
REMARK                         _______ _______ _______ _____ _____    ______ ____
ROOT
ATOM      1  C   UNL     1       6.331   5.042  15.578  0.00  0.00    +0.000 A 
ATOM      2  C   UNL     1       6.626   4.356  16.765  0.00  0.00    +0.000 A 
ATOM      3  C   UNL     1       6.034   4.722  17.973  0.00  0.00    +0.000 A 
ATOM      4  C   UNL     1       5.160   5.806  18.026  0.00  0.00    +0.000 A 
ATOM      5  C   UNL     1       4.826   6.471  16.847  0.00  0.00    +0.000 A 
ATOM      6  C   UNL     1       5.409   6.098  15.630  0.00  0.00    +0.000 A 
ENDROOT
BRANCH   1   7
ATOM      7  C   UNL     1       6.996   4.598  14.293  0.00  0.00    +0.000 C 
BRANCH   7   8
ATOM      8  O   UNL     1       7.780   5.641  13.708  0.00  0.00    +0.000 OA
ATOM      9  H   UNL     1       7.425   6.489  14.027  0.00  0.00    +0.000 HD
ENDBRANCH   7   8
BRANCH   7  10
ATOM     10  C   UNL     1       5.996   4.101  13.245  0.00  0.00    +0.000 C 
BRANCH  10  11
ATOM     11  C   UNL     1       6.643   3.208  12.189  0.00  0.00    +0.000 C 
BRANCH  11  13
ATOM     12  O   UNL     1       4.524   2.663  11.176  0.00  0.00    +0.000 OA
ATOM     13  C   UNL     1       5.628   2.298  11.542  0.00  0.00    +0.000 C 
BRANCH  13  14
ATOM     14  O   UNL     1       6.045   1.016  11.450  0.00  0.00    +0.000 OA
ATOM     15  H   UNL     1       5.482   0.460  10.872  0.00  0.00    +0.000 HD
ENDBRANCH  13  14
ENDBRANCH  11  13
ENDBRANCH  10  11
ENDBRANCH   7  10
ENDBRANCH   1   7
BRANCH   4  16
ATOM     16  O   UNL     1       4.586   6.293  19.170  0.00  0.00    +0.000 OA
BRANCH  16  17
ATOM     17  C   UNL     1       3.173   6.503  19.089  0.00  0.00    +0.000 C 
BRANCH  17  18
ATOM     18  C   UNL     1       2.427   5.189  19.042  0.00  0.00    +0.000 A 
ATOM     19  C   UNL     1       2.270   4.386  20.179  0.00  0.00    +0.000 A 
ATOM     20  C   UNL     1       1.562   3.186  20.103  0.00  0.00    +0.000 A 
ATOM     21  C   UNL     1       1.000   2.795  18.892  0.00  0.00    +0.000 A 
ATOM     22  F   UNL     1       0.327   1.638  18.819  0.00  0.00    +0.000 F 
ATOM     23  C   UNL     1       1.125   3.585  17.759  0.00  0.00    +0.000 A 
ATOM     24  C   UNL     1       1.830   4.784  17.833  0.00  0.00    +0.000 A 
ENDBRANCH  17  18
ENDBRANCH  16  17
ENDBRANCH   4  16
TORSDOF 9
ENDMDL
MODEL 3
REMARK VINA RESULT:      -7.3      4.946      7.181
REMARK  Name = 
REMARK  9 active torsions:
REMARK  status: ('A' for Active; 'I' for Inactive)
REMARK    1  A    between atoms: C_2  and  O_3
REMARK    2  A    between atoms: C_2  and  C_4
REMARK    3  A    between atoms: C_4  and  C_5
REMARK    4  A    between atoms: C_5  and  C_6
REMARK    5  A    between atoms: C_6  and  O_7
REMARK    6  A    between atoms: C_6  and  C_8
REMARK    7  A    between atoms: C_11  and  O_12
REMARK    8  A    between atoms: O_12  and  C_13
REMARK    9  A    between atoms: C_13  and  C_14
REMARK                            x       y       z     vdW  Elec       q    Type
REMARK                         _______ _______ _______ _____ _____    ______ ____
ROOT
ATOM      1  C   UNL     1       5.566   5.295  18.606  0.00  0.00    +0.000 A 
ATOM      2  C   UNL     1       5.265   6.234  17.608  0.00  0.00    +0.000 A 
ATOM      3  C   UNL     1       6.197   7.198  17.223  0.00  0.00    +0.000 A 
ATOM      4  C   UNL     1       7.437   7.265  17.854  0.00  0.00    +0.000 A 
ATOM      5  C   UNL     1       7.765   6.313  18.819  0.00  0.00    +0.000 A 
ATOM      6  C   UNL     1       6.837   5.336  19.198  0.00  0.00    +0.000 A 
ENDROOT
BRANCH   1   7
ATOM      7  C   UNL     1       4.520   4.266  18.979  0.00  0.00    +0.000 C 
BRANCH   7   8
ATOM      8  O   UNL     1       5.098   2.982  19.228  0.00  0.00    +0.000 OA
ATOM      9  H   UNL     1       4.370   2.362  19.408  0.00  0.00    +0.000 HD
ENDBRANCH   7   8
BRANCH   7  10
ATOM     10  C   UNL     1       3.433   4.107  17.912  0.00  0.00    +0.000 C 
BRANCH  10  11
ATOM     11  C   UNL     1       2.040   4.453  18.433  0.00  0.00    +0.000 C 
BRANCH  11  13
ATOM     12  O   UNL     1       1.577   2.122  18.834  0.00  0.00    +0.000 OA
ATOM     13  C   UNL     1       1.419   3.286  19.159  0.00  0.00    +0.000 C 
BRANCH  13  14
ATOM     14  O   UNL     1       0.623   3.660  20.185  0.00  0.00    +0.000 OA
ATOM     15  H   UNL     1       0.912   3.313  21.054  0.00  0.00    +0.000 HD
ENDBRANCH  13  14
ENDBRANCH  11  13
ENDBRANCH  10  11
ENDBRANCH   7  10
ENDBRANCH   1   7
BRANCH   4  16
ATOM     16  O   UNL     1       8.391   8.216  17.605  0.00  0.00    +0.000 OA
BRANCH  16  17
ATOM     17  C   UNL     1       7.984   9.560  17.882  0.00  0.00    +0.000 C 
BRANCH  17  18
ATOM     18  C   UNL     1       9.122  10.367  18.461  0.00  0.00    +0.000 A 
ATOM     19  C   UNL     1      10.046  11.036  17.646  0.00  0.00    +0.000 A 
ATOM     20  C   UNL     1      11.076  11.786  18.215  0.00  0.00    +0.000 A 
ATOM     21  C   UNL     1      11.176  11.878  19.599  0.00  0.00    +0.000 A 
ATOM     22  F   UNL     1      12.171  12.592  20.144  0.00  0.00    +0.000 F 
ATOM     23  C   UNL     1      10.260  11.242  20.425  0.00  0.00    +0.000 A 
ATOM     24  C   UNL     1       9.230  10.495  19.859  0.00  0.00    +0.000 A 
ENDBRANCH  17  18
ENDBRANCH  16  17
ENDBRANCH   4  16
TORSDOF 9
ENDMDL
MODEL 4
REMARK VINA RESULT:      -7.1      2.858      3.681
REMARK  Name = 
REMARK  9 active torsions:
REMARK  status: ('A' for Active; 'I' for Inactive)
REMARK    1  A    between atoms: C_2  and  O_3
REMARK    2  A    between atoms: C_2  and  C_4
REMARK    3  A    between atoms: C_4  and  C_5
REMARK    4  A    between atoms: C_5  and  C_6
REMARK    5  A    between atoms: C_6  and  O_7
REMARK    6  A    between atoms: C_6  and  C_8
REMARK    7  A    between atoms: C_11  and  O_12
REMARK    8  A    between atoms: O_12  and  C_13
REMARK    9  A    between atoms: C_13  and  C_14
REMARK                            x       y       z     vdW  Elec       q    Type
REMARK                         _______ _______ _______ _____ _____    ______ ____
ROOT
ATOM      1  C   UNL     1       5.954   4.325  14.340  0.00  0.00    +0.000 A 
ATOM      2  C   UNL     1       5.669   3.437  15.389  0.00  0.00    +0.000 A 
ATOM      3  C   UNL     1       5.115   3.892  16.585  0.00  0.00    +0.000 A 
ATOM      4  C   UNL     1       4.866   5.250  16.771  0.00  0.00    +0.000 A 
ATOM      5  C   UNL     1       5.106   6.138  15.722  0.00  0.00    +0.000 A 
ATOM      6  C   UNL     1       5.651   5.683  14.516  0.00  0.00    +0.000 A 
ENDROOT
BRANCH   1   7
ATOM      7  C   UNL     1       6.548   3.776  13.061  0.00  0.00    +0.000 C 
BRANCH   7   8
ATOM      8  O   UNL     1       7.630   4.581  12.586  0.00  0.00    +0.000 OA
ATOM      9  H   UNL     1       8.038   5.012  13.358  0.00  0.00    +0.000 HD
ENDBRANCH   7   8
BRANCH   7  10
ATOM     10  C   UNL     1       5.518   3.641  11.936  0.00  0.00    +0.000 C 
BRANCH  10  11
ATOM     11  C   UNL     1       5.253   2.188  11.550  0.00  0.00    +0.000 C 
BRANCH  11  13
ATOM     12  O   UNL     1       7.562   1.985  10.887  0.00  0.00    +0.000 OA
ATOM     13  C   UNL     1       6.538   1.448  11.275  0.00  0.00    +0.000 C 
BRANCH  13  14
ATOM     14  O   UNL     1       6.434   0.113  11.455  0.00  0.00    +0.000 OA
ATOM     15  H   UNL     1       6.232  -0.145  12.378  0.00  0.00    +0.000 HD
ENDBRANCH  13  14
ENDBRANCH  11  13
ENDBRANCH  10  11
ENDBRANCH   7  10
ENDBRANCH   1   7
BRANCH   4  16
ATOM     16  O   UNL     1       4.396   5.808  17.931  0.00  0.00    +0.000 OA
BRANCH  16  17
ATOM     17  C   UNL     1       2.971   5.912  18.010  0.00  0.00    +0.000 C 
BRANCH  17  18
ATOM     18  C   UNL     1       2.414   4.981  19.063  0.00  0.00    +0.000 A 
ATOM     19  C   UNL     1       2.704   5.143  20.424  0.00  0.00    +0.000 A 
ATOM     20  C   UNL     1       2.159   4.275  21.370  0.00  0.00    +0.000 A 
ATOM     21  C   UNL     1       1.314   3.250  20.957  0.00  0.00    +0.000 A 
ATOM     22  F   UNL     1       0.798   2.412  21.866  0.00  0.00    +0.000 F 
ATOM     23  C   UNL     1       0.996   3.084  19.616  0.00  0.00    +0.000 A 
ATOM     24  C   UNL     1       1.537   3.951  18.671  0.00  0.00    +0.000 A 
ENDBRANCH  17  18
ENDBRANCH  16  17
ENDBRANCH   4  16
TORSDOF 9
ENDMDL
MODEL 5
REMARK VINA RESULT:      -7.1      1.678      2.361
REMARK  Name = 
REMARK  9 active torsions:
REMARK  status: ('A' for Active; 'I' for Inactive)
REMARK    1  A    between atoms: C_2  and  O_3
REMARK    2  A    between atoms: C_2  and  C_4
REMARK    3  A    between atoms: C_4  and  C_5
REMARK    4  A    between atoms: C_5  and  C_6
REMARK    5  A    between atoms: C_6  and  O_7
REMARK    6  A    between atoms: C_6  and  C_8
REMARK    7  A    between atoms: C_11  and  O_12
REMARK    8  A    between atoms: O_12  and  C_13
REMARK    9  A    between atoms: C_13  and  C_14
REMARK                            x       y       z     vdW  Elec       q    Type
REMARK                         _______ _______ _______ _____ _____    ______ ____
ROOT
ATOM      1  C   UNL     1       5.474   4.904  16.724  0.00  0.00    +0.000 A 
ATOM      2  C   UNL     1       4.517   4.100  17.362  0.00  0.00    +0.000 A 
ATOM      3  C   UNL     1       3.413   4.666  17.999  0.00  0.00    +0.000 A 
ATOM      4  C   UNL     1       3.261   6.050  18.042  0.00  0.00    +0.000 A 
ATOM      5  C   UNL     1       4.183   6.859  17.377  0.00  0.00    +0.000 A 
ATOM      6  C   UNL     1       5.285   6.294  16.726  0.00  0.00    +0.000 A 
ENDROOT
BRANCH   1   7
ATOM      7  C   UNL     1       6.649   4.237  16.042  0.00  0.00    +0.000 C 
BRANCH   7   8
ATOM      8  O   UNL     1       7.883   4.518  16.706  0.00  0.00    +0.000 OA
ATOM      9  H   UNL     1       8.496   4.887  16.046  0.00  0.00    +0.000 HD
ENDBRANCH   7   8
BRANCH   7  10
ATOM     10  C   UNL     1       6.791   4.640  14.571  0.00  0.00    +0.000 C 
BRANCH  10  11
ATOM     11  C   UNL     1       5.790   3.927  13.665  0.00  0.00    +0.000 C 
BRANCH  11  13
ATOM     12  O   UNL     1       7.232   4.153  11.746  0.00  0.00    +0.000 OA
ATOM     13  C   UNL     1       6.436   3.479  12.378  0.00  0.00    +0.000 C 
BRANCH  13  14
ATOM     14  O   UNL     1       6.009   2.267  11.961  0.00  0.00    +0.000 OA
ATOM     15  H   UNL     1       5.971   1.596  12.673  0.00  0.00    +0.000 HD
ENDBRANCH  13  14
ENDBRANCH  11  13
ENDBRANCH  10  11
ENDBRANCH   7  10
ENDBRANCH   1   7
BRANCH   4  16
ATOM     16  O   UNL     1       2.257   6.707  18.704  0.00  0.00    +0.000 OA
BRANCH  16  17
ATOM     17  C   UNL     1       2.187   8.113  18.443  0.00  0.00    +0.000 C 
BRANCH  17  18
ATOM     18  C   UNL     1       1.488   8.842  19.566  0.00  0.00    +0.000 A 
ATOM     19  C   UNL     1       0.868  10.083  19.371  0.00  0.00    +0.000 A 
ATOM     20  C   UNL     1       0.217  10.721  20.428  0.00  0.00    +0.000 A 
ATOM     21  C   UNL     1       0.176  10.113  21.678  0.00  0.00    +0.000 A 
ATOM     22  F   UNL     1      -0.442  10.731  22.693  0.00  0.00    +0.000 F 
ATOM     23  C   UNL     1       0.766   8.874  21.888  0.00  0.00    +0.000 A 
ATOM     24  C   UNL     1       1.414   8.235  20.835  0.00  0.00    +0.000 A 
ENDBRANCH  17  18
ENDBRANCH  16  17
ENDBRANCH   4  16
TORSDOF 9
ENDMDL
MODEL 6
REMARK VINA RESULT:      -7.1      4.228      6.419
REMARK  Name = 
REMARK  9 active torsions:
REMARK  status: ('A' for Active; 'I' for Inactive)
REMARK    1  A    between atoms: C_2  and  O_3
REMARK    2  A    between atoms: C_2  and  C_4
REMARK    3  A    between atoms: C_4  and  C_5
REMARK    4  A    between atoms: C_5  and  C_6
REMARK    5  A    between atoms: C_6  and  O_7
REMARK    6  A    between atoms: C_6  and  C_8
REMARK    7  A    between atoms: C_11  and  O_12
REMARK    8  A    between atoms: O_12  and  C_13
REMARK    9  A    between atoms: C_13  and  C_14
REMARK                            x       y       z     vdW  Elec       q    Type
REMARK                         _______ _______ _______ _____ _____    ______ ____
ROOT
ATOM      1  C   UNL     1       6.885   6.740  17.613  0.00  0.00    +0.000 A 
ATOM      2  C   UNL     1       6.853   5.393  18.005  0.00  0.00    +0.000 A 
ATOM      3  C   UNL     1       5.724   4.606  17.782  0.00  0.00    +0.000 A 
ATOM      4  C   UNL     1       4.588   5.160  17.195  0.00  0.00    +0.000 A 
ATOM      5  C   UNL     1       4.619   6.486  16.763  0.00  0.00    +0.000 A 
ATOM      6  C   UNL     1       5.756   7.275  16.974  0.00  0.00    +0.000 A 
ENDROOT
BRANCH   1   7
ATOM      7  C   UNL     1       8.139   7.546  17.872  0.00  0.00    +0.000 C 
BRANCH   7   8
ATOM      8  O   UNL     1       8.701   7.262  19.156  0.00  0.00    +0.000 OA
ATOM      9  H   UNL     1       7.965   7.160  19.784  0.00  0.00    +0.000 HD
ENDBRANCH   7   8
BRANCH   7  10
ATOM     10  C   UNL     1       7.909   9.056  17.771  0.00  0.00    +0.000 C 
BRANCH  10  11
ATOM     11  C   UNL     1       8.888   9.862  18.621  0.00  0.00    +0.000 C 
BRANCH  11  13
ATOM     12  O   UNL     1       8.570  12.083  17.740  0.00  0.00    +0.000 OA
ATOM     13  C   UNL     1       9.309  11.130  17.922  0.00  0.00    +0.000 C 
BRANCH  13  14
ATOM     14  O   UNL     1      10.582  11.092  17.470  0.00  0.00    +0.000 OA
ATOM     15  H   UNL     1      11.031  11.962  17.483  0.00  0.00    +0.000 HD
ENDBRANCH  13  14
ENDBRANCH  11  13
ENDBRANCH  10  11
ENDBRANCH   7  10
ENDBRANCH   1   7
BRANCH   4  16
ATOM     16  O   UNL     1       3.405   4.497  17.001  0.00  0.00    +0.000 OA
BRANCH  16  17
ATOM     17  C   UNL     1       2.280   5.068  17.676  0.00  0.00    +0.000 C 
BRANCH  17  18
ATOM     18  C   UNL     1       1.949   4.298  18.933  0.00  0.00    +0.000 A 
ATOM     19  C   UNL     1       1.284   3.065  18.893  0.00  0.00    +0.000 A 
ATOM     20  C   UNL     1       1.008   2.373  20.073  0.00  0.00    +0.000 A 
ATOM     21  C   UNL     1       1.408   2.907  21.293  0.00  0.00    +0.000 A 
ATOM     22  F   UNL     1       1.136   2.245  22.425  0.00  0.00    +0.000 F 
ATOM     23  C   UNL     1       2.087   4.116  21.355  0.00  0.00    +0.000 A 
ATOM     24  C   UNL     1       2.365   4.807  20.179  0.00  0.00    +0.000 A 
ENDBRANCH  17  18
ENDBRANCH  16  17
ENDBRANCH   4  16
TORSDOF 9
ENDMDL
MODEL 7
REMARK VINA RESULT:      -7.0      3.066      3.726
REMARK  Name = 
REMARK  9 active torsions:
REMARK  status: ('A' for Active; 'I' for Inactive)
REMARK    1  A    between atoms: C_2  and  O_3
REMARK    2  A    between atoms: C_2  and  C_4
REMARK    3  A    between atoms: C_4  and  C_5
REMARK    4  A    between atoms: C_5  and  C_6
REMARK    5  A    between atoms: C_6  and  O_7
REMARK    6  A    between atoms: C_6  and  C_8
REMARK    7  A    between atoms: C_11  and  O_12
REMARK    8  A    between atoms: O_12  and  C_13
REMARK    9  A    between atoms: C_13  and  C_14
REMARK                            x       y       z     vdW  Elec       q    Type
REMARK                         _______ _______ _______ _____ _____    ______ ____
ROOT
ATOM      1  C   UNL     1       6.856   5.133  15.114  0.00  0.00    +0.000 A 
ATOM      2  C   UNL     1       5.780   6.032  15.071  0.00  0.00    +0.000 A 
ATOM      3  C   UNL     1       5.079   6.371  16.227  0.00  0.00    +0.000 A 
ATOM      4  C   UNL     1       5.417   5.790  17.448  0.00  0.00    +0.000 A 
ATOM      5  C   UNL     1       6.511   4.926  17.513  0.00  0.00    +0.000 A 
ATOM      6  C   UNL     1       7.224   4.594  16.356  0.00  0.00    +0.000 A 
ENDROOT
BRANCH   1   7
ATOM      7  C   UNL     1       7.587   4.807  13.829  0.00  0.00    +0.000 C 
BRANCH   7   8
ATOM      8  O   UNL     1       8.450   5.870  13.420  0.00  0.00    +0.000 OA
ATOM      9  H   UNL     1       7.893   6.648  13.239  0.00  0.00    +0.000 HD
ENDBRANCH   7   8
BRANCH   7  10
ATOM     10  C   UNL     1       6.639   4.482  12.671  0.00  0.00    +0.000 C 
BRANCH  10  11
ATOM     11  C   UNL     1       5.634   3.387  13.021  0.00  0.00    +0.000 C 
BRANCH  11  13
ATOM     12  O   UNL     1       4.164   2.968  11.157  0.00  0.00    +0.000 OA
ATOM     13  C   UNL     1       5.161   2.660  11.786  0.00  0.00    +0.000 C 
BRANCH  13  14
ATOM     14  O   UNL     1       5.930   1.595  11.468  0.00  0.00    +0.000 OA
ATOM     15  H   UNL     1       6.845   1.653  11.813  0.00  0.00    +0.000 HD
ENDBRANCH  13  14
ENDBRANCH  11  13
ENDBRANCH  10  11
ENDBRANCH   7  10
ENDBRANCH   1   7
BRANCH   4  16
ATOM     16  O   UNL     1       4.748   5.996  18.625  0.00  0.00    +0.000 OA
BRANCH  16  17
ATOM     17  C   UNL     1       4.692   4.857  19.490  0.00  0.00    +0.000 C 
BRANCH  17  18
ATOM     18  C   UNL     1       3.418   4.073  19.279  0.00  0.00    +0.000 A 
ATOM     19  C   UNL     1       2.236   4.381  19.965  0.00  0.00    +0.000 A 
ATOM     20  C   UNL     1       1.073   3.646  19.733  0.00  0.00    +0.000 A 
ATOM     21  C   UNL     1       1.088   2.609  18.806  0.00  0.00    +0.000 A 
ATOM     22  F   UNL     1      -0.028   1.899  18.591  0.00  0.00    +0.000 F 
ATOM     23  C   UNL     1       2.242   2.300  18.100  0.00  0.00    +0.000 A 
ATOM     24  C   UNL     1       3.403   3.034  18.328  0.00  0.00    +0.000 A 
ENDBRANCH  17  18
ENDBRANCH  16  17
ENDBRANCH   4  16
TORSDOF 9
ENDMDL
MODEL 8
REMARK VINA RESULT:      -7.0      2.943      3.746
REMARK  Name = 
REMARK  9 active torsions:
REMARK  status: ('A' for Active; 'I' for Inactive)
REMARK    1  A    between atoms: C_2  and  O_3
REMARK    2  A    between atoms: C_2  and  C_4
REMARK    3  A    between atoms: C_4  and  C_5
REMARK    4  A    between atoms: C_5  and  C_6
REMARK    5  A    between atoms: C_6  and  O_7
REMARK    6  A    between atoms: C_6  and  C_8
REMARK    7  A    between atoms: C_11  and  O_12
REMARK    8  A    between atoms: O_12  and  C_13
REMARK    9  A    between atoms: C_13  and  C_14
REMARK                            x       y       z     vdW  Elec       q    Type
REMARK                         _______ _______ _______ _____ _____    ______ ____
ROOT
ATOM      1  C   UNL     1       6.216   4.994  14.968  0.00  0.00    +0.000 A 
ATOM      2  C   UNL     1       5.667   3.945  15.721  0.00  0.00    +0.000 A 
ATOM      3  C   UNL     1       4.732   4.193  16.724  0.00  0.00    +0.000 A 
ATOM      4  C   UNL     1       4.352   5.500  17.022  0.00  0.00    +0.000 A 
ATOM      5  C   UNL     1       4.859   6.549  16.255  0.00  0.00    +0.000 A 
ATOM      6  C   UNL     1       5.789   6.302  15.238  0.00  0.00    +0.000 A 
ENDROOT
BRANCH   1   7
ATOM      7  C   UNL     1       7.222   4.667  13.886  0.00  0.00    +0.000 C 
BRANCH   7   8
ATOM      8  O   UNL     1       8.231   5.673  13.772  0.00  0.00    +0.000 OA
ATOM      9  H   UNL     1       7.790   6.539  13.818  0.00  0.00    +0.000 HD
ENDBRANCH   7   8
BRANCH   7  10
ATOM     10  C   UNL     1       6.576   4.474  12.511  0.00  0.00    +0.000 C 
BRANCH  10  11
ATOM     11  C   UNL     1       6.859   3.098  11.913  0.00  0.00    +0.000 C 
BRANCH  11  13
ATOM     12  O   UNL     1       5.539   1.194  11.248  0.00  0.00    +0.000 OA
ATOM     13  C   UNL     1       5.581   2.358  11.609  0.00  0.00    +0.000 C 
BRANCH  13  14
ATOM     14  O   UNL     1       4.477   3.128  11.729  0.00  0.00    +0.000 OA
ATOM     15  H   UNL     1       4.383   3.546  12.610  0.00  0.00    +0.000 HD
ENDBRANCH  13  14
ENDBRANCH  11  13
ENDBRANCH  10  11
ENDBRANCH   7  10
ENDBRANCH   1   7
BRANCH   4  16
ATOM     16  O   UNL     1       3.501   5.857  18.035  0.00  0.00    +0.000 OA
BRANCH  16  17
ATOM     17  C   UNL     1       2.189   5.294  17.941  0.00  0.00    +0.000 C 
BRANCH  17  18
ATOM     18  C   UNL     1       1.885   4.417  19.134  0.00  0.00    +0.000 A 
ATOM     19  C   UNL     1       1.158   3.226  19.011  0.00  0.00    +0.000 A 
ATOM     20  C   UNL     1       0.910   2.431  20.131  0.00  0.00    +0.000 A 
ATOM     21  C   UNL     1       1.400   2.822  21.373  0.00  0.00    +0.000 A 
ATOM     22  F   UNL     1       1.154   2.062  22.449  0.00  0.00    +0.000 F 
ATOM     23  C   UNL     1       2.141   3.987  21.514  0.00  0.00    +0.000 A 
ATOM     24  C   UNL     1       2.391   4.780  20.397  0.00  0.00    +0.000 A 
ENDBRANCH  17  18
ENDBRANCH  16  17
ENDBRANCH   4  16
TORSDOF 9
ENDMDL
MODEL 9
REMARK VINA RESULT:      -7.0      3.245      4.659
REMARK  Name = 
REMARK  9 active torsions:
REMARK  status: ('A' for Active; 'I' for Inactive)
REMARK    1  A    between atoms: C_2  and  O_3
REMARK    2  A    between atoms: C_2  and  C_4
REMARK    3  A    between atoms: C_4  and  C_5
REMARK    4  A    between atoms: C_5  and  C_6
REMARK    5  A    between atoms: C_6  and  O_7
REMARK    6  A    between atoms: C_6  and  C_8
REMARK    7  A    between atoms: C_11  and  O_12
REMARK    8  A    between atoms: O_12  and  C_13
REMARK    9  A    between atoms: C_13  and  C_14
REMARK                            x       y       z     vdW  Elec       q    Type
REMARK                         _______ _______ _______ _____ _____    ______ ____
ROOT
ATOM      1  C   UNL     1       3.941   5.138  18.248  0.00  0.00    +0.000 A 
ATOM      2  C   UNL     1       3.230   4.957  19.444  0.00  0.00    +0.000 A 
ATOM      3  C   UNL     1       2.429   5.972  19.964  0.00  0.00    +0.000 A 
ATOM      4  C   UNL     1       2.349   7.204  19.318  0.00  0.00    +0.000 A 
ATOM      5  C   UNL     1       3.017   7.384  18.107  0.00  0.00    +0.000 A 
ATOM      6  C   UNL     1       3.812   6.362  17.575  0.00  0.00    +0.000 A 
ENDROOT
BRANCH   1   7
ATOM      7  C   UNL     1       4.790   4.000  17.724  0.00  0.00    +0.000 C 
BRANCH   7   8
ATOM      8  O   UNL     1       5.637   3.454  18.739  0.00  0.00    +0.000 OA
ATOM      9  H   UNL     1       5.834   4.166  19.372  0.00  0.00    +0.000 HD
ENDBRANCH   7   8
BRANCH   7  10
ATOM     10  C   UNL     1       5.664   4.407  16.535  0.00  0.00    +0.000 C 
BRANCH  10  11
ATOM     11  C   UNL     1       7.134   4.574  16.912  0.00  0.00    +0.000 C 
BRANCH  11  13
ATOM     12  O   UNL     1       7.646   6.914  16.643  0.00  0.00    +0.000 OA
ATOM     13  C   UNL     1       7.424   5.975  17.388  0.00  0.00    +0.000 C 
BRANCH  13  14
ATOM     14  O   UNL     1       7.463   6.083  18.735  0.00  0.00    +0.000 OA
ATOM     15  H   UNL     1       7.388   7.005  19.058  0.00  0.00    +0.000 HD
ENDBRANCH  13  14
ENDBRANCH  11  13
ENDBRANCH  10  11
ENDBRANCH   7  10
ENDBRANCH   1   7
BRANCH   4  16
ATOM     16  O   UNL     1       1.653   8.289  19.783  0.00  0.00    +0.000 OA
BRANCH  16  17
ATOM     17  C   UNL     1       1.156   8.154  21.119  0.00  0.00    +0.000 C 
BRANCH  17  18
ATOM     18  C   UNL     1       0.326   9.353  21.516  0.00  0.00    +0.000 A 
ATOM     19  C   UNL     1       0.029  10.380  20.611  0.00  0.00    +0.000 A 
ATOM     20  C   UNL     1      -0.755  11.465  21.008  0.00  0.00    +0.000 A 
ATOM     21  C   UNL     1      -1.251  11.516  22.306  0.00  0.00    +0.000 A 
ATOM     22  F   UNL     1      -1.996  12.563  22.687  0.00  0.00    +0.000 F 
ATOM     23  C   UNL     1      -0.986  10.499  23.212  0.00  0.00    +0.000 A 
ATOM     24  C   UNL     1      -0.207   9.415  22.818  0.00  0.00    +0.000 A 
ENDBRANCH  17  18
ENDBRANCH  16  17
ENDBRANCH   4  16
TORSDOF 9
ENDMDL
