MODEL 1
REMARK VINA RESULT:      -7.7      0.000      0.000
REMARK  Name = 
REMARK  14 active torsions:
REMARK  status: ('A' for Active; 'I' for Inactive)
REMARK    1  A    between atoms: C_1  and  C_2
REMARK    2  A    between atoms: C_5  and  C_6
REMARK    3  A    between atoms: C_8  and  C_9
REMARK    4  A    between atoms: C_12  and  C_13
REMARK    5  A    between atoms: C_13  and  C_14
REMARK    6  A    between atoms: C_14  and  C_15
REMARK    7  A    between atoms: C_15  and  N_16
REMARK    8  A    between atoms: C_15  and  C_17
REMARK    9  A    between atoms: C_15  and  C_19
REMARK   10  A    between atoms: C_17  and  O_18
REMARK   11  A    between atoms: C_19  and  O_20
REMARK   12  A    between atoms: O_20  and  P_21
REMARK   13  A    between atoms: P_21  and  O_23
REMARK   14  A    between atoms: P_21  and  O_24
REMARK                            x       y       z     vdW  Elec       q    Type
REMARK                         _______ _______ _______ _____ _____    ______ ____
ROOT
ATOM      1  C   UNL     1       0.758   9.257  19.235  0.00  0.00    +0.000 A 
ATOM      2  C   UNL     1       1.478   8.888  18.094  0.00  0.00    +0.000 A 
ATOM      3  C   UNL     1       2.396   7.840  18.137  0.00  0.00    +0.000 A 
ATOM      4  C   UNL     1       2.628   7.145  19.329  0.00  0.00    +0.000 A 
ATOM      5  C   UNL     1       1.906   7.515  20.472  0.00  0.00    +0.000 A 
ATOM      6  C   UNL     1       0.983   8.561  20.428  0.00  0.00    +0.000 A 
ENDROOT
BRANCH   1   9
ATOM      7  C   UNL     1      -2.054  11.344  18.849  0.00  0.00    +0.000 A 
ATOM      8  N   UNL     1      -1.524  10.137  18.774  0.00  0.00    +0.000 NA
ATOM      9  C   UNL     1      -0.212  10.328  19.140  0.00  0.00    +0.000 A 
ATOM     10  C   UNL     1       0.000  11.660  19.415  0.00  0.00    +0.000 A 
ATOM     11  O   UNL     1      -1.173  12.321  19.228  0.00  0.00    +0.000 OA
BRANCH   7  16
ATOM     12  C   UNL     1      -7.459  13.155  17.910  0.00  0.00    +0.000 C 
ATOM     13  C   UNL     1      -6.070  12.656  18.177  0.00  0.00    +0.000 A 
ATOM     14  C   UNL     1      -5.448  12.873  19.410  0.00  0.00    +0.000 A 
ATOM     15  C   UNL     1      -4.142  12.428  19.631  0.00  0.00    +0.000 A 
ATOM     16  C   UNL     1      -3.432  11.763  18.620  0.00  0.00    +0.000 A 
ATOM     17  C   UNL     1      -4.070  11.535  17.393  0.00  0.00    +0.000 A 
ATOM     18  C   UNL     1      -5.374  11.982  17.174  0.00  0.00    +0.000 A 
ENDBRANCH   7  16
ENDBRANCH   1   9
BRANCH   4  19
ATOM     19  C   UNL     1       3.539   5.941  19.406  0.00  0.00    +0.000 C 
BRANCH  19  20
ATOM     20  C   UNL     1       4.125   5.484  18.064  0.00  0.00    +0.000 C 
BRANCH  20  21
ATOM     21  C   UNL     1       4.590   4.003  17.968  0.00  0.00    +0.000 C 
BRANCH  21  22
ATOM     22  N   UNL     1       5.636   3.721  18.980  0.00  0.00    +0.000 NA
ATOM     23  H   UNL     1       6.369   4.425  18.948  0.00  0.00    +0.000 HD
ATOM     24  H   UNL     1       6.089   2.842  18.718  0.00  0.00    +0.000 HD
ENDBRANCH  21  22
BRANCH  21  25
ATOM     25  C   UNL     1       3.423   2.998  18.134  0.00  0.00    +0.000 C 
BRANCH  25  26
ATOM     26  O   UNL     1       3.854   1.647  18.006  0.00  0.00    +0.000 OA
ATOM     27  H   UNL     1       4.792   1.695  17.754  0.00  0.00    +0.000 HD
ENDBRANCH  25  26
ENDBRANCH  21  25
BRANCH  21  28
ATOM     28  C   UNL     1       5.192   3.779  16.553  0.00  0.00    +0.000 C 
BRANCH  28  29
ATOM     29  O   UNL     1       5.620   5.022  16.011  0.00  0.00    +0.000 OA
BRANCH  29  30
ATOM     30  P   UNL     1       7.191   5.205  15.793  0.00  0.00    +0.000 P 
ATOM     31  O   UNL     1       7.686   5.153  14.392  0.00  0.00    +0.000 OA
BRANCH  30  32
ATOM     32  O   UNL     1       7.457   6.577  16.561  0.00  0.00    +0.000 OA
ATOM     33  H   UNL     1       8.410   6.770  16.603  0.00  0.00    +0.000 HD
ENDBRANCH  30  32
BRANCH  30  34
ATOM     34  O   UNL     1       7.829   4.134  16.788  0.00  0.00    +0.000 OA
ATOM     35  H   UNL     1       8.427   4.563  17.428  0.00  0.00    +0.000 HD
ENDBRANCH  30  34
ENDBRANCH  29  30
ENDBRANCH  28  29
ENDBRANCH  21  28
ENDBRANCH  20  21
ENDBRANCH  19  20
ENDBRANCH   4  19
TORSDOF 13
ENDMDL
MODEL 2
REMARK VINA RESULT:      -7.7      3.153      4.457
REMARK  Name = 
REMARK  14 active torsions:
REMARK  status: ('A' for Active; 'I' for Inactive)
REMARK    1  A    between atoms: C_1  and  C_2
REMARK    2  A    between atoms: C_5  and  C_6
REMARK    3  A    between atoms: C_8  and  C_9
REMARK    4  A    between atoms: C_12  and  C_13
REMARK    5  A    between atoms: C_13  and  C_14
REMARK    6  A    between atoms: C_14  and  C_15
REMARK    7  A    between atoms: C_15  and  N_16
REMARK    8  A    between atoms: C_15  and  C_17
REMARK    9  A    between atoms: C_15  and  C_19
REMARK   10  A    between atoms: C_17  and  O_18
REMARK   11  A    between atoms: C_19  and  O_20
REMARK   12  A    between atoms: O_20  and  P_21
REMARK   13  A    between atoms: P_21  and  O_23
REMARK   14  A    between atoms: P_21  and  O_24
REMARK                            x       y       z     vdW  Elec       q    Type
REMARK                         _______ _______ _______ _____ _____    ______ ____
ROOT
ATOM      1  C   UNL     1       1.201   8.835  20.406  0.00  0.00    +0.000 A 
ATOM      2  C   UNL     1       1.412   9.287  19.098  0.00  0.00    +0.000 A 
ATOM      3  C   UNL     1       2.108   8.505  18.177  0.00  0.00    +0.000 A 
ATOM      4  C   UNL     1       2.623   7.257  18.547  0.00  0.00    +0.000 A 
ATOM      5  C   UNL     1       2.411   6.806  19.857  0.00  0.00    +0.000 A 
ATOM      6  C   UNL     1       1.710   7.586  20.778  0.00  0.00    +0.000 A 
ENDROOT
BRANCH   1   9
ATOM      7  C   UNL     1      -0.954  11.087  22.048  0.00  0.00    +0.000 A 
ATOM      8  N   UNL     1      -0.483  10.595  20.918  0.00  0.00    +0.000 NA
ATOM      9  C   UNL     1       0.444   9.663  21.321  0.00  0.00    +0.000 A 
ATOM     10  C   UNL     1       0.501   9.637  22.696  0.00  0.00    +0.000 A 
ATOM     11  O   UNL     1      -0.388  10.548  23.173  0.00  0.00    +0.000 OA
BRANCH   7  16
ATOM     12  C   UNL     1      -5.194  14.940  22.789  0.00  0.00    +0.000 C 
ATOM     13  C   UNL     1      -4.067  13.968  22.604  0.00  0.00    +0.000 A 
ATOM     14  C   UNL     1      -3.271  13.995  21.455  0.00  0.00    +0.000 A 
ATOM     15  C   UNL     1      -2.244  13.062  21.285  0.00  0.00    +0.000 A 
ATOM     16  C   UNL     1      -1.999  12.082  22.258  0.00  0.00    +0.000 A 
ATOM     17  C   UNL     1      -2.791  12.074  23.415  0.00  0.00    +0.000 A 
ATOM     18  C   UNL     1      -3.817  13.006  23.582  0.00  0.00    +0.000 A 
ENDBRANCH   7  16
ENDBRANCH   1   9
BRANCH   4  19
ATOM     19  C   UNL     1       3.298   6.330  17.562  0.00  0.00    +0.000 C 
BRANCH  19  20
ATOM     20  C   UNL     1       3.021   4.838  17.780  0.00  0.00    +0.000 C 
BRANCH  20  21
ATOM     21  C   UNL     1       4.230   3.950  18.188  0.00  0.00    +0.000 C 
BRANCH  21  22
ATOM     22  N   UNL     1       4.756   3.218  17.010  0.00  0.00    +0.000 NA
ATOM     23  H   UNL     1       5.601   2.705  17.250  0.00  0.00    +0.000 HD
ATOM     24  H   UNL     1       5.045   3.915  16.318  0.00  0.00    +0.000 HD
ENDBRANCH  21  22
BRANCH  21  25
ATOM     25  C   UNL     1       5.373   4.762  18.846  0.00  0.00    +0.000 C 
BRANCH  25  26
ATOM     26  O   UNL     1       6.659   4.236  18.530  0.00  0.00    +0.000 OA
ATOM     27  H   UNL     1       7.236   4.501  19.265  0.00  0.00    +0.000 HD
ENDBRANCH  25  26
ENDBRANCH  21  25
BRANCH  21  28
ATOM     28  C   UNL     1       3.737   2.916  19.237  0.00  0.00    +0.000 C 
BRANCH  28  29
ATOM     29  O   UNL     1       2.994   3.580  20.252  0.00  0.00    +0.000 OA
BRANCH  29  30
ATOM     30  P   UNL     1       1.659   2.860  20.749  0.00  0.00    +0.000 P 
ATOM     31  O   UNL     1       1.621   2.419  22.169  0.00  0.00    +0.000 OA
BRANCH  30  32
ATOM     32  O   UNL     1       0.552   3.931  20.336  0.00  0.00    +0.000 OA
ATOM     33  H   UNL     1      -0.013   3.586  19.623  0.00  0.00    +0.000 HD
ENDBRANCH  30  32
BRANCH  30  34
ATOM     34  O   UNL     1       1.434   1.711  19.667  0.00  0.00    +0.000 OA
ATOM     35  H   UNL     1       2.285   1.375  19.329  0.00  0.00    +0.000 HD
ENDBRANCH  30  34
ENDBRANCH  29  30
ENDBRANCH  28  29
ENDBRANCH  21  28
ENDBRANCH  20  21
ENDBRANCH  19  20
ENDBRANCH   4  19
TORSDOF 13
ENDMDL
MODEL 3
REMARK VINA RESULT:      -7.7      2.556      3.411
REMARK  Name = 
REMARK  14 active torsions:
REMARK  status: ('A' for Active; 'I' for Inactive)
REMARK    1  A    between atoms: C_1  and  C_2
REMARK    2  A    between atoms: C_5  and  C_6
REMARK    3  A    between atoms: C_8  and  C_9
REMARK    4  A    between atoms: C_12  and  C_13
REMARK    5  A    between atoms: C_13  and  C_14
REMARK    6  A    between atoms: C_14  and  C_15
REMARK    7  A    between atoms: C_15  and  N_16
REMARK    8  A    between atoms: C_15  and  C_17
REMARK    9  A    between atoms: C_15  and  C_19
REMARK   10  A    between atoms: C_17  and  O_18
REMARK   11  A    between atoms: C_19  and  O_20
REMARK   12  A    between atoms: O_20  and  P_21
REMARK   13  A    between atoms: P_21  and  O_23
REMARK   14  A    between atoms: P_21  and  O_24
REMARK                            x       y       z     vdW  Elec       q    Type
REMARK                         _______ _______ _______ _____ _____    ______ ____
ROOT
ATOM      1  C   UNL     1       0.834   9.350  19.523  0.00  0.00    +0.000 A 
ATOM      2  C   UNL     1       1.287   9.408  18.200  0.00  0.00    +0.000 A 
ATOM      3  C   UNL     1       2.200   8.473  17.717  0.00  0.00    +0.000 A 
ATOM      4  C   UNL     1       2.694   7.463  18.551  0.00  0.00    +0.000 A 
ATOM      5  C   UNL     1       2.239   7.405  19.875  0.00  0.00    +0.000 A 
ATOM      6  C   UNL     1       1.321   8.339  20.358  0.00  0.00    +0.000 A 
ENDROOT
BRANCH   1   9
ATOM      7  C   UNL     1      -1.155  11.714  21.217  0.00  0.00    +0.000 A 
ATOM      8  N   UNL     1      -0.139  10.871  21.235  0.00  0.00    +0.000 NA
ATOM      9  C   UNL     1      -0.142  10.320  19.976  0.00  0.00    +0.000 A 
ATOM     10  C   UNL     1      -1.178  10.852  19.243  0.00  0.00    +0.000 A 
ATOM     11  O   UNL     1      -1.836  11.744  20.029  0.00  0.00    +0.000 OA
BRANCH   7  16
ATOM     12  C   UNL     1      -2.955  15.211  25.449  0.00  0.00    +0.000 C 
ATOM     13  C   UNL     1      -2.512  14.321  24.325  0.00  0.00    +0.000 A 
ATOM     14  C   UNL     1      -3.342  13.309  23.833  0.00  0.00    +0.000 A 
ATOM     15  C   UNL     1      -2.901  12.470  22.807  0.00  0.00    +0.000 A 
ATOM     16  C   UNL     1      -1.619  12.625  22.257  0.00  0.00    +0.000 A 
ATOM     17  C   UNL     1      -0.802  13.653  22.744  0.00  0.00    +0.000 A 
ATOM     18  C   UNL     1      -1.243  14.489  23.770  0.00  0.00    +0.000 A 
ENDBRANCH   7  16
ENDBRANCH   1   9
BRANCH   4  19
ATOM     19  C   UNL     1       3.608   6.368  18.050  0.00  0.00    +0.000 C 
BRANCH  19  20
ATOM     20  C   UNL     1       3.411   5.002  18.717  0.00  0.00    +0.000 C 
BRANCH  20  21
ATOM     21  C   UNL     1       4.485   3.916  18.427  0.00  0.00    +0.000 C 
BRANCH  21  22
ATOM     22  N   UNL     1       5.782   4.292  19.040  0.00  0.00    +0.000 NA
ATOM     23  H   UNL     1       6.455   4.560  18.327  0.00  0.00    +0.000 HD
ATOM     24  H   UNL     1       6.169   3.453  19.481  0.00  0.00    +0.000 HD
ENDBRANCH  21  22
BRANCH  21  25
ATOM     25  C   UNL     1       4.064   2.511  18.924  0.00  0.00    +0.000 C 
BRANCH  25  26
ATOM     26  O   UNL     1       5.041   1.928  19.782  0.00  0.00    +0.000 OA
ATOM     27  H   UNL     1       4.819   2.237  20.676  0.00  0.00    +0.000 HD
ENDBRANCH  25  26
ENDBRANCH  21  25
BRANCH  21  28
ATOM     28  C   UNL     1       4.671   3.822  16.887  0.00  0.00    +0.000 C 
BRANCH  28  29
ATOM     29  O   UNL     1       5.956   4.316  16.528  0.00  0.00    +0.000 OA
BRANCH  29  30
ATOM     30  P   UNL     1       6.114   4.888  15.047  0.00  0.00    +0.000 P 
ATOM     31  O   UNL     1       5.573   4.053  13.941  0.00  0.00    +0.000 OA
BRANCH  30  32
ATOM     32  O   UNL     1       5.455   6.333  15.197  0.00  0.00    +0.000 OA
ATOM     33  H   UNL     1       4.757   6.325  15.875  0.00  0.00    +0.000 HD
ENDBRANCH  30  32
BRANCH  30  34
ATOM     34  O   UNL     1       7.667   5.236  14.948  0.00  0.00    +0.000 OA
ATOM     35  H   UNL     1       7.813   6.038  14.413  0.00  0.00    +0.000 HD
ENDBRANCH  30  34
ENDBRANCH  29  30
ENDBRANCH  28  29
ENDBRANCH  21  28
ENDBRANCH  20  21
ENDBRANCH  19  20
ENDBRANCH   4  19
TORSDOF 13
ENDMDL
MODEL 4
REMARK VINA RESULT:      -7.6      3.651      4.438
REMARK  Name = 
REMARK  14 active torsions:
REMARK  status: ('A' for Active; 'I' for Inactive)
REMARK    1  A    between atoms: C_1  and  C_2
REMARK    2  A    between atoms: C_5  and  C_6
REMARK    3  A    between atoms: C_8  and  C_9
REMARK    4  A    between atoms: C_12  and  C_13
REMARK    5  A    between atoms: C_13  and  C_14
REMARK    6  A    between atoms: C_14  and  C_15
REMARK    7  A    between atoms: C_15  and  N_16
REMARK    8  A    between atoms: C_15  and  C_17
REMARK    9  A    between atoms: C_15  and  C_19
REMARK   10  A    between atoms: C_17  and  O_18
REMARK   11  A    between atoms: C_19  and  O_20
REMARK   12  A    between atoms: O_20  and  P_21
REMARK   13  A    between atoms: P_21  and  O_23
REMARK   14  A    between atoms: P_21  and  O_24
REMARK                            x       y       z     vdW  Elec       q    Type
REMARK                         _______ _______ _______ _____ _____    ______ ____
ROOT
ATOM      1  C   UNL     1       1.180   8.646  20.563  0.00  0.00    +0.000 A 
ATOM      2  C   UNL     1       1.549   7.334  20.878  0.00  0.00    +0.000 A 
ATOM      3  C   UNL     1       2.168   6.521  19.930  0.00  0.00    +0.000 A 
ATOM      4  C   UNL     1       2.420   6.997  18.639  0.00  0.00    +0.000 A 
ATOM      5  C   UNL     1       2.050   8.312  18.324  0.00  0.00    +0.000 A 
ATOM      6  C   UNL     1       1.434   9.128  19.275  0.00  0.00    +0.000 A 
ENDROOT
BRANCH   1   9
ATOM      7  C   UNL     1      -0.552  11.020  22.507  0.00  0.00    +0.000 A 
ATOM      8  N   UNL     1      -0.156  10.607  21.318  0.00  0.00    +0.000 NA
ATOM      9  C   UNL     1       0.570   9.470  21.587  0.00  0.00    +0.000 A 
ATOM     10  C   UNL     1       0.590   9.247  22.945  0.00  0.00    +0.000 A 
ATOM     11  O   UNL     1      -0.123  10.237  23.545  0.00  0.00    +0.000 OA
BRANCH   7  16
ATOM     12  C   UNL     1      -3.932  15.544  23.730  0.00  0.00    +0.000 C 
ATOM     13  C   UNL     1      -3.035  14.375  23.446  0.00  0.00    +0.000 A 
ATOM     14  C   UNL     1      -1.709  14.563  23.043  0.00  0.00    +0.000 A 
ATOM     15  C   UNL     1      -0.897  13.464  22.752  0.00  0.00    +0.000 A 
ATOM     16  C   UNL     1      -1.397  12.157  22.855  0.00  0.00    +0.000 A 
ATOM     17  C   UNL     1      -2.721  11.979  23.278  0.00  0.00    +0.000 A 
ATOM     18  C   UNL     1      -3.531  13.078  23.566  0.00  0.00    +0.000 A 
ENDBRANCH   7  16
ENDBRANCH   1   9
BRANCH   4  19
ATOM     19  C   UNL     1       3.176   6.191  17.606  0.00  0.00    +0.000 C 
BRANCH  19  20
ATOM     20  C   UNL     1       4.690   6.432  17.576  0.00  0.00    +0.000 C 
BRANCH  20  21
ATOM     21  C   UNL     1       5.604   5.192  17.790  0.00  0.00    +0.000 C 
BRANCH  21  22
ATOM     22  N   UNL     1       5.929   4.557  16.490  0.00  0.00    +0.000 NA
ATOM     23  H   UNL     1       6.522   5.165  15.930  0.00  0.00    +0.000 HD
ATOM     24  H   UNL     1       5.056   4.465  15.965  0.00  0.00    +0.000 HD
ENDBRANCH  21  22
BRANCH  21  25
ATOM     25  C   UNL     1       6.913   5.538  18.541  0.00  0.00    +0.000 C 
BRANCH  25  26
ATOM     26  O   UNL     1       6.842   5.213  19.926  0.00  0.00    +0.000 OA
ATOM     27  H   UNL     1       6.109   5.745  20.281  0.00  0.00    +0.000 HD
ENDBRANCH  25  26
ENDBRANCH  21  25
BRANCH  21  28
ATOM     28  C   UNL     1       4.829   4.168  18.665  0.00  0.00    +0.000 C 
BRANCH  28  29
ATOM     29  O   UNL     1       4.313   3.129  17.842  0.00  0.00    +0.000 OA
BRANCH  29  30
ATOM     30  P   UNL     1       3.318   2.093  18.538  0.00  0.00    +0.000 P 
ATOM     31  O   UNL     1       2.868   2.415  19.919  0.00  0.00    +0.000 OA
BRANCH  30  32
ATOM     32  O   UNL     1       2.158   1.991  17.448  0.00  0.00    +0.000 OA
ATOM     33  H   UNL     1       2.439   1.438  16.697  0.00  0.00    +0.000 HD
ENDBRANCH  30  32
BRANCH  30  34
ATOM     34  O   UNL     1       4.062   0.693  18.368  0.00  0.00    +0.000 OA
ATOM     35  H   UNL     1       3.694   0.189  17.619  0.00  0.00    +0.000 HD
ENDBRANCH  30  34
ENDBRANCH  29  30
ENDBRANCH  28  29
ENDBRANCH  21  28
ENDBRANCH  20  21
ENDBRANCH  19  20
ENDBRANCH   4  19
TORSDOF 13
ENDMDL
MODEL 5
REMARK VINA RESULT:      -7.6      3.417      4.361
REMARK  Name = 
REMARK  14 active torsions:
REMARK  status: ('A' for Active; 'I' for Inactive)
REMARK    1  A    between atoms: C_1  and  C_2
REMARK    2  A    between atoms: C_5  and  C_6
REMARK    3  A    between atoms: C_8  and  C_9
REMARK    4  A    between atoms: C_12  and  C_13
REMARK    5  A    between atoms: C_13  and  C_14
REMARK    6  A    between atoms: C_14  and  C_15
REMARK    7  A    between atoms: C_15  and  N_16
REMARK    8  A    between atoms: C_15  and  C_17
REMARK    9  A    between atoms: C_15  and  C_19
REMARK   10  A    between atoms: C_17  and  O_18
REMARK   11  A    between atoms: C_19  and  O_20
REMARK   12  A    between atoms: O_20  and  P_21
REMARK   13  A    between atoms: P_21  and  O_23
REMARK   14  A    between atoms: P_21  and  O_24
REMARK                            x       y       z     vdW  Elec       q    Type
REMARK                         _______ _______ _______ _____ _____    ______ ____
ROOT
ATOM      1  C   UNL     1       1.048   8.957  20.694  0.00  0.00    +0.000 A 
ATOM      2  C   UNL     1       1.170   9.510  19.414  0.00  0.00    +0.000 A 
ATOM      3  C   UNL     1       1.816   8.813  18.395  0.00  0.00    +0.000 A 
ATOM      4  C   UNL     1       2.370   7.550  18.636  0.00  0.00    +0.000 A 
ATOM      5  C   UNL     1       2.248   6.997  19.917  0.00  0.00    +0.000 A 
ATOM      6  C   UNL     1       1.596   7.693  20.938  0.00  0.00    +0.000 A 
ENDROOT
BRANCH   1   9
ATOM      7  C   UNL     1      -0.841  11.197  22.650  0.00  0.00    +0.000 A 
ATOM      8  N   UNL     1      -0.310  10.889  21.482  0.00  0.00    +0.000 NA
ATOM      9  C   UNL     1       0.339   9.699  21.716  0.00  0.00    +0.000 A 
ATOM     10  C   UNL     1       0.178   9.339  23.034  0.00  0.00    +0.000 A 
ATOM     11  O   UNL     1      -0.574  10.293  23.643  0.00  0.00    +0.000 OA
BRANCH   7  16
ATOM     12  C   UNL     1      -4.206  15.718  23.920  0.00  0.00    +0.000 C 
ATOM     13  C   UNL     1      -3.317  14.547  23.626  0.00  0.00    +0.000 A 
ATOM     14  C   UNL     1      -1.951  14.720  23.383  0.00  0.00    +0.000 A 
ATOM     15  C   UNL     1      -1.142  13.621  23.080  0.00  0.00    +0.000 A 
ATOM     16  C   UNL     1      -1.687  12.329  23.010  0.00  0.00    +0.000 A 
ATOM     17  C   UNL     1      -3.053  12.164  23.274  0.00  0.00    +0.000 A 
ATOM     18  C   UNL     1      -3.859  13.263  23.574  0.00  0.00    +0.000 A 
ENDBRANCH   7  16
ENDBRANCH   1   9
BRANCH   4  19
ATOM     19  C   UNL     1       2.994   6.713  17.542  0.00  0.00    +0.000 C 
BRANCH  19  20
ATOM     20  C   UNL     1       4.447   7.066  17.203  0.00  0.00    +0.000 C 
BRANCH  20  21
ATOM     21  C   UNL     1       5.338   5.919  16.647  0.00  0.00    +0.000 C 
BRANCH  21  22
ATOM     22  N   UNL     1       5.474   6.037  15.175  0.00  0.00    +0.000 NA
ATOM     23  H   UNL     1       4.568   6.185  14.738  0.00  0.00    +0.000 HD
ATOM     24  H   UNL     1       5.804   5.134  14.823  0.00  0.00    +0.000 HD
ENDBRANCH  21  22
BRANCH  21  25
ATOM     25  C   UNL     1       6.743   5.885  17.297  0.00  0.00    +0.000 C 
BRANCH  25  26
ATOM     26  O   UNL     1       7.645   6.796  16.677  0.00  0.00    +0.000 OA
ATOM     27  H   UNL     1       8.454   6.769  17.217  0.00  0.00    +0.000 HD
ENDBRANCH  25  26
ENDBRANCH  21  25
BRANCH  21  28
ATOM     28  C   UNL     1       4.646   4.568  16.976  0.00  0.00    +0.000 C 
BRANCH  28  29
ATOM     29  O   UNL     1       5.112   4.083  18.229  0.00  0.00    +0.000 OA
BRANCH  29  30
ATOM     30  P   UNL     1       4.185   3.019  18.975  0.00  0.00    +0.000 P 
ATOM     31  O   UNL     1       2.941   3.536  19.605  0.00  0.00    +0.000 OA
BRANCH  30  32
ATOM     32  O   UNL     1       3.970   1.932  17.828  0.00  0.00    +0.000 OA
ATOM     33  H   UNL     1       4.704   1.955  17.189  0.00  0.00    +0.000 HD
ENDBRANCH  30  32
BRANCH  30  34
ATOM     34  O   UNL     1       5.195   2.273  19.959  0.00  0.00    +0.000 OA
ATOM     35  H   UNL     1       5.302   1.337  19.708  0.00  0.00    +0.000 HD
ENDBRANCH  30  34
ENDBRANCH  29  30
ENDBRANCH  28  29
ENDBRANCH  21  28
ENDBRANCH  20  21
ENDBRANCH  19  20
ENDBRANCH   4  19
TORSDOF 13
ENDMDL
MODEL 6
REMARK VINA RESULT:      -7.6      2.255      3.094
REMARK  Name = 
REMARK  14 active torsions:
REMARK  status: ('A' for Active; 'I' for Inactive)
REMARK    1  A    between atoms: C_1  and  C_2
REMARK    2  A    between atoms: C_5  and  C_6
REMARK    3  A    between atoms: C_8  and  C_9
REMARK    4  A    between atoms: C_12  and  C_13
REMARK    5  A    between atoms: C_13  and  C_14
REMARK    6  A    between atoms: C_14  and  C_15
REMARK    7  A    between atoms: C_15  and  N_16
REMARK    8  A    between atoms: C_15  and  C_17
REMARK    9  A    between atoms: C_15  and  C_19
REMARK   10  A    between atoms: C_17  and  O_18
REMARK   11  A    between atoms: C_19  and  O_20
REMARK   12  A    between atoms: O_20  and  P_21
REMARK   13  A    between atoms: P_21  and  O_23
REMARK   14  A    between atoms: P_21  and  O_24
REMARK                            x       y       z     vdW  Elec       q    Type
REMARK                         _______ _______ _______ _____ _____    ______ ____
ROOT
ATOM      1  C   UNL     1       0.638   9.529  19.181  0.00  0.00    +0.000 A 
ATOM      2  C   UNL     1       1.305   9.277  17.978  0.00  0.00    +0.000 A 
ATOM      3  C   UNL     1       2.251   8.257  17.886  0.00  0.00    +0.000 A 
ATOM      4  C   UNL     1       2.564   7.474  19.003  0.00  0.00    +0.000 A 
ATOM      5  C   UNL     1       1.895   7.726  20.208  0.00  0.00    +0.000 A 
ATOM      6  C   UNL     1       0.944   8.744  20.299  0.00  0.00    +0.000 A 
ENDROOT
BRANCH   1   9
ATOM      7  C   UNL     1      -2.224  11.577  19.021  0.00  0.00    +0.000 A 
ATOM      8  N   UNL     1      -1.649  10.418  18.763  0.00  0.00    +0.000 NA
ATOM      9  C   UNL     1      -0.363  10.574  19.225  0.00  0.00    +0.000 A 
ATOM     10  C   UNL     1      -0.211  11.841  19.741  0.00  0.00    +0.000 A 
ATOM     11  O   UNL     1      -1.396  12.494  19.613  0.00  0.00    +0.000 OA
BRANCH   7  16
ATOM     12  C   UNL     1      -7.738  13.083  18.180  0.00  0.00    +0.000 C 
ATOM     13  C   UNL     1      -6.295  12.720  18.374  0.00  0.00    +0.000 A 
ATOM     14  C   UNL     1      -5.579  12.048  17.379  0.00  0.00    +0.000 A 
ATOM     15  C   UNL     1      -4.244  11.691  17.588  0.00  0.00    +0.000 A 
ATOM     16  C   UNL     1      -3.603  11.995  18.799  0.00  0.00    +0.000 A 
ATOM     17  C   UNL     1      -4.324  12.685  19.783  0.00  0.00    +0.000 A 
ATOM     18  C   UNL     1      -5.658  13.039  19.572  0.00  0.00    +0.000 A 
ENDBRANCH   7  16
ENDBRANCH   1   9
BRANCH   4  19
ATOM     19  C   UNL     1       3.509   6.295  18.932  0.00  0.00    +0.000 C 
BRANCH  19  20
ATOM     20  C   UNL     1       3.704   5.703  17.531  0.00  0.00    +0.000 C 
BRANCH  20  21
ATOM     21  C   UNL     1       4.644   4.471  17.412  0.00  0.00    +0.000 C 
BRANCH  21  22
ATOM     22  N   UNL     1       5.556   4.624  16.253  0.00  0.00    +0.000 NA
ATOM     23  H   UNL     1       5.847   3.716  15.899  0.00  0.00    +0.000 HD
ATOM     24  H   UNL     1       6.411   5.074  16.591  0.00  0.00    +0.000 HD
ENDBRANCH  21  22
BRANCH  21  25
ATOM     25  C   UNL     1       5.475   4.228  18.697  0.00  0.00    +0.000 C 
BRANCH  25  26
ATOM     26  O   UNL     1       5.145   2.994  19.326  0.00  0.00    +0.000 OA
ATOM     27  H   UNL     1       4.759   2.440  18.627  0.00  0.00    +0.000 HD
ENDBRANCH  25  26
ENDBRANCH  21  25
BRANCH  21  28
ATOM     28  C   UNL     1       3.763   3.212  17.190  0.00  0.00    +0.000 C 
BRANCH  28  29
ATOM     29  O   UNL     1       2.424   3.488  17.583  0.00  0.00    +0.000 OA
BRANCH  29  30
ATOM     30  P   UNL     1       1.767   2.486  18.638  0.00  0.00    +0.000 P 
ATOM     31  O   UNL     1       0.319   2.188  18.471  0.00  0.00    +0.000 OA
BRANCH  30  32
ATOM     32  O   UNL     1       2.740   1.228  18.525  0.00  0.00    +0.000 OA
ATOM     33  H   UNL     1       2.935   0.862  19.406  0.00  0.00    +0.000 HD
ENDBRANCH  30  32
BRANCH  30  34
ATOM     34  O   UNL     1       2.183   3.107  20.046  0.00  0.00    +0.000 OA
ATOM     35  H   UNL     1       1.553   2.847  20.744  0.00  0.00    +0.000 HD
ENDBRANCH  30  34
ENDBRANCH  29  30
ENDBRANCH  28  29
ENDBRANCH  21  28
ENDBRANCH  20  21
ENDBRANCH  19  20
ENDBRANCH   4  19
TORSDOF 13
ENDMDL
MODEL 7
REMARK VINA RESULT:      -7.5      3.540      4.430
REMARK  Name = 
REMARK  14 active torsions:
REMARK  status: ('A' for Active; 'I' for Inactive)
REMARK    1  A    between atoms: C_1  and  C_2
REMARK    2  A    between atoms: C_5  and  C_6
REMARK    3  A    between atoms: C_8  and  C_9
REMARK    4  A    between atoms: C_12  and  C_13
REMARK    5  A    between atoms: C_13  and  C_14
REMARK    6  A    between atoms: C_14  and  C_15
REMARK    7  A    between atoms: C_15  and  N_16
REMARK    8  A    between atoms: C_15  and  C_17
REMARK    9  A    between atoms: C_15  and  C_19
REMARK   10  A    between atoms: C_17  and  O_18
REMARK   11  A    between atoms: C_19  and  O_20
REMARK   12  A    between atoms: O_20  and  P_21
REMARK   13  A    between atoms: P_21  and  O_23
REMARK   14  A    between atoms: P_21  and  O_24
REMARK                            x       y       z     vdW  Elec       q    Type
REMARK                         _______ _______ _______ _____ _____    ______ ____
ROOT
ATOM      1  C   UNL     1       0.927   9.238  20.450  0.00  0.00    +0.000 A 
ATOM      2  C   UNL     1       1.488   7.975  20.664  0.00  0.00    +0.000 A 
ATOM      3  C   UNL     1       2.229   7.344  19.665  0.00  0.00    +0.000 A 
ATOM      4  C   UNL     1       2.414   7.957  18.422  0.00  0.00    +0.000 A 
ATOM      5  C   UNL     1       1.853   9.223  18.208  0.00  0.00    +0.000 A 
ATOM      6  C   UNL     1       1.115   9.857  19.209  0.00  0.00    +0.000 A 
ENDROOT
BRANCH   1   9
ATOM      7  C   UNL     1      -0.935  11.313  22.604  0.00  0.00    +0.000 A 
ATOM      8  N   UNL     1      -0.328  11.144  21.444  0.00  0.00    +0.000 NA
ATOM      9  C   UNL     1       0.194   9.874  21.524  0.00  0.00    +0.000 A 
ATOM     10  C   UNL     1      -0.115   9.326  22.749  0.00  0.00    +0.000 A 
ATOM     11  O   UNL     1      -0.836  10.241  23.450  0.00  0.00    +0.000 OA
BRANCH   7  16
ATOM     12  C   UNL     1      -3.977  15.775  24.656  0.00  0.00    +0.000 C 
ATOM     13  C   UNL     1      -3.208  14.618  24.090  0.00  0.00    +0.000 A 
ATOM     14  C   UNL     1      -3.787  13.350  23.980  0.00  0.00    +0.000 A 
ATOM     15  C   UNL     1      -3.046  12.276  23.479  0.00  0.00    +0.000 A 
ATOM     16  C   UNL     1      -1.711  12.451  23.083  0.00  0.00    +0.000 A 
ATOM     17  C   UNL     1      -1.145  13.730  23.180  0.00  0.00    +0.000 A 
ATOM     18  C   UNL     1      -1.887  14.800  23.683  0.00  0.00    +0.000 A 
ENDBRANCH   7  16
ENDBRANCH   1   9
BRANCH   4  19
ATOM     19  C   UNL     1       3.289   7.361  17.342  0.00  0.00    +0.000 C 
BRANCH  19  20
ATOM     20  C   UNL     1       4.511   6.587  17.851  0.00  0.00    +0.000 C 
BRANCH  20  21
ATOM     21  C   UNL     1       5.252   5.687  16.822  0.00  0.00    +0.000 C 
BRANCH  21  22
ATOM     22  N   UNL     1       5.237   6.314  15.478  0.00  0.00    +0.000 NA
ATOM     23  H   UNL     1       6.044   6.021  14.934  0.00  0.00    +0.000 HD
ATOM     24  H   UNL     1       5.346   7.323  15.609  0.00  0.00    +0.000 HD
ENDBRANCH  21  22
BRANCH  21  25
ATOM     25  C   UNL     1       6.712   5.383  17.237  0.00  0.00    +0.000 C 
BRANCH  25  26
ATOM     26  O   UNL     1       6.877   5.358  18.651  0.00  0.00    +0.000 OA
ATOM     27  H   UNL     1       6.178   5.934  19.005  0.00  0.00    +0.000 HD
ENDBRANCH  25  26
ENDBRANCH  21  25
BRANCH  21  28
ATOM     28  C   UNL     1       4.503   4.327  16.745  0.00  0.00    +0.000 C 
BRANCH  28  29
ATOM     29  O   UNL     1       3.665   4.176  17.884  0.00  0.00    +0.000 OA
BRANCH  29  30
ATOM     30  P   UNL     1       3.810   2.813  18.702  0.00  0.00    +0.000 P 
ATOM     31  O   UNL     1       3.604   1.549  17.946  0.00  0.00    +0.000 OA
BRANCH  30  32
ATOM     32  O   UNL     1       5.254   2.990  19.356  0.00  0.00    +0.000 OA
ATOM     33  H   UNL     1       5.379   2.365  20.092  0.00  0.00    +0.000 HD
ENDBRANCH  30  32
BRANCH  30  34
ATOM     34  O   UNL     1       2.846   3.029  19.954  0.00  0.00    +0.000 OA
ATOM     35  H   UNL     1       1.920   3.136  19.669  0.00  0.00    +0.000 HD
ENDBRANCH  30  34
ENDBRANCH  29  30
ENDBRANCH  28  29
ENDBRANCH  21  28
ENDBRANCH  20  21
ENDBRANCH  19  20
ENDBRANCH   4  19
TORSDOF 13
ENDMDL
MODEL 8
REMARK VINA RESULT:      -7.5      3.771      4.742
REMARK  Name = 
REMARK  14 active torsions:
REMARK  status: ('A' for Active; 'I' for Inactive)
REMARK    1  A    between atoms: C_1  and  C_2
REMARK    2  A    between atoms: C_5  and  C_6
REMARK    3  A    between atoms: C_8  and  C_9
REMARK    4  A    between atoms: C_12  and  C_13
REMARK    5  A    between atoms: C_13  and  C_14
REMARK    6  A    between atoms: C_14  and  C_15
REMARK    7  A    between atoms: C_15  and  N_16
REMARK    8  A    between atoms: C_15  and  C_17
REMARK    9  A    between atoms: C_15  and  C_19
REMARK   10  A    between atoms: C_17  and  O_18
REMARK   11  A    between atoms: C_19  and  O_20
REMARK   12  A    between atoms: O_20  and  P_21
REMARK   13  A    between atoms: P_21  and  O_23
REMARK   14  A    between atoms: P_21  and  O_24
REMARK                            x       y       z     vdW  Elec       q    Type
REMARK                         _______ _______ _______ _____ _____    ______ ____
ROOT
ATOM      1  C   UNL     1       0.809   9.268  20.612  0.00  0.00    +0.000 A 
ATOM      2  C   UNL     1       1.426   8.043  20.886  0.00  0.00    +0.000 A 
ATOM      3  C   UNL     1       2.154   7.375  19.902  0.00  0.00    +0.000 A 
ATOM      4  C   UNL     1       2.269   7.910  18.615  0.00  0.00    +0.000 A 
ATOM      5  C   UNL     1       1.652   9.138  18.341  0.00  0.00    +0.000 A 
ATOM      6  C   UNL     1       0.926   9.810  19.327  0.00  0.00    +0.000 A 
ENDROOT
BRANCH   1   9
ATOM      7  C   UNL     1      -1.043  11.417  22.701  0.00  0.00    +0.000 A 
ATOM      8  N   UNL     1      -0.465  11.197  21.535  0.00  0.00    +0.000 NA
ATOM      9  C   UNL     1       0.091   9.946  21.671  0.00  0.00    +0.000 A 
ATOM     10  C   UNL     1      -0.169   9.462  22.933  0.00  0.00    +0.000 A 
ATOM     11  O   UNL     1      -0.892  10.398  23.603  0.00  0.00    +0.000 OA
BRANCH   7  16
ATOM     12  C   UNL     1      -4.156  15.903  24.589  0.00  0.00    +0.000 C 
ATOM     13  C   UNL     1      -3.366  14.741  24.064  0.00  0.00    +0.000 A 
ATOM     14  C   UNL     1      -3.956  13.486  23.889  0.00  0.00    +0.000 A 
ATOM     15  C   UNL     1      -3.197  12.406  23.428  0.00  0.00    +0.000 A 
ATOM     16  C   UNL     1      -1.833  12.562  23.139  0.00  0.00    +0.000 A 
ATOM     17  C   UNL     1      -1.255  13.828  23.301  0.00  0.00    +0.000 A 
ATOM     18  C   UNL     1      -2.014  14.904  23.763  0.00  0.00    +0.000 A 
ENDBRANCH   7  16
ENDBRANCH   1   9
BRANCH   4  19
ATOM     19  C   UNL     1       3.127   7.276  17.543  0.00  0.00    +0.000 C 
BRANCH  19  20
ATOM     20  C   UNL     1       4.317   6.462  18.062  0.00  0.00    +0.000 C 
BRANCH  20  21
ATOM     21  C   UNL     1       4.432   4.991  17.570  0.00  0.00    +0.000 C 
BRANCH  21  22
ATOM     22  N   UNL     1       4.909   4.949  16.167  0.00  0.00    +0.000 NA
ATOM     23  H   UNL     1       4.533   4.139  15.681  0.00  0.00    +0.000 HD
ATOM     24  H   UNL     1       5.923   4.809  16.191  0.00  0.00    +0.000 HD
ENDBRANCH  21  22
BRANCH  21  25
ATOM     25  C   UNL     1       5.364   4.133  18.461  0.00  0.00    +0.000 C 
BRANCH  25  26
ATOM     26  O   UNL     1       4.855   2.819  18.665  0.00  0.00    +0.000 OA
ATOM     27  H   UNL     1       3.892   2.923  18.752  0.00  0.00    +0.000 HD
ENDBRANCH  25  26
ENDBRANCH  21  25
BRANCH  21  28
ATOM     28  C   UNL     1       3.018   4.350  17.634  0.00  0.00    +0.000 C 
BRANCH  28  29
ATOM     29  O   UNL     1       2.572   4.305  18.984  0.00  0.00    +0.000 OA
BRANCH  29  30
ATOM     30  P   UNL     1       1.458   3.217  19.334  0.00  0.00    +0.000 P 
ATOM     31  O   UNL     1       0.758   2.578  18.188  0.00  0.00    +0.000 OA
BRANCH  30  32
ATOM     32  O   UNL     1       2.275   2.222  20.275  0.00  0.00    +0.000 OA
ATOM     33  H   UNL     1       3.187   2.113  19.952  0.00  0.00    +0.000 HD
ENDBRANCH  30  32
BRANCH  30  34
ATOM     34  O   UNL     1       0.518   3.972  20.378  0.00  0.00    +0.000 OA
ATOM     35  H   UNL     1       0.900   4.832  20.635  0.00  0.00    +0.000 HD
ENDBRANCH  30  34
ENDBRANCH  29  30
ENDBRANCH  28  29
ENDBRANCH  21  28
ENDBRANCH  20  21
ENDBRANCH  19  20
ENDBRANCH   4  19
TORSDOF 13
ENDMDL
MODEL 9
REMARK VINA RESULT:      -7.5      2.403      3.392
REMARK  Name = 
REMARK  14 active torsions:
REMARK  status: ('A' for Active; 'I' for Inactive)
REMARK    1  A    between atoms: C_1  and  C_2
REMARK    2  A    between atoms: C_5  and  C_6
REMARK    3  A    between atoms: C_8  and  C_9
REMARK    4  A    between atoms: C_12  and  C_13
REMARK    5  A    between atoms: C_13  and  C_14
REMARK    6  A    between atoms: C_14  and  C_15
REMARK    7  A    between atoms: C_15  and  N_16
REMARK    8  A    between atoms: C_15  and  C_17
REMARK    9  A    between atoms: C_15  and  C_19
REMARK   10  A    between atoms: C_17  and  O_18
REMARK   11  A    between atoms: C_19  and  O_20
REMARK   12  A    between atoms: O_20  and  P_21
REMARK   13  A    between atoms: P_21  and  O_23
REMARK   14  A    between atoms: P_21  and  O_24
REMARK                            x       y       z     vdW  Elec       q    Type
REMARK                         _______ _______ _______ _____ _____    ______ ____
ROOT
ATOM      1  C   UNL     1       1.537   8.838  19.298  0.00  0.00    +0.000 A 
ATOM      2  C   UNL     1       1.640   7.799  20.229  0.00  0.00    +0.000 A 
ATOM      3  C   UNL     1       2.399   6.663  19.950  0.00  0.00    +0.000 A 
ATOM      4  C   UNL     1       3.064   6.535  18.725  0.00  0.00    +0.000 A 
ATOM      5  C   UNL     1       2.962   7.577  17.793  0.00  0.00    +0.000 A 
ATOM      6  C   UNL     1       2.205   8.716  18.074  0.00  0.00    +0.000 A 
ENDROOT
BRANCH   1   9
ATOM      7  C   UNL     1      -0.671  11.267  20.575  0.00  0.00    +0.000 A 
ATOM      8  N   UNL     1      -0.282  10.007  20.530  0.00  0.00    +0.000 NA
ATOM      9  C   UNL     1       0.766  10.015  19.640  0.00  0.00    +0.000 A 
ATOM     10  C   UNL     1       0.963  11.295  19.173  0.00  0.00    +0.000 A 
ATOM     11  O   UNL     1       0.045  12.105  19.762  0.00  0.00    +0.000 OA
BRANCH   7  16
ATOM     12  C   UNL     1      -4.919  13.590  23.729  0.00  0.00    +0.000 C 
ATOM     13  C   UNL     1      -3.798  13.022  22.909  0.00  0.00    +0.000 A 
ATOM     14  C   UNL     1      -3.692  13.296  21.542  0.00  0.00    +0.000 A 
ATOM     15  C   UNL     1      -2.660  12.734  20.786  0.00  0.00    +0.000 A 
ATOM     16  C   UNL     1      -1.718  11.883  21.384  0.00  0.00    +0.000 A 
ATOM     17  C   UNL     1      -1.822  11.628  22.758  0.00  0.00    +0.000 A 
ATOM     18  C   UNL     1      -2.855  12.190  23.510  0.00  0.00    +0.000 A 
ENDBRANCH   7  16
ENDBRANCH   1   9
BRANCH   4  19
ATOM     19  C   UNL     1       3.978   5.372  18.413  0.00  0.00    +0.000 C 
BRANCH  19  20
ATOM     20  C   UNL     1       5.315   5.378  19.163  0.00  0.00    +0.000 C 
BRANCH  20  21
ATOM     21  C   UNL     1       6.597   5.613  18.314  0.00  0.00    +0.000 C 
BRANCH  21  22
ATOM     22  N   UNL     1       6.477   6.867  17.531  0.00  0.00    +0.000 NA
ATOM     23  H   UNL     1       6.975   7.627  17.989  0.00  0.00    +0.000 HD
ATOM     24  H   UNL     1       5.491   7.141  17.537  0.00  0.00    +0.000 HD
ENDBRANCH  21  22
BRANCH  21  25
ATOM     25  C   UNL     1       7.883   5.659  19.175  0.00  0.00    +0.000 C 
BRANCH  25  26
ATOM     26  O   UNL     1       8.523   6.931  19.119  0.00  0.00    +0.000 OA
ATOM     27  H   UNL     1       7.907   7.551  19.543  0.00  0.00    +0.000 HD
ENDBRANCH  25  26
ENDBRANCH  21  25
BRANCH  21  28
ATOM     28  C   UNL     1       6.746   4.422  17.327  0.00  0.00    +0.000 C 
BRANCH  28  29
ATOM     29  O   UNL     1       7.507   4.829  16.197  0.00  0.00    +0.000 OA
BRANCH  29  30
ATOM     30  P   UNL     1       6.711   5.001  14.823  0.00  0.00    +0.000 P 
ATOM     31  O   UNL     1       5.504   5.869  14.849  0.00  0.00    +0.000 OA
BRANCH  30  32
ATOM     32  O   UNL     1       7.876   5.478  13.843  0.00  0.00    +0.000 OA
ATOM     33  H   UNL     1       8.749   5.243  14.205  0.00  0.00    +0.000 HD
ENDBRANCH  30  32
BRANCH  30  34
ATOM     34  O   UNL     1       6.467   3.499  14.347  0.00  0.00    +0.000 OA
ATOM     35  H   UNL     1       6.951   2.869  14.912  0.00  0.00    +0.000 HD
ENDBRANCH  30  34
ENDBRANCH  29  30
ENDBRANCH  28  29
ENDBRANCH  21  28
ENDBRANCH  20  21
ENDBRANCH  19  20
ENDBRANCH   4  19
TORSDOF 13
ENDMDL
