MODEL 1
REMARK VINA RESULT:      -8.3      0.000      0.000
REMARK  Name = 
REMARK  7 active torsions:
REMARK  status: ('A' for Active; 'I' for Inactive)
REMARK    1  A    between atoms: C_1  and  O_2
REMARK    2  A    between atoms: O_2  and  C_3
REMARK    3  A    between atoms: C_6  and  N_7
REMARK    4  A    between atoms: N_7  and  N_8
REMARK    5  A    between atoms: C_9  and  C_10
REMARK    6  A    between atoms: N_12  and  C_13
REMARK    7  A    between atoms: C_13  and  C_14
REMARK                            x       y       z     vdW  Elec       q    Type
REMARK                         _______ _______ _______ _____ _____    ______ ____
ROOT
ATOM      1  C   UNL     1       3.641   5.835  18.477  0.00  0.00    +0.000 A 
ATOM      2  C   UNL     1       2.700   5.181  17.682  0.00  0.00    +0.000 A 
ATOM      3  N   UNL     1       3.346   4.083  17.179  0.00  0.00    +0.000 N 
ATOM      4  C   UNL     1       4.638   4.463  16.921  0.00  0.00    +0.000 A 
ATOM      5  C   UNL     1       5.560   3.913  16.019  0.00  0.00    +0.000 A 
ATOM      6  C   UNL     1       6.880   4.315  16.144  0.00  0.00    +0.000 A 
ATOM      7  C   UNL     1       7.243   5.190  17.168  0.00  0.00    +0.000 A 
ATOM      8  C   UNL     1       6.287   5.749  18.053  0.00  0.00    +0.000 A 
ATOM      9  C   UNL     1       4.920   5.430  17.905  0.00  0.00    +0.000 A 
ENDROOT
BRANCH   1  11
ATOM     10  N   UNL     1       1.957   6.695  20.110  0.00  0.00    +0.000 NA
ATOM     11  C   UNL     1       3.128   6.710  19.537  0.00  0.00    +0.000 C 
BRANCH  10  12
ATOM     12  N   UNL     1       1.782   7.778  20.994  0.00  0.00    +0.000 N 
ATOM     13  H   UNL     1       2.545   8.009  21.628  0.00  0.00    +0.000 HD
BRANCH  12  17
ATOM     14  C   UNL     1      -0.578  11.148  19.818  0.00  0.00    +0.000 A 
ATOM     15  C   UNL     1       0.289  10.522  18.918  0.00  0.00    +0.000 A 
ATOM     16  C   UNL     1       1.072   9.432  19.299  0.00  0.00    +0.000 A 
ATOM     17  C   UNL     1       1.052   8.936  20.607  0.00  0.00    +0.000 A 
ATOM     18  C   UNL     1       0.163   9.567  21.503  0.00  0.00    +0.000 A 
ATOM     19  C   UNL     1      -0.640  10.670  21.124  0.00  0.00    +0.000 A 
BRANCH  14  21
ATOM     20  C   UNL     1      -0.557  13.056  18.363  0.00  0.00    +0.000 C 
ATOM     21  O   UNL     1      -1.235  12.223  19.295  0.00  0.00    +0.000 OA
ENDBRANCH  14  21
ENDBRANCH  12  17
ENDBRANCH  10  12
ENDBRANCH   1  11
BRANCH   3  22
ATOM     22  C   UNL     1       3.025   2.710  17.577  0.00  0.00    +0.000 C 
BRANCH  22  23
ATOM     23  C   UNL     1       2.509   2.664  18.977  0.00  0.00    +0.000 A 
ATOM     24  C   UNL     1       1.146   2.851  19.235  0.00  0.00    +0.000 A 
ATOM     25  C   UNL     1       0.695   2.937  20.547  0.00  0.00    +0.000 A 
ATOM     26  C   UNL     1       1.600   2.828  21.604  0.00  0.00    +0.000 A 
ATOM     27  C   UNL     1       2.952   2.595  21.351  0.00  0.00    +0.000 A 
ATOM     28  C   UNL     1       3.406   2.506  20.041  0.00  0.00    +0.000 A 
ENDBRANCH  22  23
ENDBRANCH   3  22
TORSDOF 6
ENDMDL
MODEL 2
REMARK VINA RESULT:      -8.2      1.167      1.785
REMARK  Name = 
REMARK  7 active torsions:
REMARK  status: ('A' for Active; 'I' for Inactive)
REMARK    1  A    between atoms: C_1  and  O_2
REMARK    2  A    between atoms: O_2  and  C_3
REMARK    3  A    between atoms: C_6  and  N_7
REMARK    4  A    between atoms: N_7  and  N_8
REMARK    5  A    between atoms: C_9  and  C_10
REMARK    6  A    between atoms: N_12  and  C_13
REMARK    7  A    between atoms: C_13  and  C_14
REMARK                            x       y       z     vdW  Elec       q    Type
REMARK                         _______ _______ _______ _____ _____    ______ ____
ROOT
ATOM      1  C   UNL     1       3.381   6.029  18.821  0.00  0.00    +0.000 A 
ATOM      2  C   UNL     1       2.381   5.584  17.955  0.00  0.00    +0.000 A 
ATOM      3  N   UNL     1       2.907   4.491  17.320  0.00  0.00    +0.000 N 
ATOM      4  C   UNL     1       4.235   4.754  17.105  0.00  0.00    +0.000 A 
ATOM      5  C   UNL     1       5.100   4.219  16.140  0.00  0.00    +0.000 A 
ATOM      6  C   UNL     1       6.455   4.454  16.306  0.00  0.00    +0.000 A 
ATOM      7  C   UNL     1       6.902   5.153  17.428  0.00  0.00    +0.000 A 
ATOM      8  C   UNL     1       6.004   5.703  18.378  0.00  0.00    +0.000 A 
ATOM      9  C   UNL     1       4.612   5.557  18.198  0.00  0.00    +0.000 A 
ENDROOT
BRANCH   1  11
ATOM     10  N   UNL     1       1.819   7.421  20.185  0.00  0.00    +0.000 NA
ATOM     11  C   UNL     1       2.958   6.820  19.981  0.00  0.00    +0.000 C 
BRANCH  10  12
ATOM     12  N   UNL     1       1.829   8.197  21.361  0.00  0.00    +0.000 N 
ATOM     13  H   UNL     1       2.730   8.431  21.775  0.00  0.00    +0.000 HD
BRANCH  12  17
ATOM     14  C   UNL     1      -0.908  11.413  22.050  0.00  0.00    +0.000 A 
ATOM     15  C   UNL     1      -0.758  10.379  22.978  0.00  0.00    +0.000 A 
ATOM     16  C   UNL     1       0.122   9.320  22.753  0.00  0.00    +0.000 A 
ATOM     17  C   UNL     1       0.870   9.226  21.575  0.00  0.00    +0.000 A 
ATOM     18  C   UNL     1       0.721  10.283  20.651  0.00  0.00    +0.000 A 
ATOM     19  C   UNL     1      -0.166  11.364  20.874  0.00  0.00    +0.000 A 
BRANCH  14  21
ATOM     20  C   UNL     1      -2.811  12.003  23.387  0.00  0.00    +0.000 C 
ATOM     21  O   UNL     1      -1.839  12.344  22.406  0.00  0.00    +0.000 OA
ENDBRANCH  14  21
ENDBRANCH  12  17
ENDBRANCH  10  12
ENDBRANCH   1  11
BRANCH   3  22
ATOM     22  C   UNL     1       2.432   3.123  17.549  0.00  0.00    +0.000 C 
BRANCH  22  23
ATOM     23  C   UNL     1       2.324   2.831  19.009  0.00  0.00    +0.000 A 
ATOM     24  C   UNL     1       1.102   2.993  19.674  0.00  0.00    +0.000 A 
ATOM     25  C   UNL     1       1.040   2.845  21.055  0.00  0.00    +0.000 A 
ATOM     26  C   UNL     1       2.193   2.528  21.775  0.00  0.00    +0.000 A 
ATOM     27  C   UNL     1       3.402   2.320  21.110  0.00  0.00    +0.000 A 
ATOM     28  C   UNL     1       3.467   2.464  19.730  0.00  0.00    +0.000 A 
ENDBRANCH  22  23
ENDBRANCH   3  22
TORSDOF 6
ENDMDL
MODEL 3
REMARK VINA RESULT:      -8.2      0.489      1.053
REMARK  Name = 
REMARK  7 active torsions:
REMARK  status: ('A' for Active; 'I' for Inactive)
REMARK    1  A    between atoms: C_1  and  O_2
REMARK    2  A    between atoms: O_2  and  C_3
REMARK    3  A    between atoms: C_6  and  N_7
REMARK    4  A    between atoms: N_7  and  N_8
REMARK    5  A    between atoms: C_9  and  C_10
REMARK    6  A    between atoms: N_12  and  C_13
REMARK    7  A    between atoms: C_13  and  C_14
REMARK                            x       y       z     vdW  Elec       q    Type
REMARK                         _______ _______ _______ _____ _____    ______ ____
ROOT
ATOM      1  C   UNL     1       3.663   5.791  18.324  0.00  0.00    +0.000 A 
ATOM      2  C   UNL     1       2.715   5.071  17.597  0.00  0.00    +0.000 A 
ATOM      3  N   UNL     1       3.377   3.970  17.123  0.00  0.00    +0.000 N 
ATOM      4  C   UNL     1       4.646   4.376  16.798  0.00  0.00    +0.000 A 
ATOM      5  C   UNL     1       5.551   3.811  15.889  0.00  0.00    +0.000 A 
ATOM      6  C   UNL     1       6.861   4.257  15.943  0.00  0.00    +0.000 A 
ATOM      7  C   UNL     1       7.233   5.192  16.910  0.00  0.00    +0.000 A 
ATOM      8  C   UNL     1       6.292   5.764  17.803  0.00  0.00    +0.000 A 
ATOM      9  C   UNL     1       4.932   5.397  17.724  0.00  0.00    +0.000 A 
ENDROOT
BRANCH   1  11
ATOM     10  N   UNL     1       2.104   6.575  20.112  0.00  0.00    +0.000 NA
ATOM     11  C   UNL     1       3.162   6.700  19.360  0.00  0.00    +0.000 C 
BRANCH  10  12
ATOM     12  N   UNL     1       1.872   7.719  20.900  0.00  0.00    +0.000 N 
ATOM     13  H   UNL     1       2.627   8.055  21.495  0.00  0.00    +0.000 HD
BRANCH  12  17
ATOM     14  C   UNL     1      -0.416  11.054  19.503  0.00  0.00    +0.000 A 
ATOM     15  C   UNL     1      -0.593  10.544  20.792  0.00  0.00    +0.000 A 
ATOM     16  C   UNL     1       0.140   9.449  21.249  0.00  0.00    +0.000 A 
ATOM     17  C   UNL     1       1.059   8.788  20.428  0.00  0.00    +0.000 A 
ATOM     18  C   UNL     1       1.239   9.319  19.134  0.00  0.00    +0.000 A 
ATOM     19  C   UNL     1       0.505  10.434  18.663  0.00  0.00    +0.000 A 
BRANCH  14  21
ATOM     20  C   UNL     1      -2.612  11.835  18.929  0.00  0.00    +0.000 C 
ATOM     21  O   UNL     1      -1.241  12.099  19.204  0.00  0.00    +0.000 OA
ENDBRANCH  14  21
ENDBRANCH  12  17
ENDBRANCH  10  12
ENDBRANCH   1  11
BRANCH   3  22
ATOM     22  C   UNL     1       3.114   2.608  17.598  0.00  0.00    +0.000 C 
BRANCH  22  23
ATOM     23  C   UNL     1       2.567   2.621  18.986  0.00  0.00    +0.000 A 
ATOM     24  C   UNL     1       1.205   2.856  19.207  0.00  0.00    +0.000 A 
ATOM     25  C   UNL     1       0.728   2.996  20.506  0.00  0.00    +0.000 A 
ATOM     26  C   UNL     1       1.605   2.892  21.586  0.00  0.00    +0.000 A 
ATOM     27  C   UNL     1       2.955   2.612  21.371  0.00  0.00    +0.000 A 
ATOM     28  C   UNL     1       3.434   2.469  20.075  0.00  0.00    +0.000 A 
ENDBRANCH  22  23
ENDBRANCH   3  22
TORSDOF 6
ENDMDL
MODEL 4
REMARK VINA RESULT:      -8.2      2.148      4.448
REMARK  Name = 
REMARK  7 active torsions:
REMARK  status: ('A' for Active; 'I' for Inactive)
REMARK    1  A    between atoms: C_1  and  O_2
REMARK    2  A    between atoms: O_2  and  C_3
REMARK    3  A    between atoms: C_6  and  N_7
REMARK    4  A    between atoms: N_7  and  N_8
REMARK    5  A    between atoms: C_9  and  C_10
REMARK    6  A    between atoms: N_12  and  C_13
REMARK    7  A    between atoms: C_13  and  C_14
REMARK                            x       y       z     vdW  Elec       q    Type
REMARK                         _______ _______ _______ _____ _____    ______ ____
ROOT
ATOM      1  C   UNL     1       2.531   6.571  18.558  0.00  0.00    +0.000 A 
ATOM      2  C   UNL     1       3.494   6.672  19.563  0.00  0.00    +0.000 A 
ATOM      3  N   UNL     1       4.205   5.503  19.506  0.00  0.00    +0.000 N 
ATOM      4  C   UNL     1       3.312   4.506  19.209  0.00  0.00    +0.000 A 
ATOM      5  C   UNL     1       3.398   3.132  19.472  0.00  0.00    +0.000 A 
ATOM      6  C   UNL     1       2.486   2.308  18.832  0.00  0.00    +0.000 A 
ATOM      7  C   UNL     1       1.571   2.858  17.933  0.00  0.00    +0.000 A 
ATOM      8  C   UNL     1       1.491   4.254  17.702  0.00  0.00    +0.000 A 
ATOM      9  C   UNL     1       2.347   5.134  18.398  0.00  0.00    +0.000 A 
ENDROOT
BRANCH   1  11
ATOM     10  N   UNL     1       1.512   8.849  18.684  0.00  0.00    +0.000 NA
ATOM     11  C   UNL     1       1.984   7.825  18.029  0.00  0.00    +0.000 C 
BRANCH  10  12
ATOM     12  N   UNL     1       0.950   9.816  17.827  0.00  0.00    +0.000 N 
ATOM     13  H   UNL     1       1.219   9.803  16.845  0.00  0.00    +0.000 HD
BRANCH  12  17
ATOM     14  C   UNL     1      -3.066  11.252  18.169  0.00  0.00    +0.000 A 
ATOM     15  C   UNL     1      -2.015  11.873  18.850  0.00  0.00    +0.000 A 
ATOM     16  C   UNL     1      -0.706  11.401  18.754  0.00  0.00    +0.000 A 
ATOM     17  C   UNL     1      -0.389  10.266  18.000  0.00  0.00    +0.000 A 
ATOM     18  C   UNL     1      -1.455   9.656  17.307  0.00  0.00    +0.000 A 
ATOM     19  C   UNL     1      -2.786  10.131  17.394  0.00  0.00    +0.000 A 
BRANCH  14  21
ATOM     20  C   UNL     1      -5.216  11.915  17.335  0.00  0.00    +0.000 C 
ATOM     21  O   UNL     1      -4.287  11.814  18.406  0.00  0.00    +0.000 OA
ENDBRANCH  14  21
ENDBRANCH  12  17
ENDBRANCH  10  12
ENDBRANCH   1  11
BRANCH   3  22
ATOM     22  C   UNL     1       5.599   5.432  19.059  0.00  0.00    +0.000 C 
BRANCH  22  23
ATOM     23  C   UNL     1       5.678   5.282  17.576  0.00  0.00    +0.000 A 
ATOM     24  C   UNL     1       5.445   6.381  16.741  0.00  0.00    +0.000 A 
ATOM     25  C   UNL     1       5.392   6.205  15.363  0.00  0.00    +0.000 A 
ATOM     26  C   UNL     1       5.581   4.935  14.814  0.00  0.00    +0.000 A 
ATOM     27  C   UNL     1       5.860   3.847  15.641  0.00  0.00    +0.000 A 
ATOM     28  C   UNL     1       5.916   4.020  17.018  0.00  0.00    +0.000 A 
ENDBRANCH  22  23
ENDBRANCH   3  22
TORSDOF 6
ENDMDL
MODEL 5
REMARK VINA RESULT:      -8.1      5.002      6.288
REMARK  Name = 
REMARK  7 active torsions:
REMARK  status: ('A' for Active; 'I' for Inactive)
REMARK    1  A    between atoms: C_1  and  O_2
REMARK    2  A    between atoms: O_2  and  C_3
REMARK    3  A    between atoms: C_6  and  N_7
REMARK    4  A    between atoms: N_7  and  N_8
REMARK    5  A    between atoms: C_9  and  C_10
REMARK    6  A    between atoms: N_12  and  C_13
REMARK    7  A    between atoms: C_13  and  C_14
REMARK                            x       y       z     vdW  Elec       q    Type
REMARK                         _______ _______ _______ _____ _____    ______ ____
ROOT
ATOM      1  C   UNL     1       6.845   6.274  17.499  0.00  0.00    +0.000 A 
ATOM      2  C   UNL     1       5.590   6.128  18.089  0.00  0.00    +0.000 A 
ATOM      3  N   UNL     1       5.098   4.942  17.613  0.00  0.00    +0.000 N 
ATOM      4  C   UNL     1       5.497   4.840  16.305  0.00  0.00    +0.000 A 
ATOM      5  C   UNL     1       4.924   4.105  15.258  0.00  0.00    +0.000 A 
ATOM      6  C   UNL     1       5.674   3.963  14.103  0.00  0.00    +0.000 A 
ATOM      7  C   UNL     1       6.960   4.499  14.043  0.00  0.00    +0.000 A 
ATOM      8  C   UNL     1       7.508   5.258  15.108  0.00  0.00    +0.000 A 
ATOM      9  C   UNL     1       6.742   5.496  16.270  0.00  0.00    +0.000 A 
ENDROOT
BRANCH   1  11
ATOM     10  N   UNL     1       7.886   8.436  18.195  0.00  0.00    +0.000 NA
ATOM     11  C   UNL     1       7.812   7.134  18.188  0.00  0.00    +0.000 C 
BRANCH  10  12
ATOM     12  N   UNL     1       9.035   8.902  18.864  0.00  0.00    +0.000 N 
ATOM     13  H   UNL     1       9.910   8.399  18.725  0.00  0.00    +0.000 HD
BRANCH  12  17
ATOM     14  C   UNL     1       9.886  13.055  19.441  0.00  0.00    +0.000 A 
ATOM     15  C   UNL     1       9.720  12.192  20.528  0.00  0.00    +0.000 A 
ATOM     16  C   UNL     1       9.429  10.840  20.347  0.00  0.00    +0.000 A 
ATOM     17  C   UNL     1       9.255  10.292  19.072  0.00  0.00    +0.000 A 
ATOM     18  C   UNL     1       9.438  11.169  17.982  0.00  0.00    +0.000 A 
ATOM     19  C   UNL     1       9.740  12.542  18.156  0.00  0.00    +0.000 A 
BRANCH  14  21
ATOM     20  C   UNL     1      11.466  14.768  20.013  0.00  0.00    +0.000 C 
ATOM     21  O   UNL     1      10.124  14.351  19.796  0.00  0.00    +0.000 OA
ENDBRANCH  14  21
ENDBRANCH  12  17
ENDBRANCH  10  12
ENDBRANCH   1  11
BRANCH   3  22
ATOM     22  C   UNL     1       4.925   3.751  18.449  0.00  0.00    +0.000 C 
BRANCH  22  23
ATOM     23  C   UNL     1       3.517   3.635  18.931  0.00  0.00    +0.000 A 
ATOM     24  C   UNL     1       2.524   3.111  18.095  0.00  0.00    +0.000 A 
ATOM     25  C   UNL     1       1.195   3.126  18.503  0.00  0.00    +0.000 A 
ATOM     26  C   UNL     1       0.854   3.656  19.748  0.00  0.00    +0.000 A 
ATOM     27  C   UNL     1       1.847   4.136  20.603  0.00  0.00    +0.000 A 
ATOM     28  C   UNL     1       3.176   4.120  20.200  0.00  0.00    +0.000 A 
ENDBRANCH  22  23
ENDBRANCH   3  22
TORSDOF 6
ENDMDL
MODEL 6
REMARK VINA RESULT:      -8.1      5.268      6.502
REMARK  Name = 
REMARK  7 active torsions:
REMARK  status: ('A' for Active; 'I' for Inactive)
REMARK    1  A    between atoms: C_1  and  O_2
REMARK    2  A    between atoms: O_2  and  C_3
REMARK    3  A    between atoms: C_6  and  N_7
REMARK    4  A    between atoms: N_7  and  N_8
REMARK    5  A    between atoms: C_9  and  C_10
REMARK    6  A    between atoms: N_12  and  C_13
REMARK    7  A    between atoms: C_13  and  C_14
REMARK                            x       y       z     vdW  Elec       q    Type
REMARK                         _______ _______ _______ _____ _____    ______ ____
ROOT
ATOM      1  C   UNL     1       6.803   6.727  17.454  0.00  0.00    +0.000 A 
ATOM      2  C   UNL     1       5.554   6.668  18.073  0.00  0.00    +0.000 A 
ATOM      3  N   UNL     1       5.063   5.422  17.787  0.00  0.00    +0.000 N 
ATOM      4  C   UNL     1       5.450   5.124  16.506  0.00  0.00    +0.000 A 
ATOM      5  C   UNL     1       4.869   4.237  15.589  0.00  0.00    +0.000 A 
ATOM      6  C   UNL     1       5.608   3.923  14.460  0.00  0.00    +0.000 A 
ATOM      7  C   UNL     1       6.892   4.449  14.306  0.00  0.00    +0.000 A 
ATOM      8  C   UNL     1       7.446   5.362  15.238  0.00  0.00    +0.000 A 
ATOM      9  C   UNL     1       6.691   5.772  16.358  0.00  0.00    +0.000 A 
ENDROOT
BRANCH   1  11
ATOM     10  N   UNL     1       7.820   8.977  17.831  0.00  0.00    +0.000 NA
ATOM     11  C   UNL     1       7.773   7.685  17.995  0.00  0.00    +0.000 C 
BRANCH  10  12
ATOM     12  N   UNL     1       8.979   9.544  18.397  0.00  0.00    +0.000 N 
ATOM     13  H   UNL     1       9.779   8.937  18.564  0.00  0.00    +0.000 HD
BRANCH  12  17
ATOM     14  C   UNL     1      10.248  13.557  17.620  0.00  0.00    +0.000 A 
ATOM     15  C   UNL     1       8.892  13.231  17.715  0.00  0.00    +0.000 A 
ATOM     16  C   UNL     1       8.471  11.923  17.954  0.00  0.00    +0.000 A 
ATOM     17  C   UNL     1       9.384  10.870  18.076  0.00  0.00    +0.000 A 
ATOM     18  C   UNL     1      10.750  11.212  17.992  0.00  0.00    +0.000 A 
ATOM     19  C   UNL     1      11.187  12.538  17.755  0.00  0.00    +0.000 A 
BRANCH  14  21
ATOM     20  C   UNL     1      10.546  15.801  18.417  0.00  0.00    +0.000 C 
ATOM     21  O   UNL     1      10.483  14.871  17.342  0.00  0.00    +0.000 OA
ENDBRANCH  14  21
ENDBRANCH  12  17
ENDBRANCH  10  12
ENDBRANCH   1  11
BRANCH   3  22
ATOM     22  C   UNL     1       4.904   4.371  18.796  0.00  0.00    +0.000 C 
BRANCH  22  23
ATOM     23  C   UNL     1       3.471   4.211  19.181  0.00  0.00    +0.000 A 
ATOM     24  C   UNL     1       2.893   5.066  20.127  0.00  0.00    +0.000 A 
ATOM     25  C   UNL     1       1.599   4.829  20.575  0.00  0.00    +0.000 A 
ATOM     26  C   UNL     1       0.875   3.746  20.076  0.00  0.00    +0.000 A 
ATOM     27  C   UNL     1       1.431   2.919  19.100  0.00  0.00    +0.000 A 
ATOM     28  C   UNL     1       2.723   3.154  18.647  0.00  0.00    +0.000 A 
ENDBRANCH  22  23
ENDBRANCH   3  22
TORSDOF 6
ENDMDL
MODEL 7
REMARK VINA RESULT:      -8.1      1.813      4.214
REMARK  Name = 
REMARK  7 active torsions:
REMARK  status: ('A' for Active; 'I' for Inactive)
REMARK    1  A    between atoms: C_1  and  O_2
REMARK    2  A    between atoms: O_2  and  C_3
REMARK    3  A    between atoms: C_6  and  N_7
REMARK    4  A    between atoms: N_7  and  N_8
REMARK    5  A    between atoms: C_9  and  C_10
REMARK    6  A    between atoms: N_12  and  C_13
REMARK    7  A    between atoms: C_13  and  C_14
REMARK                            x       y       z     vdW  Elec       q    Type
REMARK                         _______ _______ _______ _____ _____    ______ ____
ROOT
ATOM      1  C   UNL     1       2.621   5.970  18.576  0.00  0.00    +0.000 A 
ATOM      2  C   UNL     1       3.571   6.159  19.580  0.00  0.00    +0.000 A 
ATOM      3  N   UNL     1       4.466   5.133  19.433  0.00  0.00    +0.000 N 
ATOM      4  C   UNL     1       3.748   4.024  19.068  0.00  0.00    +0.000 A 
ATOM      5  C   UNL     1       4.067   2.669  19.229  0.00  0.00    +0.000 A 
ATOM      6  C   UNL     1       3.294   1.752  18.535  0.00  0.00    +0.000 A 
ATOM      7  C   UNL     1       2.284   2.202  17.684  0.00  0.00    +0.000 A 
ATOM      8  C   UNL     1       1.967   3.578  17.557  0.00  0.00    +0.000 A 
ATOM      9  C   UNL     1       2.677   4.537  18.311  0.00  0.00    +0.000 A 
ENDROOT
BRANCH   1  11
ATOM     10  N   UNL     1       2.249   8.393  18.093  0.00  0.00    +0.000 NA
ATOM     11  C   UNL     1       1.862   7.148  18.143  0.00  0.00    +0.000 C 
BRANCH  10  12
ATOM     12  N   UNL     1       1.196   9.264  17.750  0.00  0.00    +0.000 N 
ATOM     13  H   UNL     1       0.606   9.018  16.958  0.00  0.00    +0.000 HD
BRANCH  12  17
ATOM     14  C   UNL     1      -0.948  11.552  20.662  0.00  0.00    +0.000 A 
ATOM     15  C   UNL     1       0.304  11.002  20.952  0.00  0.00    +0.000 A 
ATOM     16  C   UNL     1       1.001  10.243  20.012  0.00  0.00    +0.000 A 
ATOM     17  C   UNL     1       0.467   9.969  18.749  0.00  0.00    +0.000 A 
ATOM     18  C   UNL     1      -0.791  10.541  18.462  0.00  0.00    +0.000 A 
ATOM     19  C   UNL     1      -1.503  11.317  19.408  0.00  0.00    +0.000 A 
BRANCH  14  21
ATOM     20  C   UNL     1      -1.764  11.531  22.919  0.00  0.00    +0.000 C 
ATOM     21  O   UNL     1      -1.510  12.229  21.706  0.00  0.00    +0.000 OA
ENDBRANCH  14  21
ENDBRANCH  12  17
ENDBRANCH  10  12
ENDBRANCH   1  11
BRANCH   3  22
ATOM     22  C   UNL     1       5.844   5.330  18.974  0.00  0.00    +0.000 C 
BRANCH  22  23
ATOM     23  C   UNL     1       5.921   5.298  17.484  0.00  0.00    +0.000 A 
ATOM     24  C   UNL     1       5.446   6.377  16.728  0.00  0.00    +0.000 A 
ATOM     25  C   UNL     1       5.402   6.285  15.342  0.00  0.00    +0.000 A 
ATOM     26  C   UNL     1       5.840   5.122  14.705  0.00  0.00    +0.000 A 
ATOM     27  C   UNL     1       6.357   4.064  15.453  0.00  0.00    +0.000 A 
ATOM     28  C   UNL     1       6.405   4.153  16.838  0.00  0.00    +0.000 A 
ENDBRANCH  22  23
ENDBRANCH   3  22
TORSDOF 6
ENDMDL
MODEL 8
REMARK VINA RESULT:      -8.0      0.579      1.095
REMARK  Name = 
REMARK  7 active torsions:
REMARK  status: ('A' for Active; 'I' for Inactive)
REMARK    1  A    between atoms: C_1  and  O_2
REMARK    2  A    between atoms: O_2  and  C_3
REMARK    3  A    between atoms: C_6  and  N_7
REMARK    4  A    between atoms: N_7  and  N_8
REMARK    5  A    between atoms: C_9  and  C_10
REMARK    6  A    between atoms: N_12  and  C_13
REMARK    7  A    between atoms: C_13  and  C_14
REMARK                            x       y       z     vdW  Elec       q    Type
REMARK                         _______ _______ _______ _____ _____    ______ ____
ROOT
ATOM      1  C   UNL     1       3.702   5.991  18.228  0.00  0.00    +0.000 A 
ATOM      2  C   UNL     1       2.764   5.162  17.613  0.00  0.00    +0.000 A 
ATOM      3  N   UNL     1       3.473   4.084  17.156  0.00  0.00    +0.000 N 
ATOM      4  C   UNL     1       4.683   4.557  16.718  0.00  0.00    +0.000 A 
ATOM      5  C   UNL     1       5.565   4.003  15.780  0.00  0.00    +0.000 A 
ATOM      6  C   UNL     1       6.839   4.543  15.715  0.00  0.00    +0.000 A 
ATOM      7  C   UNL     1       7.204   5.560  16.598  0.00  0.00    +0.000 A 
ATOM      8  C   UNL     1       6.286   6.118  17.523  0.00  0.00    +0.000 A 
ATOM      9  C   UNL     1       4.954   5.652  17.561  0.00  0.00    +0.000 A 
ENDROOT
BRANCH   1  11
ATOM     10  N   UNL     1       2.122   6.843  19.965  0.00  0.00    +0.000 NA
ATOM     11  C   UNL     1       3.206   6.925  19.244  0.00  0.00    +0.000 C 
BRANCH  10  12
ATOM     12  N   UNL     1       1.910   8.000  20.740  0.00  0.00    +0.000 N 
ATOM     13  H   UNL     1       2.689   8.364  21.287  0.00  0.00    +0.000 HD
BRANCH  12  17
ATOM     14  C   UNL     1      -0.820  11.011  19.400  0.00  0.00    +0.000 A 
ATOM     15  C   UNL     1       0.038  10.362  18.507  0.00  0.00    +0.000 A 
ATOM     16  C   UNL     1       0.940   9.390  18.940  0.00  0.00    +0.000 A 
ATOM     17  C   UNL     1       1.052   9.043  20.290  0.00  0.00    +0.000 A 
ATOM     18  C   UNL     1       0.172   9.695  21.180  0.00  0.00    +0.000 A 
ATOM     19  C   UNL     1      -0.751  10.678  20.749  0.00  0.00    +0.000 A 
BRANCH  14  21
ATOM     20  C   UNL     1      -2.224  11.673  17.569  0.00  0.00    +0.000 C 
ATOM     21  O   UNL     1      -1.606  11.962  18.818  0.00  0.00    +0.000 OA
ENDBRANCH  14  21
ENDBRANCH  12  17
ENDBRANCH  10  12
ENDBRANCH   1  11
BRANCH   3  22
ATOM     22  C   UNL     1       3.345   2.739  17.724  0.00  0.00    +0.000 C 
BRANCH  22  23
ATOM     23  C   UNL     1       2.715   2.786  19.076  0.00  0.00    +0.000 A 
ATOM     24  C   UNL     1       3.502   2.667  20.228  0.00  0.00    +0.000 A 
ATOM     25  C   UNL     1       2.895   2.582  21.475  0.00  0.00    +0.000 A 
ATOM     26  C   UNL     1       1.504   2.624  21.579  0.00  0.00    +0.000 A 
ATOM     27  C   UNL     1       0.719   2.789  20.437  0.00  0.00    +0.000 A 
ATOM     28  C   UNL     1       1.322   2.878  19.189  0.00  0.00    +0.000 A 
ENDBRANCH  22  23
ENDBRANCH   3  22
TORSDOF 6
ENDMDL
MODEL 9
REMARK VINA RESULT:      -8.0      1.820      4.641
REMARK  Name = 
REMARK  7 active torsions:
REMARK  status: ('A' for Active; 'I' for Inactive)
REMARK    1  A    between atoms: C_1  and  O_2
REMARK    2  A    between atoms: O_2  and  C_3
REMARK    3  A    between atoms: C_6  and  N_7
REMARK    4  A    between atoms: N_7  and  N_8
REMARK    5  A    between atoms: C_9  and  C_10
REMARK    6  A    between atoms: N_12  and  C_13
REMARK    7  A    between atoms: C_13  and  C_14
REMARK                            x       y       z     vdW  Elec       q    Type
REMARK                         _______ _______ _______ _____ _____    ______ ____
ROOT
ATOM      1  C   UNL     1       2.656   6.499  19.092  0.00  0.00    +0.000 A 
ATOM      2  C   UNL     1       3.870   6.194  18.475  0.00  0.00    +0.000 A 
ATOM      3  N   UNL     1       3.860   4.836  18.302  0.00  0.00    +0.000 N 
ATOM      4  C   UNL     1       3.248   4.296  19.403  0.00  0.00    +0.000 A 
ATOM      5  C   UNL     1       3.373   3.010  19.946  0.00  0.00    +0.000 A 
ATOM      6  C   UNL     1       2.445   2.636  20.904  0.00  0.00    +0.000 A 
ATOM      7  C   UNL     1       1.416   3.512  21.248  0.00  0.00    +0.000 A 
ATOM      8  C   UNL     1       1.325   4.817  20.701  0.00  0.00    +0.000 A 
ATOM      9  C   UNL     1       2.300   5.266  19.784  0.00  0.00    +0.000 A 
ENDROOT
BRANCH   1  11
ATOM     10  N   UNL     1       1.845   8.498  17.832  0.00  0.00    +0.000 NA
ATOM     11  C   UNL     1       2.149   7.865  18.932  0.00  0.00    +0.000 C 
BRANCH  10  12
ATOM     12  N   UNL     1       1.516   9.848  18.067  0.00  0.00    +0.000 N 
ATOM     13  H   UNL     1       2.051  10.565  17.581  0.00  0.00    +0.000 HD
BRANCH  12  17
ATOM     14  C   UNL     1      -2.522  11.175  18.555  0.00  0.00    +0.000 A 
ATOM     15  C   UNL     1      -1.492  11.683  19.350  0.00  0.00    +0.000 A 
ATOM     16  C   UNL     1      -0.176  11.245  19.206  0.00  0.00    +0.000 A 
ATOM     17  C   UNL     1       0.169  10.252  18.283  0.00  0.00    +0.000 A 
ATOM     18  C   UNL     1      -0.876   9.755  17.476  0.00  0.00    +0.000 A 
ATOM     19  C   UNL     1      -2.214  10.199  17.612  0.00  0.00    +0.000 A 
BRANCH  14  21
ATOM     20  C   UNL     1      -3.866  12.639  19.900  0.00  0.00    +0.000 C 
ATOM     21  O   UNL     1      -3.753  11.680  18.855  0.00  0.00    +0.000 OA
ENDBRANCH  14  21
ENDBRANCH  12  17
ENDBRANCH  10  12
ENDBRANCH   1  11
BRANCH   3  22
ATOM     22  C   UNL     1       3.760   4.194  16.988  0.00  0.00    +0.000 C 
BRANCH  22  23
ATOM     23  C   UNL     1       5.042   4.318  16.232  0.00  0.00    +0.000 A 
ATOM     24  C   UNL     1       6.249   4.509  16.914  0.00  0.00    +0.000 A 
ATOM     25  C   UNL     1       7.417   4.754  16.200  0.00  0.00    +0.000 A 
ATOM     26  C   UNL     1       7.385   4.800  14.806  0.00  0.00    +0.000 A 
ATOM     27  C   UNL     1       6.192   4.563  14.122  0.00  0.00    +0.000 A 
ATOM     28  C   UNL     1       5.024   4.316  14.832  0.00  0.00    +0.000 A 
ENDBRANCH  22  23
ENDBRANCH   3  22
TORSDOF 6
ENDMDL
