MODEL 1
REMARK VINA RESULT:      -8.0      0.000      0.000
REMARK  Name = 
REMARK  7 active torsions:
REMARK  status: ('A' for Active; 'I' for Inactive)
REMARK    1  A    between atoms: C_1  and  O_2
REMARK    2  A    between atoms: O_2  and  C_3
REMARK    3  A    between atoms: C_9  and  C_10
REMARK    4  A    between atoms: C_10  and  C_11
REMARK    5  A    between atoms: N_13  and  C_14
REMARK    6  A    between atoms: C_21  and  C_22
REMARK    7  A    between atoms: C_24  and  C_26
REMARK                            x       y       z     vdW  Elec       q    Type
REMARK                         _______ _______ _______ _____ _____    ______ ____
ROOT
ATOM      1  C   UNL     1      -2.868  10.265  16.957  0.00  0.00    +0.000 A 
ATOM      2  C   UNL     1      -3.537  11.261  17.654  0.00  0.00    +0.000 A 
ATOM      3  C   UNL     1      -2.899  11.969  18.677  0.00  0.00    +0.000 A 
ATOM      4  C   UNL     1      -1.586  11.616  19.057  0.00  0.00    +0.000 A 
ATOM      5  C   UNL     1      -0.886  10.646  18.333  0.00  0.00    +0.000 A 
ATOM      6  C   UNL     1      -1.546   9.951  17.288  0.00  0.00    +0.000 A 
ATOM      7  C   UNL     1       0.455  10.630  18.823  0.00  0.00    +0.000 A 
ATOM      8  C   UNL     1       0.506  11.507  19.897  0.00  0.00    +0.000 A 
ATOM      9  C   UNL     1       1.671  11.815  20.790  0.00  0.00    +0.000 C 
ATOM     10  N   UNL     1      -0.749  12.103  20.068  0.00  0.00    +0.000 N 
ATOM     11  C   UNL     1      -1.090  13.035  21.082  0.00  0.00    +0.000 C 
ATOM     12  O   UNL     1      -0.179  13.668  21.617  0.00  0.00    +0.000 OA
ENDROOT
BRANCH  11  13
ATOM     13  C   UNL     1      -2.460  13.313  21.581  0.00  0.00    +0.000 A 
ATOM     14  C   UNL     1      -3.185  14.424  21.129  0.00  0.00    +0.000 A 
ATOM     15  C   UNL     1      -4.428  14.718  21.695  0.00  0.00    +0.000 A 
ATOM     16  C   UNL     1      -4.968  13.870  22.663  0.00  0.00    +0.000 A 
ATOM     17 CL   UNL     1      -6.475  14.262  23.392  0.00  0.00    +0.000 Cl
ATOM     18  C   UNL     1      -4.289  12.716  23.052  0.00  0.00    +0.000 A 
ATOM     19  C   UNL     1      -3.034  12.435  22.507  0.00  0.00    +0.000 A 
ENDBRANCH  11  13
BRANCH   1  21
ATOM     20  C   UNL     1      -3.326  10.113  14.642  0.00  0.00    +0.000 C 
ATOM     21  O   UNL     1      -3.410   9.527  15.939  0.00  0.00    +0.000 OA
ENDBRANCH   1  21
BRANCH   7  22
ATOM     22  C   UNL     1       1.605   9.880  18.222  0.00  0.00    +0.000 C 
BRANCH  22  23
ATOM     23  C   UNL     1       1.891   8.487  18.751  0.00  0.00    +0.000 C 
ATOM     24  O   UNL     1       1.621   8.230  19.927  0.00  0.00    +0.000 OA
ATOM     25  N   UNL     1       2.426   7.569  17.860  0.00  0.00    +0.000 N 
ATOM     26  H   UNL     1       2.980   7.957  17.106  0.00  0.00    +0.000 HD
BRANCH  25  27
ATOM     27  C   UNL     1       2.723   6.252  18.267  0.00  0.00    +0.000 A 
ATOM     28  C   UNL     1       3.934   5.938  18.894  0.00  0.00    +0.000 A 
ATOM     29  C   UNL     1       4.263   4.610  19.166  0.00  0.00    +0.000 A 
ATOM     30  C   UNL     1       3.383   3.597  18.797  0.00  0.00    +0.000 A 
ATOM     31 CL   UNL     1       3.830   1.952  19.031  0.00  0.00    +0.000 Cl
ATOM     32  C   UNL     1       2.152   3.906  18.219  0.00  0.00    +0.000 A 
ATOM     33  C   UNL     1       1.804   5.240  17.982  0.00  0.00    +0.000 A 
ENDBRANCH  25  27
ENDBRANCH  22  23
ENDBRANCH   7  22
TORSDOF 5
ENDMDL
MODEL 2
REMARK VINA RESULT:      -7.5      1.146      1.178
REMARK  Name = 
REMARK  7 active torsions:
REMARK  status: ('A' for Active; 'I' for Inactive)
REMARK    1  A    between atoms: C_1  and  O_2
REMARK    2  A    between atoms: O_2  and  C_3
REMARK    3  A    between atoms: C_9  and  C_10
REMARK    4  A    between atoms: C_10  and  C_11
REMARK    5  A    between atoms: N_13  and  C_14
REMARK    6  A    between atoms: C_21  and  C_22
REMARK    7  A    between atoms: C_24  and  C_26
REMARK                            x       y       z     vdW  Elec       q    Type
REMARK                         _______ _______ _______ _____ _____    ______ ____
ROOT
ATOM      1  C   UNL     1      -2.793  10.292  17.234  0.00  0.00    +0.000 A 
ATOM      2  C   UNL     1      -3.559  11.135  18.024  0.00  0.00    +0.000 A 
ATOM      3  C   UNL     1      -2.970  11.894  19.039  0.00  0.00    +0.000 A 
ATOM      4  C   UNL     1      -1.592  11.745  19.313  0.00  0.00    +0.000 A 
ATOM      5  C   UNL     1      -0.801  10.933  18.495  0.00  0.00    +0.000 A 
ATOM      6  C   UNL     1      -1.416  10.184  17.459  0.00  0.00    +0.000 A 
ATOM      7  C   UNL     1       0.557  11.116  18.894  0.00  0.00    +0.000 A 
ATOM      8  C   UNL     1       0.546  11.944  20.008  0.00  0.00    +0.000 A 
ATOM      9  C   UNL     1       1.709  12.401  20.837  0.00  0.00    +0.000 C 
ATOM     10  N   UNL     1      -0.773  12.319  20.291  0.00  0.00    +0.000 N 
ATOM     11  C   UNL     1      -1.182  13.141  21.373  0.00  0.00    +0.000 C 
ATOM     12  O   UNL     1      -0.348  13.892  21.881  0.00  0.00    +0.000 OA
ENDROOT
BRANCH  11  13
ATOM     13  C   UNL     1      -2.539  13.171  21.975  0.00  0.00    +0.000 A 
ATOM     14  C   UNL     1      -3.540  14.011  21.468  0.00  0.00    +0.000 A 
ATOM     15  C   UNL     1      -4.772  14.094  22.121  0.00  0.00    +0.000 A 
ATOM     16  C   UNL     1      -5.021  13.295  23.237  0.00  0.00    +0.000 A 
ATOM     17 CL   UNL     1      -6.521  13.437  24.066  0.00  0.00    +0.000 Cl
ATOM     18  C   UNL     1      -4.060  12.394  23.692  0.00  0.00    +0.000 A 
ATOM     19  C   UNL     1      -2.818  12.329  23.058  0.00  0.00    +0.000 A 
ENDBRANCH  11  13
BRANCH   1  21
ATOM     20  C   UNL     1      -3.024   9.998  14.899  0.00  0.00    +0.000 C 
ATOM     21  O   UNL     1      -3.283   9.518  16.215  0.00  0.00    +0.000 OA
ENDBRANCH   1  21
BRANCH   7  22
ATOM     22  C   UNL     1       1.766  10.589  18.180  0.00  0.00    +0.000 C 
BRANCH  22  23
ATOM     23  C   UNL     1       2.015   9.094  18.226  0.00  0.00    +0.000 C 
ATOM     24  O   UNL     1       2.221   8.492  17.170  0.00  0.00    +0.000 OA
ATOM     25  N   UNL     1       2.017   8.490  19.475  0.00  0.00    +0.000 N 
ATOM     26  H   UNL     1       1.449   8.939  20.183  0.00  0.00    +0.000 HD
BRANCH  25  27
ATOM     27  C   UNL     1       2.239   7.105  19.610  0.00  0.00    +0.000 A 
ATOM     28  C   UNL     1       3.127   6.422  18.771  0.00  0.00    +0.000 A 
ATOM     29  C   UNL     1       3.230   5.033  18.835  0.00  0.00    +0.000 A 
ATOM     30  C   UNL     1       2.433   4.327  19.731  0.00  0.00    +0.000 A 
ATOM     31 CL   UNL     1       2.476   2.607  19.740  0.00  0.00    +0.000 Cl
ATOM     32  C   UNL     1       1.585   5.004  20.607  0.00  0.00    +0.000 A 
ATOM     33  C   UNL     1       1.510   6.401  20.571  0.00  0.00    +0.000 A 
ENDBRANCH  25  27
ENDBRANCH  22  23
ENDBRANCH   7  22
TORSDOF 5
ENDMDL
MODEL 3
REMARK VINA RESULT:      -7.3      0.618      1.168
REMARK  Name = 
REMARK  7 active torsions:
REMARK  status: ('A' for Active; 'I' for Inactive)
REMARK    1  A    between atoms: C_1  and  O_2
REMARK    2  A    between atoms: O_2  and  C_3
REMARK    3  A    between atoms: C_9  and  C_10
REMARK    4  A    between atoms: C_10  and  C_11
REMARK    5  A    between atoms: N_13  and  C_14
REMARK    6  A    between atoms: C_21  and  C_22
REMARK    7  A    between atoms: C_24  and  C_26
REMARK                            x       y       z     vdW  Elec       q    Type
REMARK                         _______ _______ _______ _____ _____    ______ ____
ROOT
ATOM      1  C   UNL     1      -3.046  10.401  17.116  0.00  0.00    +0.000 A 
ATOM      2  C   UNL     1      -3.700  11.355  17.882  0.00  0.00    +0.000 A 
ATOM      3  C   UNL     1      -3.037  12.012  18.923  0.00  0.00    +0.000 A 
ATOM      4  C   UNL     1      -1.712  11.648  19.247  0.00  0.00    +0.000 A 
ATOM      5  C   UNL     1      -1.028  10.721  18.455  0.00  0.00    +0.000 A 
ATOM      6  C   UNL     1      -1.714  10.078  17.393  0.00  0.00    +0.000 A 
ATOM      7  C   UNL     1       0.326  10.688  18.905  0.00  0.00    +0.000 A 
ATOM      8  C   UNL     1       0.403  11.507  20.023  0.00  0.00    +0.000 A 
ATOM      9  C   UNL     1       1.591  11.775  20.898  0.00  0.00    +0.000 C 
ATOM     10  N   UNL     1      -0.850  12.085  20.259  0.00  0.00    +0.000 N 
ATOM     11  C   UNL     1      -1.166  12.962  21.330  0.00  0.00    +0.000 C 
ATOM     12  O   UNL     1      -0.244  13.571  21.873  0.00  0.00    +0.000 OA
ENDROOT
BRANCH  11  13
ATOM     13  C   UNL     1      -2.523  13.205  21.881  0.00  0.00    +0.000 A 
ATOM     14  C   UNL     1      -3.052  12.391  22.892  0.00  0.00    +0.000 A 
ATOM     15  C   UNL     1      -4.370  12.579  23.315  0.00  0.00    +0.000 A 
ATOM     16  C   UNL     1      -5.132  13.614  22.773  0.00  0.00    +0.000 A 
ATOM     17 CL   UNL     1      -6.769  13.811  23.261  0.00  0.00    +0.000 Cl
ATOM     18  C   UNL     1      -4.580  14.482  21.831  0.00  0.00    +0.000 A 
ATOM     19  C   UNL     1      -3.272  14.279  21.387  0.00  0.00    +0.000 A 
ENDBRANCH  11  13
BRANCH   1  21
ATOM     20  C   UNL     1      -3.116  10.040  14.780  0.00  0.00    +0.000 C 
ATOM     21  O   UNL     1      -3.613   9.715  16.075  0.00  0.00    +0.000 OA
ENDBRANCH   1  21
BRANCH   7  22
ATOM     22  C   UNL     1       1.463   9.977  18.235  0.00  0.00    +0.000 C 
BRANCH  22  23
ATOM     23  C   UNL     1       1.856   8.614  18.771  0.00  0.00    +0.000 C 
ATOM     24  O   UNL     1       1.640   8.356  19.958  0.00  0.00    +0.000 OA
ATOM     25  N   UNL     1       2.421   7.719  17.875  0.00  0.00    +0.000 N 
ATOM     26  H   UNL     1       2.925   8.132  17.099  0.00  0.00    +0.000 HD
BRANCH  25  27
ATOM     27  C   UNL     1       2.817   6.432  18.288  0.00  0.00    +0.000 A 
ATOM     28  C   UNL     1       2.225   5.804  19.390  0.00  0.00    +0.000 A 
ATOM     29  C   UNL     1       2.724   4.589  19.861  0.00  0.00    +0.000 A 
ATOM     30  C   UNL     1       3.824   4.011  19.234  0.00  0.00    +0.000 A 
ATOM     31 CL   UNL     1       4.510   2.570  19.875  0.00  0.00    +0.000 Cl
ATOM     32  C   UNL     1       4.385   4.604  18.104  0.00  0.00    +0.000 A 
ATOM     33  C   UNL     1       3.860   5.802  17.607  0.00  0.00    +0.000 A 
ENDBRANCH  25  27
ENDBRANCH  22  23
ENDBRANCH   7  22
TORSDOF 5
ENDMDL
MODEL 4
REMARK VINA RESULT:      -7.0      2.664      3.393
REMARK  Name = 
REMARK  7 active torsions:
REMARK  status: ('A' for Active; 'I' for Inactive)
REMARK    1  A    between atoms: C_1  and  O_2
REMARK    2  A    between atoms: O_2  and  C_3
REMARK    3  A    between atoms: C_9  and  C_10
REMARK    4  A    between atoms: C_10  and  C_11
REMARK    5  A    between atoms: N_13  and  C_14
REMARK    6  A    between atoms: C_21  and  C_22
REMARK    7  A    between atoms: C_24  and  C_26
REMARK                            x       y       z     vdW  Elec       q    Type
REMARK                         _______ _______ _______ _____ _____    ______ ____
ROOT
ATOM      1  C   UNL     1       1.281  13.293  18.782  0.00  0.00    +0.000 A 
ATOM      2  C   UNL     1       0.248  14.130  19.178  0.00  0.00    +0.000 A 
ATOM      3  C   UNL     1      -0.608  13.764  20.221  0.00  0.00    +0.000 A 
ATOM      4  C   UNL     1      -0.467  12.497  20.828  0.00  0.00    +0.000 A 
ATOM      5  C   UNL     1       0.597  11.664  20.469  0.00  0.00    +0.000 A 
ATOM      6  C   UNL     1       1.464  12.062  19.419  0.00  0.00    +0.000 A 
ATOM      7  C   UNL     1       0.590  10.549  21.361  0.00  0.00    +0.000 A 
ATOM      8  C   UNL     1      -0.537  10.677  22.162  0.00  0.00    +0.000 A 
ATOM      9  C   UNL     1      -1.031   9.742  23.225  0.00  0.00    +0.000 C 
ATOM     10  N   UNL     1      -1.210  11.859  21.828  0.00  0.00    +0.000 N 
ATOM     11  C   UNL     1      -2.418  12.314  22.416  0.00  0.00    +0.000 C 
ATOM     12  O   UNL     1      -2.718  11.887  23.532  0.00  0.00    +0.000 OA
ENDROOT
BRANCH  11  13
ATOM     13  C   UNL     1      -3.382  13.259  21.798  0.00  0.00    +0.000 A 
ATOM     14  C   UNL     1      -3.500  14.578  22.255  0.00  0.00    +0.000 A 
ATOM     15  C   UNL     1      -4.489  15.410  21.725  0.00  0.00    +0.000 A 
ATOM     16  C   UNL     1      -5.312  14.944  20.699  0.00  0.00    +0.000 A 
ATOM     17 CL   UNL     1      -6.559  15.955  20.083  0.00  0.00    +0.000 Cl
ATOM     18  C   UNL     1      -5.139  13.661  20.181  0.00  0.00    +0.000 A 
ATOM     19  C   UNL     1      -4.170  12.818  20.728  0.00  0.00    +0.000 A 
ENDBRANCH  11  13
BRANCH   1  21
ATOM     20  C   UNL     1       3.320  14.319  18.164  0.00  0.00    +0.000 C 
ATOM     21  O   UNL     1       2.169  13.573  17.778  0.00  0.00    +0.000 OA
ENDBRANCH   1  21
BRANCH   7  22
ATOM     22  C   UNL     1       1.652   9.498  21.469  0.00  0.00    +0.000 C 
BRANCH  22  23
ATOM     23  C   UNL     1       1.600   8.340  20.491  0.00  0.00    +0.000 C 
ATOM     24  O   UNL     1       1.210   8.551  19.339  0.00  0.00    +0.000 OA
ATOM     25  N   UNL     1       2.022   7.102  20.951  0.00  0.00    +0.000 N 
ATOM     26  H   UNL     1       1.914   6.941  21.945  0.00  0.00    +0.000 HD
BRANCH  25  27
ATOM     27  C   UNL     1       2.006   5.971  20.110  0.00  0.00    +0.000 A 
ATOM     28  C   UNL     1       1.149   4.892  20.354  0.00  0.00    +0.000 A 
ATOM     29  C   UNL     1       1.244   3.730  19.589  0.00  0.00    +0.000 A 
ATOM     30  C   UNL     1       2.209   3.645  18.589  0.00  0.00    +0.000 A 
ATOM     31 CL   UNL     1       2.404   2.176  17.715  0.00  0.00    +0.000 Cl
ATOM     32  C   UNL     1       3.031   4.735  18.306  0.00  0.00    +0.000 A 
ATOM     33  C   UNL     1       2.908   5.916  19.046  0.00  0.00    +0.000 A 
ENDBRANCH  25  27
ENDBRANCH  22  23
ENDBRANCH   7  22
TORSDOF 5
ENDMDL
MODEL 5
REMARK VINA RESULT:      -6.7      5.245      6.654
REMARK  Name = 
REMARK  7 active torsions:
REMARK  status: ('A' for Active; 'I' for Inactive)
REMARK    1  A    between atoms: C_1  and  O_2
REMARK    2  A    between atoms: O_2  and  C_3
REMARK    3  A    between atoms: C_9  and  C_10
REMARK    4  A    between atoms: C_10  and  C_11
REMARK    5  A    between atoms: N_13  and  C_14
REMARK    6  A    between atoms: C_21  and  C_22
REMARK    7  A    between atoms: C_24  and  C_26
REMARK                            x       y       z     vdW  Elec       q    Type
REMARK                         _______ _______ _______ _____ _____    ______ ____
ROOT
ATOM      1  C   UNL     1       1.813  11.205  18.192  0.00  0.00    +0.000 A 
ATOM      2  C   UNL     1       0.569  11.296  18.799  0.00  0.00    +0.000 A 
ATOM      3  C   UNL     1       0.102  12.517  19.293  0.00  0.00    +0.000 A 
ATOM      4  C   UNL     1       0.936  13.656  19.243  0.00  0.00    +0.000 A 
ATOM      5  C   UNL     1       2.172  13.588  18.594  0.00  0.00    +0.000 A 
ATOM      6  C   UNL     1       2.620  12.343  18.085  0.00  0.00    +0.000 A 
ATOM      7  C   UNL     1       2.703  14.913  18.544  0.00  0.00    +0.000 A 
ATOM      8  C   UNL     1       1.833  15.727  19.256  0.00  0.00    +0.000 A 
ATOM      9  C   UNL     1       1.960  17.192  19.545  0.00  0.00    +0.000 C 
ATOM     10  N   UNL     1       0.753  14.961  19.713  0.00  0.00    +0.000 N 
ATOM     11  C   UNL     1      -0.326  15.443  20.499  0.00  0.00    +0.000 C 
ATOM     12  O   UNL     1      -0.565  16.651  20.478  0.00  0.00    +0.000 OA
ENDROOT
BRANCH  11  13
ATOM     13  C   UNL     1      -1.197  14.620  21.374  0.00  0.00    +0.000 A 
ATOM     14  C   UNL     1      -2.527  14.347  21.025  0.00  0.00    +0.000 A 
ATOM     15  C   UNL     1      -3.351  13.660  21.918  0.00  0.00    +0.000 A 
ATOM     16  C   UNL     1      -2.830  13.194  23.126  0.00  0.00    +0.000 A 
ATOM     17 CL   UNL     1      -3.862  12.390  24.243  0.00  0.00    +0.000 Cl
ATOM     18  C   UNL     1      -1.485  13.386  23.438  0.00  0.00    +0.000 A 
ATOM     19  C   UNL     1      -0.666  14.096  22.559  0.00  0.00    +0.000 A 
ENDBRANCH  11  13
BRANCH   1  21
ATOM     20  C   UNL     1       1.630   8.859  17.966  0.00  0.00    +0.000 C 
ATOM     21  O   UNL     1       2.346  10.056  17.674  0.00  0.00    +0.000 OA
ENDBRANCH   1  21
BRANCH   7  22
ATOM     22  C   UNL     1       3.918  15.348  17.782  0.00  0.00    +0.000 C 
BRANCH  22  23
ATOM     23  C   UNL     1       5.274  14.943  18.327  0.00  0.00    +0.000 C 
ATOM     24  O   UNL     1       5.430  14.880  19.549  0.00  0.00    +0.000 OA
ATOM     25  N   UNL     1       6.264  14.641  17.404  0.00  0.00    +0.000 N 
ATOM     26  H   UNL     1       6.188  15.107  16.508  0.00  0.00    +0.000 HD
BRANCH  25  27
ATOM     27  C   UNL     1       7.553  14.256  17.822  0.00  0.00    +0.000 A 
ATOM     28  C   UNL     1       8.428  15.168  18.424  0.00  0.00    +0.000 A 
ATOM     29  C   UNL     1       9.744  14.801  18.707  0.00  0.00    +0.000 A 
ATOM     30  C   UNL     1      10.185  13.524  18.375  0.00  0.00    +0.000 A 
ATOM     31 CL   UNL     1      11.834  13.100  18.622  0.00  0.00    +0.000 Cl
ATOM     32  C   UNL     1       9.305  12.593  17.824  0.00  0.00    +0.000 A 
ATOM     33  C   UNL     1       7.974  12.948  17.576  0.00  0.00    +0.000 A 
ENDBRANCH  25  27
ENDBRANCH  22  23
ENDBRANCH   7  22
TORSDOF 5
ENDMDL
MODEL 6
REMARK VINA RESULT:      -6.7      1.478      2.050
REMARK  Name = 
REMARK  7 active torsions:
REMARK  status: ('A' for Active; 'I' for Inactive)
REMARK    1  A    between atoms: C_1  and  O_2
REMARK    2  A    between atoms: O_2  and  C_3
REMARK    3  A    between atoms: C_9  and  C_10
REMARK    4  A    between atoms: C_10  and  C_11
REMARK    5  A    between atoms: N_13  and  C_14
REMARK    6  A    between atoms: C_21  and  C_22
REMARK    7  A    between atoms: C_24  and  C_26
REMARK                            x       y       z     vdW  Elec       q    Type
REMARK                         _______ _______ _______ _____ _____    ______ ____
ROOT
ATOM      1  C   UNL     1      -3.331  11.141  17.621  0.00  0.00    +0.000 A 
ATOM      2  C   UNL     1      -4.122  11.834  18.526  0.00  0.00    +0.000 A 
ATOM      3  C   UNL     1      -3.544  12.539  19.585  0.00  0.00    +0.000 A 
ATOM      4  C   UNL     1      -2.147  12.485  19.781  0.00  0.00    +0.000 A 
ATOM      5  C   UNL     1      -1.335  11.829  18.851  0.00  0.00    +0.000 A 
ATOM      6  C   UNL     1      -1.941  11.133  17.773  0.00  0.00    +0.000 A 
ATOM      7  C   UNL     1       0.022  12.090  19.206  0.00  0.00    +0.000 A 
ATOM      8  C   UNL     1       0.001  12.802  20.397  0.00  0.00    +0.000 A 
ATOM      9  C   UNL     1       1.165  13.275  21.216  0.00  0.00    +0.000 C 
ATOM     10  N   UNL     1      -1.327  13.031  20.776  0.00  0.00    +0.000 N 
ATOM     11  C   UNL     1      -1.745  13.704  21.953  0.00  0.00    +0.000 C 
ATOM     12  O   UNL     1      -0.950  14.472  22.496  0.00  0.00    +0.000 OA
ENDROOT
BRANCH  11  13
ATOM     13  C   UNL     1      -3.066  13.557  22.614  0.00  0.00    +0.000 A 
ATOM     14  C   UNL     1      -3.313  12.514  23.517  0.00  0.00    +0.000 A 
ATOM     15  C   UNL     1      -4.596  12.339  24.041  0.00  0.00    +0.000 A 
ATOM     16  C   UNL     1      -5.609  13.240  23.712  0.00  0.00    +0.000 A 
ATOM     17 CL   UNL     1      -7.198  12.993  24.321  0.00  0.00    +0.000 Cl
ATOM     18  C   UNL     1      -5.345  14.330  22.884  0.00  0.00    +0.000 A 
ATOM     19  C   UNL     1      -4.071  14.491  22.337  0.00  0.00    +0.000 A 
ENDBRANCH  11  13
BRANCH   1  21
ATOM     20  C   UNL     1      -2.830  10.009  15.606  0.00  0.00    +0.000 C 
ATOM     21  O   UNL     1      -3.809  10.431  16.552  0.00  0.00    +0.000 OA
ENDBRANCH   1  21
BRANCH   7  22
ATOM     22  C   UNL     1       1.231  11.743  18.390  0.00  0.00    +0.000 C 
BRANCH  22  23
ATOM     23  C   UNL     1       1.669  10.292  18.363  0.00  0.00    +0.000 C 
ATOM     24  O   UNL     1       2.339   9.889  17.409  0.00  0.00    +0.000 OA
ATOM     25  N   UNL     1       1.304   9.499  19.441  0.00  0.00    +0.000 N 
ATOM     26  H   UNL     1       0.454   9.771  19.920  0.00  0.00    +0.000 HD
BRANCH  25  27
ATOM     27  C   UNL     1       1.668   8.139  19.498  0.00  0.00    +0.000 A 
ATOM     28  C   UNL     1       1.450   7.373  20.649  0.00  0.00    +0.000 A 
ATOM     29  C   UNL     1       1.939   6.068  20.730  0.00  0.00    +0.000 A 
ATOM     30  C   UNL     1       2.657   5.538  19.662  0.00  0.00    +0.000 A 
ATOM     31 CL   UNL     1       3.355   3.971  19.797  0.00  0.00    +0.000 Cl
ATOM     32  C   UNL     1       2.833   6.277  18.492  0.00  0.00    +0.000 A 
ATOM     33  C   UNL     1       2.308   7.570  18.395  0.00  0.00    +0.000 A 
ENDBRANCH  25  27
ENDBRANCH  22  23
ENDBRANCH   7  22
TORSDOF 5
ENDMDL
MODEL 7
REMARK VINA RESULT:      -6.6      5.324      6.803
REMARK  Name = 
REMARK  7 active torsions:
REMARK  status: ('A' for Active; 'I' for Inactive)
REMARK    1  A    between atoms: C_1  and  O_2
REMARK    2  A    between atoms: O_2  and  C_3
REMARK    3  A    between atoms: C_9  and  C_10
REMARK    4  A    between atoms: C_10  and  C_11
REMARK    5  A    between atoms: N_13  and  C_14
REMARK    6  A    between atoms: C_21  and  C_22
REMARK    7  A    between atoms: C_24  and  C_26
REMARK                            x       y       z     vdW  Elec       q    Type
REMARK                         _______ _______ _______ _____ _____    ______ ____
ROOT
ATOM      1  C   UNL     1       1.746  11.269  18.210  0.00  0.00    +0.000 A 
ATOM      2  C   UNL     1       0.526  11.447  18.846  0.00  0.00    +0.000 A 
ATOM      3  C   UNL     1       0.153  12.701  19.337  0.00  0.00    +0.000 A 
ATOM      4  C   UNL     1       1.059  13.781  19.255  0.00  0.00    +0.000 A 
ATOM      5  C   UNL     1       2.272  13.626  18.577  0.00  0.00    +0.000 A 
ATOM      6  C   UNL     1       2.624  12.349  18.070  0.00  0.00    +0.000 A 
ATOM      7  C   UNL     1       2.887  14.912  18.499  0.00  0.00    +0.000 A 
ATOM      8  C   UNL     1       2.090  15.789  19.222  0.00  0.00    +0.000 A 
ATOM      9  C   UNL     1       2.321  17.246  19.492  0.00  0.00    +0.000 C 
ATOM     10  N   UNL     1       0.974  15.101  19.713  0.00  0.00    +0.000 N 
ATOM     11  C   UNL     1      -0.051  15.660  20.520  0.00  0.00    +0.000 C 
ATOM     12  O   UNL     1      -0.211  16.881  20.491  0.00  0.00    +0.000 OA
ENDROOT
BRANCH  11  13
ATOM     13  C   UNL     1      -0.952  14.905  21.425  0.00  0.00    +0.000 A 
ATOM     14  C   UNL     1      -0.482  14.358  22.627  0.00  0.00    +0.000 A 
ATOM     15  C   UNL     1      -1.328  13.563  23.405  0.00  0.00    +0.000 A 
ATOM     16  C   UNL     1      -2.652  13.369  23.013  0.00  0.00    +0.000 A 
ATOM     17 CL   UNL     1      -3.675  12.350  23.948  0.00  0.00    +0.000 Cl
ATOM     18  C   UNL     1      -3.149  13.984  21.864  0.00  0.00    +0.000 A 
ATOM     19  C   UNL     1      -2.299  14.756  21.071  0.00  0.00    +0.000 A 
ENDBRANCH  11  13
BRANCH   1  21
ATOM     20  C   UNL     1       1.789   8.912  18.402  0.00  0.00    +0.000 C 
ATOM     21  O   UNL     1       2.190  10.081  17.692  0.00  0.00    +0.000 OA
ENDBRANCH   1  21
BRANCH   7  22
ATOM     22  C   UNL     1       4.109  15.259  17.703  0.00  0.00    +0.000 C 
BRANCH  22  23
ATOM     23  C   UNL     1       5.459  14.901  18.294  0.00  0.00    +0.000 C 
ATOM     24  O   UNL     1       5.576  14.840  19.520  0.00  0.00    +0.000 OA
ATOM     25  N   UNL     1       6.490  14.637  17.405  0.00  0.00    +0.000 N 
ATOM     26  H   UNL     1       6.428  15.103  16.507  0.00  0.00    +0.000 HD
BRANCH  25  27
ATOM     27  C   UNL     1       7.778  14.297  17.866  0.00  0.00    +0.000 A 
ATOM     28  C   UNL     1       8.260  12.986  17.785  0.00  0.00    +0.000 A 
ATOM     29  C   UNL     1       9.481  12.646  18.368  0.00  0.00    +0.000 A 
ATOM     30  C   UNL     1      10.211  13.620  19.044  0.00  0.00    +0.000 A 
ATOM     31 CL   UNL     1      11.663  13.184  19.857  0.00  0.00    +0.000 Cl
ATOM     32  C   UNL     1       9.762  14.940  19.084  0.00  0.00    +0.000 A 
ATOM     33  C   UNL     1       8.557  15.289  18.464  0.00  0.00    +0.000 A 
ENDBRANCH  25  27
ENDBRANCH  22  23
ENDBRANCH   7  22
TORSDOF 5
ENDMDL
MODEL 8
REMARK VINA RESULT:      -6.5      1.858      8.476
REMARK  Name = 
REMARK  7 active torsions:
REMARK  status: ('A' for Active; 'I' for Inactive)
REMARK    1  A    between atoms: C_1  and  O_2
REMARK    2  A    between atoms: O_2  and  C_3
REMARK    3  A    between atoms: C_9  and  C_10
REMARK    4  A    between atoms: C_10  and  C_11
REMARK    5  A    between atoms: N_13  and  C_14
REMARK    6  A    between atoms: C_21  and  C_22
REMARK    7  A    between atoms: C_24  and  C_26
REMARK                            x       y       z     vdW  Elec       q    Type
REMARK                         _______ _______ _______ _____ _____    ______ ____
ROOT
ATOM      1  C   UNL     1      -2.368  10.949  16.654  0.00  0.00    +0.000 A 
ATOM      2  C   UNL     1      -1.851   9.721  17.036  0.00  0.00    +0.000 A 
ATOM      3  C   UNL     1      -1.008   9.615  18.146  0.00  0.00    +0.000 A 
ATOM      4  C   UNL     1      -0.616  10.781  18.840  0.00  0.00    +0.000 A 
ATOM      5  C   UNL     1      -1.165  12.018  18.492  0.00  0.00    +0.000 A 
ATOM      6  C   UNL     1      -2.033  12.102  17.372  0.00  0.00    +0.000 A 
ATOM      7  C   UNL     1      -0.732  12.969  19.465  0.00  0.00    +0.000 A 
ATOM      8  C   UNL     1       0.152  12.312  20.310  0.00  0.00    +0.000 A 
ATOM      9  C   UNL     1       0.925  12.875  21.464  0.00  0.00    +0.000 C 
ATOM     10  N   UNL     1       0.251  10.970  19.921  0.00  0.00    +0.000 N 
ATOM     11  C   UNL     1       1.079   9.993  20.533  0.00  0.00    +0.000 C 
ATOM     12  O   UNL     1       1.449  10.189  21.692  0.00  0.00    +0.000 OA
ENDROOT
BRANCH  11  13
ATOM     13  C   UNL     1       1.566   8.745  19.894  0.00  0.00    +0.000 A 
ATOM     14  C   UNL     1       2.038   8.742  18.574  0.00  0.00    +0.000 A 
ATOM     15  C   UNL     1       2.389   7.535  17.966  0.00  0.00    +0.000 A 
ATOM     16  C   UNL     1       2.329   6.347  18.695  0.00  0.00    +0.000 A 
ATOM     17 CL   UNL     1       2.716   4.857  17.928  0.00  0.00    +0.000 Cl
ATOM     18  C   UNL     1       1.945   6.357  20.035  0.00  0.00    +0.000 A 
ATOM     19  C   UNL     1       1.567   7.559  20.637  0.00  0.00    +0.000 A 
ENDBRANCH  11  13
BRANCH   1  21
ATOM     20  C   UNL     1      -3.114  10.177  14.547  0.00  0.00    +0.000 C 
ATOM     21  O   UNL     1      -3.205  11.146  15.588  0.00  0.00    +0.000 OA
ENDBRANCH   1  21
BRANCH   7  22
ATOM     22  C   UNL     1      -1.219  14.380  19.599  0.00  0.00    +0.000 C 
BRANCH  22  23
ATOM     23  C   UNL     1      -2.381  14.637  20.540  0.00  0.00    +0.000 C 
ATOM     24  O   UNL     1      -2.604  15.793  20.908  0.00  0.00    +0.000 OA
ATOM     25  N   UNL     1      -3.146  13.543  20.916  0.00  0.00    +0.000 N 
ATOM     26  H   UNL     1      -2.667  12.651  20.922  0.00  0.00    +0.000 HD
BRANCH  25  27
ATOM     27  C   UNL     1      -4.243  13.691  21.788  0.00  0.00    +0.000 A 
ATOM     28  C   UNL     1      -4.087  13.619  23.177  0.00  0.00    +0.000 A 
ATOM     29  C   UNL     1      -5.203  13.634  24.014  0.00  0.00    +0.000 A 
ATOM     30  C   UNL     1      -6.476  13.708  23.457  0.00  0.00    +0.000 A 
ATOM     31 CL   UNL     1      -7.860  13.617  24.475  0.00  0.00    +0.000 Cl
ATOM     32  C   UNL     1      -6.637  13.832  22.077  0.00  0.00    +0.000 A 
ATOM     33  C   UNL     1      -5.516  13.858  21.240  0.00  0.00    +0.000 A 
ENDBRANCH  25  27
ENDBRANCH  22  23
ENDBRANCH   7  22
TORSDOF 5
ENDMDL
MODEL 9
REMARK VINA RESULT:      -6.4      4.810      6.581
REMARK  Name = 
REMARK  7 active torsions:
REMARK  status: ('A' for Active; 'I' for Inactive)
REMARK    1  A    between atoms: C_1  and  O_2
REMARK    2  A    between atoms: O_2  and  C_3
REMARK    3  A    between atoms: C_9  and  C_10
REMARK    4  A    between atoms: C_10  and  C_11
REMARK    5  A    between atoms: N_13  and  C_14
REMARK    6  A    between atoms: C_21  and  C_22
REMARK    7  A    between atoms: C_24  and  C_26
REMARK                            x       y       z     vdW  Elec       q    Type
REMARK                         _______ _______ _______ _____ _____    ______ ____
ROOT
ATOM      1  C   UNL     1       0.855  10.643  19.366  0.00  0.00    +0.000 A 
ATOM      2  C   UNL     1      -0.380  10.778  19.983  0.00  0.00    +0.000 A 
ATOM      3  C   UNL     1      -0.956  12.039  20.158  0.00  0.00    +0.000 A 
ATOM      4  C   UNL     1      -0.241  13.194  19.773  0.00  0.00    +0.000 A 
ATOM      5  C   UNL     1       0.984  13.069  19.109  0.00  0.00    +0.000 A 
ATOM      6  C   UNL     1       1.544  11.779  18.927  0.00  0.00    +0.000 A 
ATOM      7  C   UNL     1       1.379  14.374  18.688  0.00  0.00    +0.000 A 
ATOM      8  C   UNL     1       0.446  15.267  19.198  0.00  0.00    +0.000 A 
ATOM      9  C   UNL     1       0.433  16.762  19.085  0.00  0.00    +0.000 C 
ATOM     10  N   UNL     1      -0.543  14.556  19.888  0.00  0.00    +0.000 N 
ATOM     11  C   UNL     1      -1.650  15.130  20.567  0.00  0.00    +0.000 C 
ATOM     12  O   UNL     1      -2.009  16.261  20.239  0.00  0.00    +0.000 OA
ENDROOT
BRANCH  11  13
ATOM     13  C   UNL     1      -2.418  14.494  21.667  0.00  0.00    +0.000 A 
ATOM     14  C   UNL     1      -1.887  14.396  22.961  0.00  0.00    +0.000 A 
ATOM     15  C   UNL     1      -2.589  13.699  23.947  0.00  0.00    +0.000 A 
ATOM     16  C   UNL     1      -3.842  13.158  23.656  0.00  0.00    +0.000 A 
ATOM     17 CL   UNL     1      -4.680  12.260  24.860  0.00  0.00    +0.000 Cl
ATOM     18  C   UNL     1      -4.412  13.330  22.396  0.00  0.00    +0.000 A 
ATOM     19  C   UNL     1      -3.701  14.002  21.401  0.00  0.00    +0.000 A 
ENDBRANCH  11  13
BRANCH   1  21
ATOM     20  C   UNL     1       1.872   9.195  17.797  0.00  0.00    +0.000 C 
ATOM     21  O   UNL     1       1.491   9.450  19.147  0.00  0.00    +0.000 OA
ENDBRANCH   1  21
BRANCH   7  22
ATOM     22  C   UNL     1       2.530  14.700  17.785  0.00  0.00    +0.000 C 
BRANCH  22  23
ATOM     23  C   UNL     1       3.925  14.657  18.378  0.00  0.00    +0.000 C 
ATOM     24  O   UNL     1       4.054  14.400  19.578  0.00  0.00    +0.000 OA
ATOM     25  N   UNL     1       4.987  14.892  17.518  0.00  0.00    +0.000 N 
ATOM     26  H   UNL     1       4.786  15.481  16.719  0.00  0.00    +0.000 HD
BRANCH  25  27
ATOM     27  C   UNL     1       6.317  14.873  17.985  0.00  0.00    +0.000 A 
ATOM     28  C   UNL     1       6.859  15.955  18.688  0.00  0.00    +0.000 A 
ATOM     29  C   UNL     1       8.213  15.971  19.022  0.00  0.00    +0.000 A 
ATOM     30  C   UNL     1       9.026  14.907  18.640  0.00  0.00    +0.000 A 
ATOM     31 CL   UNL     1      10.716  14.969  18.954  0.00  0.00    +0.000 Cl
ATOM     32  C   UNL     1       8.482  13.802  17.986  0.00  0.00    +0.000 A 
ATOM     33  C   UNL     1       7.116  13.768  17.686  0.00  0.00    +0.000 A 
ENDBRANCH  25  27
ENDBRANCH  22  23
ENDBRANCH   7  22
TORSDOF 5
ENDMDL
