MODEL 1
REMARK VINA RESULT:      -6.4      0.000      0.000
REMARK  Name = 
REMARK  10 active torsions:
REMARK  status: ('A' for Active; 'I' for Inactive)
REMARK    1  A    between atoms: C_1  and  O_2
REMARK    2  A    between atoms: O_2  and  C_3
REMARK    3  A    between atoms: C_9  and  O_10
REMARK    4  A    between atoms: C_11  and  C_12
REMARK    5  A    between atoms: C_12  and  N_13
REMARK    6  A    between atoms: C_14  and  C_15
REMARK    7  A    between atoms: C_15  and  O_16
REMARK    8  A    between atoms: C_17  and  C_18
REMARK    9  A    between atoms: C_24  and  C_25
REMARK   10  A    between atoms: C_28  and  C_29
REMARK                            x       y       z     vdW  Elec       q    Type
REMARK                         _______ _______ _______ _____ _____    ______ ____
ROOT
ATOM      1  C   UNL     1      -0.245  14.497  22.334  0.00  0.00    +0.000 A 
ATOM      2  C   UNL     1      -1.343  14.599  23.205  0.00  0.00    +0.000 A 
ATOM      3  N   UNL     1      -2.112  13.562  23.637  0.00  0.00    +0.000 NA
ATOM      4  C   UNL     1      -1.822  12.350  23.134  0.00  0.00    +0.000 A 
ATOM      5  C   UNL     1      -0.797  12.174  22.231  0.00  0.00    +0.000 A 
ATOM      6  C   UNL     1       0.055  13.219  21.870  0.00  0.00    +0.000 A 
ATOM      7  C   UNL     1       1.008  12.668  20.806  0.00  0.00    +0.000 C 
ATOM      8  C   UNL     1       1.323  13.567  19.590  0.00  0.00    +0.000 C 
ATOM      9  C   UNL     1       0.141  13.366  18.583  0.00  0.00    +0.000 C 
ATOM     10  C   UNL     1      -0.886  12.469  19.332  0.00  0.00    +0.000 C 
ATOM     11  C   UNL     1       0.035  11.537  20.256  0.00  0.00    +0.000 C 
ATOM     12  O   UNL     1      -0.704  11.067  21.435  0.00  0.00    +0.000 OA
ENDROOT
BRANCH  10  13
ATOM     13  C   UNL     1      -2.075  11.877  18.601  0.00  0.00    +0.000 A 
ATOM     14  C   UNL     1      -1.992  11.369  17.299  0.00  0.00    +0.000 A 
ATOM     15  C   UNL     1      -3.145  11.017  16.598  0.00  0.00    +0.000 A 
ATOM     16  C   UNL     1      -4.396  11.153  17.193  0.00  0.00    +0.000 A 
ATOM     17  C   UNL     1      -4.495  11.613  18.499  0.00  0.00    +0.000 A 
ATOM     18  C   UNL     1      -3.345  11.968  19.197  0.00  0.00    +0.000 A 
ENDBRANCH  10  13
BRANCH  11  19
ATOM     19  C   UNL     1       0.528  10.221  19.607  0.00  0.00    +0.000 A 
ATOM     20  C   UNL     1       0.852   9.079  20.362  0.00  0.00    +0.000 A 
ATOM     21  C   UNL     1       1.683   8.059  19.869  0.00  0.00    +0.000 A 
ATOM     22  C   UNL     1       2.152   8.107  18.563  0.00  0.00    +0.000 A 
ATOM     23  C   UNL     1       1.727   9.150  17.741  0.00  0.00    +0.000 A 
ATOM     24  C   UNL     1       0.922  10.191  18.255  0.00  0.00    +0.000 A 
BRANCH  22  25
ATOM     25  C   UNL     1       3.083   7.118  18.094  0.00  0.00    +0.000 C 
ATOM     26  N   UNL     1       3.831   6.327  17.695  0.00  0.00    +0.000 NA
ENDBRANCH  22  25
ENDBRANCH  11  19
BRANCH   1  28
ATOM     27  C   UNL     1       0.075  16.854  22.363  0.00  0.00    +0.000 C 
ATOM     28  O   UNL     1       0.471  15.566  21.874  0.00  0.00    +0.000 OA
ENDBRANCH   1  28
BRANCH   7  29
ATOM     29  O   UNL     1       2.171  12.223  21.486  0.00  0.00    +0.000 OA
ATOM     30  H   UNL     1       2.123  11.251  21.539  0.00  0.00    +0.000 HD
ENDBRANCH   7  29
BRANCH   8  31
ATOM     31  C   UNL     1       2.721  13.383  18.960  0.00  0.00    +0.000 C 
BRANCH  31  32
ATOM     32  N   UNL     1       2.766  13.039  17.551  0.00  0.00    +0.000 NA
ATOM     33  H   UNL     1       2.494  12.069  17.380  0.00  0.00    +0.000 HD
ATOM     34  H   UNL     1       3.725  13.148  17.192  0.00  0.00    +0.000 HD
ENDBRANCH  31  32
ENDBRANCH   8  31
BRANCH   9  35
ATOM     35  C   UNL     1      -0.467  14.721  18.184  0.00  0.00    +0.000 C 
BRANCH  35  36
ATOM     36  O   UNL     1      -1.179  15.289  19.274  0.00  0.00    +0.000 OA
ATOM     37  H   UNL     1      -2.055  14.872  19.327  0.00  0.00    +0.000 HD
ENDBRANCH  35  36
ENDBRANCH   9  35
TORSDOF 9
ENDMDL
MODEL 2
REMARK VINA RESULT:      -6.2      2.596      3.560
REMARK  Name = 
REMARK  10 active torsions:
REMARK  status: ('A' for Active; 'I' for Inactive)
REMARK    1  A    between atoms: C_1  and  O_2
REMARK    2  A    between atoms: O_2  and  C_3
REMARK    3  A    between atoms: C_9  and  O_10
REMARK    4  A    between atoms: C_11  and  C_12
REMARK    5  A    between atoms: C_12  and  N_13
REMARK    6  A    between atoms: C_14  and  C_15
REMARK    7  A    between atoms: C_15  and  O_16
REMARK    8  A    between atoms: C_17  and  C_18
REMARK    9  A    between atoms: C_24  and  C_25
REMARK   10  A    between atoms: C_28  and  C_29
REMARK                            x       y       z     vdW  Elec       q    Type
REMARK                         _______ _______ _______ _____ _____    ______ ____
ROOT
ATOM      1  C   UNL     1      -3.663  15.978  23.476  0.00  0.00    +0.000 A 
ATOM      2  C   UNL     1      -5.051  15.854  23.658  0.00  0.00    +0.000 A 
ATOM      3  N   UNL     1      -5.725  14.687  23.845  0.00  0.00    +0.000 NA
ATOM      4  C   UNL     1      -4.998  13.558  23.791  0.00  0.00    +0.000 A 
ATOM      5  C   UNL     1      -3.641  13.590  23.559  0.00  0.00    +0.000 A 
ATOM      6  C   UNL     1      -2.936  14.791  23.471  0.00  0.00    +0.000 A 
ATOM      7  C   UNL     1      -1.485  14.431  23.138  0.00  0.00    +0.000 C 
ATOM      8  C   UNL     1      -0.754  15.296  22.087  0.00  0.00    +0.000 C 
ATOM      9  C   UNL     1      -1.176  14.730  20.690  0.00  0.00    +0.000 C 
ATOM     10  C   UNL     1      -2.257  13.654  20.994  0.00  0.00    +0.000 C 
ATOM     11  C   UNL     1      -1.800  13.054  22.408  0.00  0.00    +0.000 C 
ATOM     12  O   UNL     1      -2.944  12.492  23.138  0.00  0.00    +0.000 OA
ENDROOT
BRANCH  10  13
ATOM     13  C   UNL     1      -2.757  12.729  19.901  0.00  0.00    +0.000 A 
ATOM     14  C   UNL     1      -1.919  12.191  18.917  0.00  0.00    +0.000 A 
ATOM     15  C   UNL     1      -2.452  11.507  17.825  0.00  0.00    +0.000 A 
ATOM     16  C   UNL     1      -3.829  11.340  17.707  0.00  0.00    +0.000 A 
ATOM     17  C   UNL     1      -4.673  11.828  18.696  0.00  0.00    +0.000 A 
ATOM     18  C   UNL     1      -4.141  12.513  19.784  0.00  0.00    +0.000 A 
ENDBRANCH  10  13
BRANCH  11  19
ATOM     19  C   UNL     1      -0.808  11.867  22.348  0.00  0.00    +0.000 A 
ATOM     20  C   UNL     1       0.277  11.831  21.454  0.00  0.00    +0.000 A 
ATOM     21  C   UNL     1       0.910  10.634  21.081  0.00  0.00    +0.000 A 
ATOM     22  C   UNL     1       0.531   9.431  21.663  0.00  0.00    +0.000 A 
ATOM     23  C   UNL     1      -0.440   9.452  22.663  0.00  0.00    +0.000 A 
ATOM     24  C   UNL     1      -1.098  10.656  23.005  0.00  0.00    +0.000 A 
BRANCH  22  25
ATOM     25  C   UNL     1       1.108   8.196  21.208  0.00  0.00    +0.000 C 
ATOM     26  N   UNL     1       1.589   7.201  20.856  0.00  0.00    +0.000 NA
ENDBRANCH  22  25
ENDBRANCH  11  19
BRANCH   1  28
ATOM     27  C   UNL     1      -3.535  18.312  23.916  0.00  0.00    +0.000 C 
ATOM     28  O   UNL     1      -3.024  17.160  23.232  0.00  0.00    +0.000 OA
ENDBRANCH   1  28
BRANCH   7  29
ATOM     29  O   UNL     1      -0.789  14.346  24.372  0.00  0.00    +0.000 OA
ATOM     30  H   UNL     1       0.157  14.481  24.182  0.00  0.00    +0.000 HD
ENDBRANCH   7  29
BRANCH   8  31
ATOM     31  C   UNL     1       0.773  15.434  22.272  0.00  0.00    +0.000 C 
BRANCH  31  32
ATOM     32  N   UNL     1       1.229  16.273  23.363  0.00  0.00    +0.000 NA
ATOM     33  H   UNL     1       2.050  15.887  23.833  0.00  0.00    +0.000 HD
ATOM     34  H   UNL     1       0.490  16.358  24.076  0.00  0.00    +0.000 HD
ENDBRANCH  31  32
ENDBRANCH   8  31
BRANCH   9  35
ATOM     35  C   UNL     1      -1.725  15.855  19.794  0.00  0.00    +0.000 C 
BRANCH  35  36
ATOM     36  O   UNL     1      -3.032  16.228  20.206  0.00  0.00    +0.000 OA
ATOM     37  H   UNL     1      -3.016  17.157  20.492  0.00  0.00    +0.000 HD
ENDBRANCH  35  36
ENDBRANCH   9  35
TORSDOF 9
ENDMDL
MODEL 3
REMARK VINA RESULT:      -6.2      3.175      5.788
REMARK  Name = 
REMARK  10 active torsions:
REMARK  status: ('A' for Active; 'I' for Inactive)
REMARK    1  A    between atoms: C_1  and  O_2
REMARK    2  A    between atoms: O_2  and  C_3
REMARK    3  A    between atoms: C_9  and  O_10
REMARK    4  A    between atoms: C_11  and  C_12
REMARK    5  A    between atoms: C_12  and  N_13
REMARK    6  A    between atoms: C_14  and  C_15
REMARK    7  A    between atoms: C_15  and  O_16
REMARK    8  A    between atoms: C_17  and  C_18
REMARK    9  A    between atoms: C_24  and  C_25
REMARK   10  A    between atoms: C_28  and  C_29
REMARK                            x       y       z     vdW  Elec       q    Type
REMARK                         _______ _______ _______ _____ _____    ______ ____
ROOT
ATOM      1  C   UNL     1      -2.926  16.211  22.733  0.00  0.00    +0.000 A 
ATOM      2  C   UNL     1      -1.770  16.969  22.985  0.00  0.00    +0.000 A 
ATOM      3  N   UNL     1      -0.636  16.960  22.233  0.00  0.00    +0.000 NA
ATOM      4  C   UNL     1      -0.610  16.104  21.197  0.00  0.00    +0.000 A 
ATOM      5  C   UNL     1      -1.680  15.285  20.916  0.00  0.00    +0.000 A 
ATOM      6  C   UNL     1      -2.879  15.370  21.624  0.00  0.00    +0.000 A 
ATOM      7  C   UNL     1      -3.794  14.266  21.084  0.00  0.00    +0.000 C 
ATOM      8  C   UNL     1      -4.621  13.456  22.107  0.00  0.00    +0.000 C 
ATOM      9  C   UNL     1      -3.664  12.344  22.656  0.00  0.00    +0.000 C 
ATOM     10  C   UNL     1      -2.273  12.658  22.033  0.00  0.00    +0.000 C 
ATOM     11  C   UNL     1      -2.636  13.288  20.604  0.00  0.00    +0.000 C 
ATOM     12  O   UNL     1      -1.565  14.173  20.130  0.00  0.00    +0.000 OA
ENDROOT
BRANCH  10  13
ATOM     13  C   UNL     1      -1.127  11.673  22.161  0.00  0.00    +0.000 A 
ATOM     14  C   UNL     1      -0.021  11.677  21.304  0.00  0.00    +0.000 A 
ATOM     15  C   UNL     1       0.908  10.638  21.336  0.00  0.00    +0.000 A 
ATOM     16  C   UNL     1       0.752   9.587  22.234  0.00  0.00    +0.000 A 
ATOM     17  C   UNL     1      -0.315   9.587  23.123  0.00  0.00    +0.000 A 
ATOM     18  C   UNL     1      -1.243  10.623  23.088  0.00  0.00    +0.000 A 
ENDBRANCH  10  13
BRANCH  11  19
ATOM     19  C   UNL     1      -2.794  12.277  19.442  0.00  0.00    +0.000 A 
ATOM     20  C   UNL     1      -1.711  11.869  18.641  0.00  0.00    +0.000 A 
ATOM     21  C   UNL     1      -1.884  11.319  17.360  0.00  0.00    +0.000 A 
ATOM     22  C   UNL     1      -3.161  11.076  16.869  0.00  0.00    +0.000 A 
ATOM     23  C   UNL     1      -4.252  11.331  17.698  0.00  0.00    +0.000 A 
ATOM     24  C   UNL     1      -4.071  11.919  18.971  0.00  0.00    +0.000 A 
BRANCH  22  25
ATOM     25  C   UNL     1      -3.338  10.610  15.522  0.00  0.00    +0.000 C 
ATOM     26  N   UNL     1      -3.461  10.227  14.434  0.00  0.00    +0.000 NA
ENDBRANCH  22  25
ENDBRANCH  11  19
BRANCH   1  28
ATOM     27  C   UNL     1      -3.893  16.859  24.807  0.00  0.00    +0.000 C 
ATOM     28  O   UNL     1      -4.027  16.199  23.541  0.00  0.00    +0.000 OA
ENDBRANCH   1  28
BRANCH   7  29
ATOM     29  O   UNL     1      -4.588  14.852  20.065  0.00  0.00    +0.000 OA
ATOM     30  H   UNL     1      -4.553  15.818  20.189  0.00  0.00    +0.000 HD
ENDBRANCH   7  29
BRANCH   8  31
ATOM     31  C   UNL     1      -5.978  12.920  21.603  0.00  0.00    +0.000 C 
BRANCH  31  32
ATOM     32  N   UNL     1      -6.810  12.228  22.569  0.00  0.00    +0.000 NA
ATOM     33  H   UNL     1      -6.298  11.985  23.418  0.00  0.00    +0.000 HD
ATOM     34  H   UNL     1      -7.157  11.344  22.167  0.00  0.00    +0.000 HD
ENDBRANCH  31  32
ENDBRANCH   8  31
BRANCH   9  35
ATOM     35  C   UNL     1      -3.623  12.376  24.193  0.00  0.00    +0.000 C 
BRANCH  35  36
ATOM     36  O   UNL     1      -4.529  13.346  24.697  0.00  0.00    +0.000 OA
ATOM     37  H   UNL     1      -4.167  13.718  25.518  0.00  0.00    +0.000 HD
ENDBRANCH  35  36
ENDBRANCH   9  35
TORSDOF 9
ENDMDL
MODEL 4
REMARK VINA RESULT:      -6.1      2.138      2.751
REMARK  Name = 
REMARK  10 active torsions:
REMARK  status: ('A' for Active; 'I' for Inactive)
REMARK    1  A    between atoms: C_1  and  O_2
REMARK    2  A    between atoms: O_2  and  C_3
REMARK    3  A    between atoms: C_9  and  O_10
REMARK    4  A    between atoms: C_11  and  C_12
REMARK    5  A    between atoms: C_12  and  N_13
REMARK    6  A    between atoms: C_14  and  C_15
REMARK    7  A    between atoms: C_15  and  O_16
REMARK    8  A    between atoms: C_17  and  C_18
REMARK    9  A    between atoms: C_24  and  C_25
REMARK   10  A    between atoms: C_28  and  C_29
REMARK                            x       y       z     vdW  Elec       q    Type
REMARK                         _______ _______ _______ _____ _____    ______ ____
ROOT
ATOM      1  C   UNL     1      -2.696  15.603  22.120  0.00  0.00    +0.000 A 
ATOM      2  C   UNL     1      -4.098  15.674  22.171  0.00  0.00    +0.000 A 
ATOM      3  N   UNL     1      -4.937  14.627  22.394  0.00  0.00    +0.000 NA
ATOM      4  C   UNL     1      -4.367  13.416  22.516  0.00  0.00    +0.000 A 
ATOM      5  C   UNL     1      -3.003  13.253  22.421  0.00  0.00    +0.000 A 
ATOM      6  C   UNL     1      -2.138  14.340  22.296  0.00  0.00    +0.000 A 
ATOM      7  C   UNL     1      -0.724  13.768  22.145  0.00  0.00    +0.000 C 
ATOM      8  C   UNL     1       0.207  14.422  21.100  0.00  0.00    +0.000 C 
ATOM      9  C   UNL     1      -0.163  13.773  19.724  0.00  0.00    +0.000 C 
ATOM     10  C   UNL     1      -1.402  12.878  20.013  0.00  0.00    +0.000 C 
ATOM     11  C   UNL     1      -1.157  12.374  21.515  0.00  0.00    +0.000 C 
ATOM     12  O   UNL     1      -2.426  12.039  22.173  0.00  0.00    +0.000 OA
ENDROOT
BRANCH  10  13
ATOM     13  C   UNL     1      -1.924  11.916  18.964  0.00  0.00    +0.000 A 
ATOM     14  C   UNL     1      -3.289  11.711  18.731  0.00  0.00    +0.000 A 
ATOM     15  C   UNL     1      -3.722  10.680  17.898  0.00  0.00    +0.000 A 
ATOM     16  C   UNL     1      -2.797   9.849  17.273  0.00  0.00    +0.000 A 
ATOM     17  C   UNL     1      -1.437  10.064  17.457  0.00  0.00    +0.000 A 
ATOM     18  C   UNL     1      -1.006  11.090  18.291  0.00  0.00    +0.000 A 
ENDBRANCH  10  13
BRANCH  11  19
ATOM     19  C   UNL     1      -0.332  11.072  21.663  0.00  0.00    +0.000 A 
ATOM     20  C   UNL     1       0.889  10.869  20.995  0.00  0.00    +0.000 A 
ATOM     21  C   UNL     1       1.421   9.588  20.767  0.00  0.00    +0.000 A 
ATOM     22  C   UNL     1       0.787   8.465  21.282  0.00  0.00    +0.000 A 
ATOM     23  C   UNL     1      -0.344   8.645  22.076  0.00  0.00    +0.000 A 
ATOM     24  C   UNL     1      -0.895   9.932  22.269  0.00  0.00    +0.000 A 
BRANCH  22  25
ATOM     25  C   UNL     1       1.276   7.152  20.963  0.00  0.00    +0.000 C 
ATOM     26  N   UNL     1       1.650   6.084  20.708  0.00  0.00    +0.000 NA
ENDBRANCH  22  25
ENDBRANCH  11  19
BRANCH   1  28
ATOM     27  C   UNL     1      -1.399  17.412  22.959  0.00  0.00    +0.000 C 
ATOM     28  O   UNL     1      -1.883  16.665  21.835  0.00  0.00    +0.000 OA
ENDBRANCH   1  28
BRANCH   7  29
ATOM     29  O   UNL     1      -0.158  13.724  23.446  0.00  0.00    +0.000 OA
ATOM     30  H   UNL     1       0.669  13.214  23.385  0.00  0.00    +0.000 HD
ENDBRANCH   7  29
BRANCH   8  31
ATOM     31  C   UNL     1       1.716  14.385  21.425  0.00  0.00    +0.000 C 
BRANCH  31  32
ATOM     32  N   UNL     1       2.163  15.178  22.554  0.00  0.00    +0.000 NA
ATOM     33  H   UNL     1       3.182  15.241  22.604  0.00  0.00    +0.000 HD
ATOM     34  H   UNL     1       1.848  14.746  23.435  0.00  0.00    +0.000 HD
ENDBRANCH  31  32
ENDBRANCH   8  31
BRANCH   9  35
ATOM     35  C   UNL     1      -0.474  14.859  18.679  0.00  0.00    +0.000 C 
BRANCH  35  36
ATOM     36  O   UNL     1      -0.604  16.129  19.303  0.00  0.00    +0.000 OA
ATOM     37  H   UNL     1      -0.440  16.028  20.256  0.00  0.00    +0.000 HD
ENDBRANCH  35  36
ENDBRANCH   9  35
TORSDOF 9
ENDMDL
MODEL 5
REMARK VINA RESULT:      -6.1      2.128      5.331
REMARK  Name = 
REMARK  10 active torsions:
REMARK  status: ('A' for Active; 'I' for Inactive)
REMARK    1  A    between atoms: C_1  and  O_2
REMARK    2  A    between atoms: O_2  and  C_3
REMARK    3  A    between atoms: C_9  and  O_10
REMARK    4  A    between atoms: C_11  and  C_12
REMARK    5  A    between atoms: C_12  and  N_13
REMARK    6  A    between atoms: C_14  and  C_15
REMARK    7  A    between atoms: C_15  and  O_16
REMARK    8  A    between atoms: C_17  and  C_18
REMARK    9  A    between atoms: C_24  and  C_25
REMARK   10  A    between atoms: C_28  and  C_29
REMARK                            x       y       z     vdW  Elec       q    Type
REMARK                         _______ _______ _______ _____ _____    ______ ____
ROOT
ATOM      1  C   UNL     1       1.022  14.240  21.510  0.00  0.00    +0.000 A 
ATOM      2  C   UNL     1       2.364  14.556  21.240  0.00  0.00    +0.000 A 
ATOM      3  N   UNL     1       3.005  14.349  20.058  0.00  0.00    +0.000 NA
ATOM      4  C   UNL     1       2.299  13.736  19.092  0.00  0.00    +0.000 A 
ATOM      5  C   UNL     1       0.996  13.343  19.296  0.00  0.00    +0.000 A 
ATOM      6  C   UNL     1       0.309  13.649  20.471  0.00  0.00    +0.000 A 
ATOM      7  C   UNL     1      -1.071  12.991  20.364  0.00  0.00    +0.000 C 
ATOM      8  C   UNL     1      -1.630  12.289  21.620  0.00  0.00    +0.000 C 
ATOM      9  C   UNL     1      -0.991  10.859  21.639  0.00  0.00    +0.000 C 
ATOM     10  C   UNL     1       0.032  10.853  20.468  0.00  0.00    +0.000 C 
ATOM     11  C   UNL     1      -0.639  11.820  19.379  0.00  0.00    +0.000 C 
ATOM     12  O   UNL     1       0.378  12.416  18.504  0.00  0.00    +0.000 OA
ENDROOT
BRANCH  10  13
ATOM     13  C   UNL     1       0.702   9.564  20.031  0.00  0.00    +0.000 A 
ATOM     14  C   UNL     1       0.781   8.433  20.851  0.00  0.00    +0.000 A 
ATOM     15  C   UNL     1       1.571   7.344  20.486  0.00  0.00    +0.000 A 
ATOM     16  C   UNL     1       2.281   7.363  19.289  0.00  0.00    +0.000 A 
ATOM     17  C   UNL     1       2.180   8.458  18.442  0.00  0.00    +0.000 A 
ATOM     18  C   UNL     1       1.395   9.547  18.808  0.00  0.00    +0.000 A 
ENDBRANCH  10  13
BRANCH  11  19
ATOM     19  C   UNL     1      -1.605  11.140  18.379  0.00  0.00    +0.000 A 
ATOM     20  C   UNL     1      -1.216  10.058  17.567  0.00  0.00    +0.000 A 
ATOM     21  C   UNL     1      -1.899   9.716  16.387  0.00  0.00    +0.000 A 
ATOM     22  C   UNL     1      -3.054  10.397  16.024  0.00  0.00    +0.000 A 
ATOM     23  C   UNL     1      -3.549  11.375  16.885  0.00  0.00    +0.000 A 
ATOM     24  C   UNL     1      -2.836  11.739  18.050  0.00  0.00    +0.000 A 
BRANCH  22  25
ATOM     25  C   UNL     1      -3.692  10.115  14.767  0.00  0.00    +0.000 C 
ATOM     26  N   UNL     1      -4.225   9.884  13.764  0.00  0.00    +0.000 NA
ENDBRANCH  22  25
ENDBRANCH  11  19
BRANCH   1  28
ATOM     27  C   UNL     1      -0.181  15.685  22.968  0.00  0.00    +0.000 C 
ATOM     28  O   UNL     1       0.424  14.408  22.728  0.00  0.00    +0.000 OA
ENDBRANCH   1  28
BRANCH   7  29
ATOM     29  O   UNL     1      -1.951  13.969  19.833  0.00  0.00    +0.000 OA
ATOM     30  H   UNL     1      -1.564  14.285  18.997  0.00  0.00    +0.000 HD
ENDBRANCH   7  29
BRANCH   8  31
ATOM     31  C   UNL     1      -3.168  12.289  21.764  0.00  0.00    +0.000 C 
BRANCH  31  32
ATOM     32  N   UNL     1      -3.700  12.286  23.113  0.00  0.00    +0.000 NA
ATOM     33  H   UNL     1      -2.991  12.053  23.810  0.00  0.00    +0.000 HD
ATOM     34  H   UNL     1      -4.444  11.577  23.197  0.00  0.00    +0.000 HD
ENDBRANCH  31  32
ENDBRANCH   8  31
BRANCH   9  35
ATOM     35  C   UNL     1      -0.313  10.587  22.993  0.00  0.00    +0.000 C 
BRANCH  35  36
ATOM     36  O   UNL     1      -0.769   9.359  23.541  0.00  0.00    +0.000 OA
ATOM     37  H   UNL     1      -0.813   8.697  22.832  0.00  0.00    +0.000 HD
ENDBRANCH  35  36
ENDBRANCH   9  35
TORSDOF 9
ENDMDL
MODEL 6
REMARK VINA RESULT:      -5.9      3.295      5.290
REMARK  Name = 
REMARK  10 active torsions:
REMARK  status: ('A' for Active; 'I' for Inactive)
REMARK    1  A    between atoms: C_1  and  O_2
REMARK    2  A    between atoms: O_2  and  C_3
REMARK    3  A    between atoms: C_9  and  O_10
REMARK    4  A    between atoms: C_11  and  C_12
REMARK    5  A    between atoms: C_12  and  N_13
REMARK    6  A    between atoms: C_14  and  C_15
REMARK    7  A    between atoms: C_15  and  O_16
REMARK    8  A    between atoms: C_17  and  C_18
REMARK    9  A    between atoms: C_24  and  C_25
REMARK   10  A    between atoms: C_28  and  C_29
REMARK                            x       y       z     vdW  Elec       q    Type
REMARK                         _______ _______ _______ _____ _____    ______ ____
ROOT
ATOM      1  C   UNL     1      -3.624  15.090  24.541  0.00  0.00    +0.000 A 
ATOM      2  C   UNL     1      -4.349  16.290  24.628  0.00  0.00    +0.000 A 
ATOM      3  N   UNL     1      -5.217  16.761  23.692  0.00  0.00    +0.000 NA
ATOM      4  C   UNL     1      -5.336  16.038  22.566  0.00  0.00    +0.000 A 
ATOM      5  C   UNL     1      -4.617  14.880  22.378  0.00  0.00    +0.000 A 
ATOM      6  C   UNL     1      -3.807  14.344  23.381  0.00  0.00    +0.000 A 
ATOM      7  C   UNL     1      -3.119  13.111  22.785  0.00  0.00    +0.000 C 
ATOM      8  C   UNL     1      -1.623  12.899  23.108  0.00  0.00    +0.000 C 
ATOM      9  C   UNL     1      -0.831  13.788  22.091  0.00  0.00    +0.000 C 
ATOM     10  C   UNL     1      -1.915  14.594  21.321  0.00  0.00    +0.000 C 
ATOM     11  C   UNL     1      -3.163  13.591  21.270  0.00  0.00    +0.000 C 
ATOM     12  O   UNL     1      -4.427  14.326  21.142  0.00  0.00    +0.000 OA
ENDROOT
BRANCH  10  13
ATOM     13  C   UNL     1      -1.547  15.414  20.099  0.00  0.00    +0.000 A 
ATOM     14  C   UNL     1      -0.503  15.065  19.235  0.00  0.00    +0.000 A 
ATOM     15  C   UNL     1      -0.077  15.945  18.241  0.00  0.00    +0.000 A 
ATOM     16  C   UNL     1      -0.697  17.181  18.087  0.00  0.00    +0.000 A 
ATOM     17  C   UNL     1      -1.764  17.527  18.906  0.00  0.00    +0.000 A 
ATOM     18  C   UNL     1      -2.186  16.650  19.900  0.00  0.00    +0.000 A 
ENDBRANCH  10  13
BRANCH  11  19
ATOM     19  C   UNL     1      -3.200  12.622  20.064  0.00  0.00    +0.000 A 
ATOM     20  C   UNL     1      -2.034  12.101  19.474  0.00  0.00    +0.000 A 
ATOM     21  C   UNL     1      -2.011  11.593  18.164  0.00  0.00    +0.000 A 
ATOM     22  C   UNL     1      -3.185  11.509  17.426  0.00  0.00    +0.000 A 
ATOM     23  C   UNL     1      -4.383  11.877  18.036  0.00  0.00    +0.000 A 
ATOM     24  C   UNL     1      -4.391  12.423  19.340  0.00  0.00    +0.000 A 
BRANCH  22  25
ATOM     25  C   UNL     1      -3.144  11.085  16.053  0.00  0.00    +0.000 C 
ATOM     26  N   UNL     1      -3.122  10.725  14.951  0.00  0.00    +0.000 NA
ENDBRANCH  22  25
ENDBRANCH  11  19
BRANCH   1  28
ATOM     27  C   UNL     1      -1.749  15.643  25.897  0.00  0.00    +0.000 C 
ATOM     28  O   UNL     1      -2.716  14.673  25.473  0.00  0.00    +0.000 OA
ENDBRANCH   1  28
BRANCH   7  29
ATOM     29  O   UNL     1      -3.925  11.991  23.116  0.00  0.00    +0.000 OA
ATOM     30  H   UNL     1      -4.572  11.877  22.397  0.00  0.00    +0.000 HD
ENDBRANCH   7  29
BRANCH   8  31
ATOM     31  C   UNL     1      -1.147  11.431  23.161  0.00  0.00    +0.000 C 
BRANCH  31  32
ATOM     32  N   UNL     1       0.026  11.093  22.378  0.00  0.00    +0.000 NA
ATOM     33  H   UNL     1       0.711  11.851  22.360  0.00  0.00    +0.000 HD
ATOM     34  H   UNL     1      -0.242  10.910  21.400  0.00  0.00    +0.000 HD
ENDBRANCH  31  32
ENDBRANCH   8  31
BRANCH   9  35
ATOM     35  C   UNL     1       0.152  14.711  22.831  0.00  0.00    +0.000 C 
BRANCH  35  36
ATOM     36  O   UNL     1       1.466  14.558  22.314  0.00  0.00    +0.000 OA
ATOM     37  H   UNL     1       1.412  14.132  21.443  0.00  0.00    +0.000 HD
ENDBRANCH  35  36
ENDBRANCH   9  35
TORSDOF 9
ENDMDL
MODEL 7
REMARK VINA RESULT:      -5.9      1.951      2.477
REMARK  Name = 
REMARK  10 active torsions:
REMARK  status: ('A' for Active; 'I' for Inactive)
REMARK    1  A    between atoms: C_1  and  O_2
REMARK    2  A    between atoms: O_2  and  C_3
REMARK    3  A    between atoms: C_9  and  O_10
REMARK    4  A    between atoms: C_11  and  C_12
REMARK    5  A    between atoms: C_12  and  N_13
REMARK    6  A    between atoms: C_14  and  C_15
REMARK    7  A    between atoms: C_15  and  O_16
REMARK    8  A    between atoms: C_17  and  C_18
REMARK    9  A    between atoms: C_24  and  C_25
REMARK   10  A    between atoms: C_28  and  C_29
REMARK                            x       y       z     vdW  Elec       q    Type
REMARK                         _______ _______ _______ _____ _____    ______ ____
ROOT
ATOM      1  C   UNL     1      -2.760  15.365  22.064  0.00  0.00    +0.000 A 
ATOM      2  C   UNL     1      -4.160  15.404  22.173  0.00  0.00    +0.000 A 
ATOM      3  N   UNL     1      -4.963  14.343  22.454  0.00  0.00    +0.000 NA
ATOM      4  C   UNL     1      -4.359  13.149  22.577  0.00  0.00    +0.000 A 
ATOM      5  C   UNL     1      -2.997  13.016  22.428  0.00  0.00    +0.000 A 
ATOM      6  C   UNL     1      -2.164  14.120  22.243  0.00  0.00    +0.000 A 
ATOM      7  C   UNL     1      -0.745  13.579  22.046  0.00  0.00    +0.000 C 
ATOM      8  C   UNL     1       0.125  14.231  20.948  0.00  0.00    +0.000 C 
ATOM      9  C   UNL     1      -0.286  13.543  19.603  0.00  0.00    +0.000 C 
ATOM     10  C   UNL     1      -1.488  12.625  19.964  0.00  0.00    +0.000 C 
ATOM     11  C   UNL     1      -1.169  12.161  21.464  0.00  0.00    +0.000 C 
ATOM     12  O   UNL     1      -2.400  11.811  22.183  0.00  0.00    +0.000 OA
ENDROOT
BRANCH  10  13
ATOM     13  C   UNL     1      -2.030  11.627  18.958  0.00  0.00    +0.000 A 
ATOM     14  C   UNL     1      -1.207  10.772  18.216  0.00  0.00    +0.000 A 
ATOM     15  C   UNL     1      -1.729  10.014  17.169  0.00  0.00    +0.000 A 
ATOM     16  C   UNL     1      -3.083  10.088  16.857  0.00  0.00    +0.000 A 
ATOM     17  C   UNL     1      -3.923  10.897  17.611  0.00  0.00    +0.000 A 
ATOM     18  C   UNL     1      -3.402  11.656  18.653  0.00  0.00    +0.000 A 
ENDBRANCH  10  13
BRANCH  11  19
ATOM     19  C   UNL     1      -0.307  10.883  21.606  0.00  0.00    +0.000 A 
ATOM     20  C   UNL     1       0.871  10.678  20.864  0.00  0.00    +0.000 A 
ATOM     21  C   UNL     1       1.416   9.400  20.650  0.00  0.00    +0.000 A 
ATOM     22  C   UNL     1       0.844   8.286  21.248  0.00  0.00    +0.000 A 
ATOM     23  C   UNL     1      -0.236   8.474  22.110  0.00  0.00    +0.000 A 
ATOM     24  C   UNL     1      -0.801   9.756  22.290  0.00  0.00    +0.000 A 
BRANCH  22  25
ATOM     25  C   UNL     1       1.339   6.971  20.947  0.00  0.00    +0.000 C 
ATOM     26  N   UNL     1       1.744   5.917  20.683  0.00  0.00    +0.000 NA
ENDBRANCH  22  25
ENDBRANCH  11  19
BRANCH   1  28
ATOM     27  C   UNL     1      -2.673  17.685  21.542  0.00  0.00    +0.000 C 
ATOM     28  O   UNL     1      -1.987  16.439  21.723  0.00  0.00    +0.000 OA
ENDBRANCH   1  28
BRANCH   7  29
ATOM     29  O   UNL     1      -0.124  13.578  23.322  0.00  0.00    +0.000 OA
ATOM     30  H   UNL     1       0.838  13.520  23.176  0.00  0.00    +0.000 HD
ENDBRANCH   7  29
BRANCH   8  31
ATOM     31  C   UNL     1       1.647  14.237  21.209  0.00  0.00    +0.000 C 
BRANCH  31  32
ATOM     32  N   UNL     1       2.501  13.798  20.123  0.00  0.00    +0.000 NA
ATOM     33  H   UNL     1       2.173  12.929  19.698  0.00  0.00    +0.000 HD
ATOM     34  H   UNL     1       3.453  13.618  20.473  0.00  0.00    +0.000 HD
ENDBRANCH  31  32
ENDBRANCH   8  31
BRANCH   9  35
ATOM     35  C   UNL     1      -0.666  14.597  18.550  0.00  0.00    +0.000 C 
BRANCH  35  36
ATOM     36  O   UNL     1      -0.864  15.864  19.161  0.00  0.00    +0.000 OA
ATOM     37  H   UNL     1      -0.345  15.901  19.981  0.00  0.00    +0.000 HD
ENDBRANCH  35  36
ENDBRANCH   9  35
TORSDOF 9
ENDMDL
MODEL 8
REMARK VINA RESULT:      -5.7      3.352      4.833
REMARK  Name = 
REMARK  10 active torsions:
REMARK  status: ('A' for Active; 'I' for Inactive)
REMARK    1  A    between atoms: C_1  and  O_2
REMARK    2  A    between atoms: O_2  and  C_3
REMARK    3  A    between atoms: C_9  and  O_10
REMARK    4  A    between atoms: C_11  and  C_12
REMARK    5  A    between atoms: C_12  and  N_13
REMARK    6  A    between atoms: C_14  and  C_15
REMARK    7  A    between atoms: C_15  and  O_16
REMARK    8  A    between atoms: C_17  and  C_18
REMARK    9  A    between atoms: C_24  and  C_25
REMARK   10  A    between atoms: C_28  and  C_29
REMARK                            x       y       z     vdW  Elec       q    Type
REMARK                         _______ _______ _______ _____ _____    ______ ____
ROOT
ATOM      1  C   UNL     1      -5.969  15.424  23.873  0.00  0.00    +0.000 A 
ATOM      2  C   UNL     1      -7.256  14.880  24.019  0.00  0.00    +0.000 A 
ATOM      3  N   UNL     1      -7.547  13.558  24.153  0.00  0.00    +0.000 NA
ATOM      4  C   UNL     1      -6.511  12.705  24.079  0.00  0.00    +0.000 A 
ATOM      5  C   UNL     1      -5.225  13.154  23.880  0.00  0.00    +0.000 A 
ATOM      6  C   UNL     1      -4.916  14.514  23.847  0.00  0.00    +0.000 A 
ATOM      7  C   UNL     1      -3.420  14.622  23.537  0.00  0.00    +0.000 C 
ATOM      8  C   UNL     1      -2.972  15.707  22.532  0.00  0.00    +0.000 C 
ATOM      9  C   UNL     1      -3.186  15.093  21.108  0.00  0.00    +0.000 C 
ATOM     10  C   UNL     1      -3.893  13.730  21.352  0.00  0.00    +0.000 C 
ATOM     11  C   UNL     1      -3.294  13.243  22.756  0.00  0.00    +0.000 C 
ATOM     12  O   UNL     1      -4.223  12.335  23.441  0.00  0.00    +0.000 OA
ENDROOT
BRANCH  10  13
ATOM     13  C   UNL     1      -4.077  12.739  20.218  0.00  0.00    +0.000 A 
ATOM     14  C   UNL     1      -3.046  12.393  19.337  0.00  0.00    +0.000 A 
ATOM     15  C   UNL     1      -3.309  11.632  18.198  0.00  0.00    +0.000 A 
ATOM     16  C   UNL     1      -4.603  11.194  17.932  0.00  0.00    +0.000 A 
ATOM     17  C   UNL     1      -5.630  11.490  18.818  0.00  0.00    +0.000 A 
ATOM     18  C   UNL     1      -5.368  12.252  19.952  0.00  0.00    +0.000 A 
ENDBRANCH  10  13
BRANCH  11  19
ATOM     19  C   UNL     1      -1.989  12.415  22.681  0.00  0.00    +0.000 A 
ATOM     20  C   UNL     1      -0.958  12.706  21.769  0.00  0.00    +0.000 A 
ATOM     21  C   UNL     1       0.005  11.756  21.387  0.00  0.00    +0.000 A 
ATOM     22  C   UNL     1       0.019  10.499  21.977  0.00  0.00    +0.000 A 
ATOM     23  C   UNL     1      -0.897  10.229  22.992  0.00  0.00    +0.000 A 
ATOM     24  C   UNL     1      -1.885  11.177  23.344  0.00  0.00    +0.000 A 
BRANCH  22  25
ATOM     25  C   UNL     1       0.938   9.496  21.513  0.00  0.00    +0.000 C 
ATOM     26  N   UNL     1       1.665   8.671  21.145  0.00  0.00    +0.000 NA
ENDBRANCH  22  25
ENDBRANCH  11  19
BRANCH   1  28
ATOM     27  C   UNL     1      -5.383  17.511  24.854  0.00  0.00    +0.000 C 
ATOM     28  O   UNL     1      -5.714  16.753  23.683  0.00  0.00    +0.000 OA
ENDBRANCH   1  28
BRANCH   7  29
ATOM     29  O   UNL     1      -2.747  14.705  24.783  0.00  0.00    +0.000 OA
ATOM     30  H   UNL     1      -3.423  14.655  25.482  0.00  0.00    +0.000 HD
ENDBRANCH   7  29
BRANCH   8  31
ATOM     31  C   UNL     1      -1.561  16.292  22.757  0.00  0.00    +0.000 C 
BRANCH  31  32
ATOM     32  N   UNL     1      -0.653  16.269  21.626  0.00  0.00    +0.000 NA
ATOM     33  H   UNL     1       0.155  16.878  21.765  0.00  0.00    +0.000 HD
ATOM     34  H   UNL     1      -1.136  16.602  20.779  0.00  0.00    +0.000 HD
ENDBRANCH  31  32
ENDBRANCH   8  31
BRANCH   9  35
ATOM     35  C   UNL     1      -4.038  16.032  20.236  0.00  0.00    +0.000 C 
BRANCH  35  36
ATOM     36  O   UNL     1      -5.146  16.529  20.973  0.00  0.00    +0.000 OA
ATOM     37  H   UNL     1      -4.929  16.502  21.920  0.00  0.00    +0.000 HD
ENDBRANCH  35  36
ENDBRANCH   9  35
TORSDOF 9
ENDMDL
MODEL 9
REMARK VINA RESULT:      -5.6      2.806      4.185
REMARK  Name = 
REMARK  10 active torsions:
REMARK  status: ('A' for Active; 'I' for Inactive)
REMARK    1  A    between atoms: C_1  and  O_2
REMARK    2  A    between atoms: O_2  and  C_3
REMARK    3  A    between atoms: C_9  and  O_10
REMARK    4  A    between atoms: C_11  and  C_12
REMARK    5  A    between atoms: C_12  and  N_13
REMARK    6  A    between atoms: C_14  and  C_15
REMARK    7  A    between atoms: C_15  and  O_16
REMARK    8  A    between atoms: C_17  and  C_18
REMARK    9  A    between atoms: C_24  and  C_25
REMARK   10  A    between atoms: C_28  and  C_29
REMARK                            x       y       z     vdW  Elec       q    Type
REMARK                         _______ _______ _______ _____ _____    ______ ____
ROOT
ATOM      1  C   UNL     1      -4.949  15.553  23.777  0.00  0.00    +0.000 A 
ATOM      2  C   UNL     1      -6.309  15.202  23.822  0.00  0.00    +0.000 A 
ATOM      3  N   UNL     1      -6.800  13.933  23.840  0.00  0.00    +0.000 NA
ATOM      4  C   UNL     1      -5.900  12.940  23.747  0.00  0.00    +0.000 A 
ATOM      5  C   UNL     1      -4.552  13.201  23.642  0.00  0.00    +0.000 A 
ATOM      6  C   UNL     1      -4.044  14.498  23.728  0.00  0.00    +0.000 A 
ATOM      7  C   UNL     1      -2.533  14.399  23.495  0.00  0.00    +0.000 C 
ATOM      8  C   UNL     1      -1.874  15.470  22.599  0.00  0.00    +0.000 C 
ATOM      9  C   UNL     1      -2.096  14.997  21.123  0.00  0.00    +0.000 C 
ATOM     10  C   UNL     1      -3.010  13.743  21.228  0.00  0.00    +0.000 C 
ATOM     11  C   UNL     1      -2.569  13.074  22.617  0.00  0.00    +0.000 C 
ATOM     12  O   UNL     1      -3.659  12.272  23.186  0.00  0.00    +0.000 OA
ENDROOT
BRANCH  10  13
ATOM     13  C   UNL     1      -3.273  12.872  20.014  0.00  0.00    +0.000 A 
ATOM     14  C   UNL     1      -4.539  12.361  19.706  0.00  0.00    +0.000 A 
ATOM     15  C   UNL     1      -4.696  11.412  18.696  0.00  0.00    +0.000 A 
ATOM     16  C   UNL     1      -3.593  10.971  17.971  0.00  0.00    +0.000 A 
ATOM     17  C   UNL     1      -2.336  11.500  18.233  0.00  0.00    +0.000 A 
ATOM     18  C   UNL     1      -2.179  12.444  19.243  0.00  0.00    +0.000 A 
ENDBRANCH  10  13
BRANCH  11  19
ATOM     19  C   UNL     1      -1.398  12.064  22.537  0.00  0.00    +0.000 A 
ATOM     20  C   UNL     1      -0.298  12.247  21.680  0.00  0.00    +0.000 A 
ATOM     21  C   UNL     1       0.529  11.185  21.275  0.00  0.00    +0.000 A 
ATOM     22  C   UNL     1       0.332   9.910  21.788  0.00  0.00    +0.000 A 
ATOM     23  C   UNL     1      -0.656   9.726  22.754  0.00  0.00    +0.000 A 
ATOM     24  C   UNL     1      -1.508  10.791  23.128  0.00  0.00    +0.000 A 
BRANCH  22  25
ATOM     25  C   UNL     1       1.111   8.807  21.297  0.00  0.00    +0.000 C 
ATOM     26  N   UNL     1       1.744   7.911  20.921  0.00  0.00    +0.000 NA
ENDBRANCH  22  25
ENDBRANCH  11  19
BRANCH   1  28
ATOM     27  C   UNL     1      -4.183  17.477  24.947  0.00  0.00    +0.000 C 
ATOM     28  O   UNL     1      -4.491  16.838  23.701  0.00  0.00    +0.000 OA
ENDBRANCH   1  28
BRANCH   7  29
ATOM     29  O   UNL     1      -1.926  14.291  24.773  0.00  0.00    +0.000 OA
ATOM     30  H   UNL     1      -1.191  14.930  24.800  0.00  0.00    +0.000 HD
ENDBRANCH   7  29
BRANCH   8  31
ATOM     31  C   UNL     1      -0.406  15.818  22.931  0.00  0.00    +0.000 C 
BRANCH  31  32
ATOM     32  N   UNL     1       0.478  16.070  21.810  0.00  0.00    +0.000 NA
ATOM     33  H   UNL     1       0.820  17.033  21.795  0.00  0.00    +0.000 HD
ATOM     34  H   UNL     1      -0.023  15.918  20.923  0.00  0.00    +0.000 HD
ENDBRANCH  31  32
ENDBRANCH   8  31
BRANCH   9  35
ATOM     35  C   UNL     1      -2.748  16.113  20.289  0.00  0.00    +0.000 C 
BRANCH  35  36
ATOM     36  O   UNL     1      -1.790  16.725  19.438  0.00  0.00    +0.000 OA
ATOM     37  H   UNL     1      -0.943  16.783  19.910  0.00  0.00    +0.000 HD
ENDBRANCH  35  36
ENDBRANCH   9  35
TORSDOF 9
ENDMDL
