MODEL 1
REMARK VINA RESULT:      -7.5      0.000      0.000
REMARK  Name = 
REMARK  8 active torsions:
REMARK  status: ('A' for Active; 'I' for Inactive)
REMARK    1  A    between atoms: C_1  and  C_2
REMARK    2  A    between atoms: C_2  and  C_3
REMARK    3  A    between atoms: C_2  and  C_4
REMARK    4  A    between atoms: C_4  and  C_5
REMARK    5  A    between atoms: C_8  and  C_9
REMARK    6  A    between atoms: N_11  and  C_12
REMARK    7  A    between atoms: C_18  and  C_19
REMARK    8  A    between atoms: C_19  and  O_21
REMARK                            x       y       z     vdW  Elec       q    Type
REMARK                         _______ _______ _______ _____ _____    ______ ____
ROOT
ATOM      1  C   UNL     1       3.417   6.409  18.160  0.00  0.00    +0.000 C 
ATOM      2  O   UNL     1       3.078   5.253  18.397  0.00  0.00    +0.000 OA
ATOM      3  N   UNL     1       4.580   6.789  17.502  0.00  0.00    +0.000 N 
ATOM      4  H   UNL     1       4.934   7.735  17.686  0.00  0.00    +0.000 HD
ENDROOT
BRANCH   3   5
ATOM      5  C   UNL     1       5.466   5.891  16.837  0.00  0.00    +0.000 A 
ATOM      6  C   UNL     1       5.180   5.459  15.532  0.00  0.00    +0.000 A 
ATOM      7  C   UNL     1       5.994   4.542  14.873  0.00  0.00    +0.000 A 
ATOM      8 CL   UNL     1       5.562   3.992  13.302  0.00  0.00    +0.000 Cl
ATOM      9  C   UNL     1       7.139   4.054  15.489  0.00  0.00    +0.000 A 
ATOM     10  C   UNL     1       7.472   4.495  16.770  0.00  0.00    +0.000 A 
ATOM     11  C   UNL     1       6.657   5.430  17.443  0.00  0.00    +0.000 A 
BRANCH  11  12
ATOM     12  C   UNL     1       7.035   5.853  18.816  0.00  0.00    +0.000 C 
ATOM     13  O   UNL     1       6.399   5.521  19.803  0.00  0.00    +0.000 OA
BRANCH  12  14
ATOM     14  O   UNL     1       8.105   6.674  18.879  0.00  0.00    +0.000 OA
ATOM     15  H   UNL     1       8.083   7.358  19.573  0.00  0.00    +0.000 HD
ENDBRANCH  12  14
ENDBRANCH  11  12
ENDBRANCH   3   5
BRANCH   1  19
ATOM     16  C   UNL     1       0.877   9.588  19.510  0.00  0.00    +0.000 A 
ATOM     17  C   UNL     1       1.435   9.601  18.225  0.00  0.00    +0.000 A 
ATOM     18  C   UNL     1       2.255   8.556  17.806  0.00  0.00    +0.000 A 
ATOM     19  C   UNL     1       2.529   7.482  18.663  0.00  0.00    +0.000 A 
ATOM     20  C   UNL     1       2.042   7.498  19.973  0.00  0.00    +0.000 A 
ATOM     21  C   UNL     1       1.224   8.552  20.393  0.00  0.00    +0.000 A 
BRANCH  16  22
ATOM     22  C   UNL     1      -0.127  10.645  19.914  0.00  0.00    +0.000 C 
BRANCH  22  24
ATOM     23  C   UNL     1      -2.039  10.319  18.250  0.00  0.00    +0.000 C 
ATOM     24  C   UNL     1      -0.898  11.234  18.708  0.00  0.00    +0.000 C 
ATOM     25  C   UNL     1      -1.460  12.616  19.047  0.00  0.00    +0.000 C 
ENDBRANCH  22  24
ENDBRANCH  16  22
ENDBRANCH   1  19
TORSDOF 6
ENDMDL
MODEL 2
REMARK VINA RESULT:      -7.4      0.976      1.633
REMARK  Name = 
REMARK  8 active torsions:
REMARK  status: ('A' for Active; 'I' for Inactive)
REMARK    1  A    between atoms: C_1  and  C_2
REMARK    2  A    between atoms: C_2  and  C_3
REMARK    3  A    between atoms: C_2  and  C_4
REMARK    4  A    between atoms: C_4  and  C_5
REMARK    5  A    between atoms: C_8  and  C_9
REMARK    6  A    between atoms: N_11  and  C_12
REMARK    7  A    between atoms: C_18  and  C_19
REMARK    8  A    between atoms: C_19  and  O_21
REMARK                            x       y       z     vdW  Elec       q    Type
REMARK                         _______ _______ _______ _____ _____    ______ ____
ROOT
ATOM      1  C   UNL     1       3.469   6.275  18.419  0.00  0.00    +0.000 C 
ATOM      2  O   UNL     1       3.310   5.120  18.803  0.00  0.00    +0.000 OA
ATOM      3  N   UNL     1       4.471   6.708  17.559  0.00  0.00    +0.000 N 
ATOM      4  H   UNL     1       4.732   7.699  17.605  0.00  0.00    +0.000 HD
ENDROOT
BRANCH   3   5
ATOM      5  C   UNL     1       5.353   5.846  16.843  0.00  0.00    +0.000 A 
ATOM      6  C   UNL     1       5.016   5.412  15.551  0.00  0.00    +0.000 A 
ATOM      7  C   UNL     1       5.827   4.528  14.844  0.00  0.00    +0.000 A 
ATOM      8 CL   UNL     1       5.337   3.973  13.293  0.00  0.00    +0.000 Cl
ATOM      9  C   UNL     1       7.019   4.077  15.398  0.00  0.00    +0.000 A 
ATOM     10  C   UNL     1       7.400   4.522  16.664  0.00  0.00    +0.000 A 
ATOM     11  C   UNL     1       6.588   5.423  17.385  0.00  0.00    +0.000 A 
BRANCH  11  12
ATOM     12  C   UNL     1       7.020   5.850  18.740  0.00  0.00    +0.000 C 
ATOM     13  O   UNL     1       7.959   6.608  18.921  0.00  0.00    +0.000 OA
BRANCH  12  14
ATOM     14  O   UNL     1       6.325   5.294  19.755  0.00  0.00    +0.000 OA
ATOM     15  H   UNL     1       5.422   4.992  19.544  0.00  0.00    +0.000 HD
ENDBRANCH  12  14
ENDBRANCH  11  12
ENDBRANCH   3   5
BRANCH   1  19
ATOM     16  C   UNL     1       0.809   9.301  19.883  0.00  0.00    +0.000 A 
ATOM     17  C   UNL     1       1.349   9.374  18.594  0.00  0.00    +0.000 A 
ATOM     18  C   UNL     1       2.210   8.378  18.137  0.00  0.00    +0.000 A 
ATOM     19  C   UNL     1       2.541   7.295  18.962  0.00  0.00    +0.000 A 
ATOM     20  C   UNL     1       2.070   7.253  20.276  0.00  0.00    +0.000 A 
ATOM     21  C   UNL     1       1.211   8.258  20.733  0.00  0.00    +0.000 A 
BRANCH  16  22
ATOM     22  C   UNL     1      -0.237  10.302  20.327  0.00  0.00    +0.000 C 
BRANCH  22  24
ATOM     23  C   UNL     1      -0.060  12.511  21.598  0.00  0.00    +0.000 C 
ATOM     24  C   UNL     1       0.119  10.990  21.667  0.00  0.00    +0.000 C 
ATOM     25  C   UNL     1      -0.733  10.429  22.806  0.00  0.00    +0.000 C 
ENDBRANCH  22  24
ENDBRANCH  16  22
ENDBRANCH   1  19
TORSDOF 6
ENDMDL
MODEL 3
REMARK VINA RESULT:      -7.3      0.576      1.409
REMARK  Name = 
REMARK  8 active torsions:
REMARK  status: ('A' for Active; 'I' for Inactive)
REMARK    1  A    between atoms: C_1  and  C_2
REMARK    2  A    between atoms: C_2  and  C_3
REMARK    3  A    between atoms: C_2  and  C_4
REMARK    4  A    between atoms: C_4  and  C_5
REMARK    5  A    between atoms: C_8  and  C_9
REMARK    6  A    between atoms: N_11  and  C_12
REMARK    7  A    between atoms: C_18  and  C_19
REMARK    8  A    between atoms: C_19  and  O_21
REMARK                            x       y       z     vdW  Elec       q    Type
REMARK                         _______ _______ _______ _____ _____    ______ ____
ROOT
ATOM      1  C   UNL     1       3.383   6.432  18.112  0.00  0.00    +0.000 C 
ATOM      2  O   UNL     1       3.013   5.278  18.312  0.00  0.00    +0.000 OA
ATOM      3  N   UNL     1       4.558   6.801  17.469  0.00  0.00    +0.000 N 
ATOM      4  H   UNL     1       4.937   7.731  17.684  0.00  0.00    +0.000 HD
ENDROOT
BRANCH   3   5
ATOM      5  C   UNL     1       5.422   5.901  16.778  0.00  0.00    +0.000 A 
ATOM      6  C   UNL     1       5.083   5.449  15.493  0.00  0.00    +0.000 A 
ATOM      7  C   UNL     1       5.876   4.529  14.812  0.00  0.00    +0.000 A 
ATOM      8 CL   UNL     1       5.382   3.953  13.269  0.00  0.00    +0.000 Cl
ATOM      9  C   UNL     1       7.051   4.059  15.384  0.00  0.00    +0.000 A 
ATOM     10  C   UNL     1       7.435   4.520  16.644  0.00  0.00    +0.000 A 
ATOM     11  C   UNL     1       6.642   5.458  17.339  0.00  0.00    +0.000 A 
BRANCH  11  12
ATOM     12  C   UNL     1       7.076   5.903  18.688  0.00  0.00    +0.000 C 
ATOM     13  O   UNL     1       7.999   6.682  18.857  0.00  0.00    +0.000 OA
BRANCH  12  14
ATOM     14  O   UNL     1       6.401   5.338  19.712  0.00  0.00    +0.000 OA
ATOM     15  H   UNL     1       6.322   4.367  19.692  0.00  0.00    +0.000 HD
ENDBRANCH  12  14
ENDBRANCH  11  12
ENDBRANCH   3   5
BRANCH   1  19
ATOM     16  C   UNL     1       0.872   9.486  19.768  0.00  0.00    +0.000 A 
ATOM     17  C   UNL     1       1.293   8.396  20.540  0.00  0.00    +0.000 A 
ATOM     18  C   UNL     1       2.111   7.416  19.982  0.00  0.00    +0.000 A 
ATOM     19  C   UNL     1       2.522   7.513  18.646  0.00  0.00    +0.000 A 
ATOM     20  C   UNL     1       2.045   8.553  17.847  0.00  0.00    +0.000 A 
ATOM     21  C   UNL     1       1.218   9.532  18.408  0.00  0.00    +0.000 A 
BRANCH  16  22
ATOM     22  C   UNL     1       0.107  10.622  20.412  0.00  0.00    +0.000 C 
BRANCH  22  24
ATOM     23  C   UNL     1      -1.681  12.189  19.473  0.00  0.00    +0.000 C 
ATOM     24  C   UNL     1      -0.207  11.772  19.424  0.00  0.00    +0.000 C 
ATOM     25  C   UNL     1       0.676  12.988  19.712  0.00  0.00    +0.000 C 
ENDBRANCH  22  24
ENDBRANCH  16  22
ENDBRANCH   1  19
TORSDOF 6
ENDMDL
MODEL 4
REMARK VINA RESULT:      -7.2      0.667      1.011
REMARK  Name = 
REMARK  8 active torsions:
REMARK  status: ('A' for Active; 'I' for Inactive)
REMARK    1  A    between atoms: C_1  and  C_2
REMARK    2  A    between atoms: C_2  and  C_3
REMARK    3  A    between atoms: C_2  and  C_4
REMARK    4  A    between atoms: C_4  and  C_5
REMARK    5  A    between atoms: C_8  and  C_9
REMARK    6  A    between atoms: N_11  and  C_12
REMARK    7  A    between atoms: C_18  and  C_19
REMARK    8  A    between atoms: C_19  and  O_21
REMARK                            x       y       z     vdW  Elec       q    Type
REMARK                         _______ _______ _______ _____ _____    ______ ____
ROOT
ATOM      1  C   UNL     1       3.448   6.387  18.224  0.00  0.00    +0.000 C 
ATOM      2  O   UNL     1       3.140   5.232  18.501  0.00  0.00    +0.000 OA
ATOM      3  N   UNL     1       4.582   6.772  17.520  0.00  0.00    +0.000 N 
ATOM      4  H   UNL     1       4.923   7.729  17.668  0.00  0.00    +0.000 HD
ENDROOT
BRANCH   3   5
ATOM      5  C   UNL     1       5.465   5.874  16.849  0.00  0.00    +0.000 A 
ATOM      6  C   UNL     1       5.178   5.454  15.541  0.00  0.00    +0.000 A 
ATOM      7  C   UNL     1       5.988   4.537  14.877  0.00  0.00    +0.000 A 
ATOM      8 CL   UNL     1       5.557   4.001  13.301  0.00  0.00    +0.000 Cl
ATOM      9  C   UNL     1       7.129   4.037  15.491  0.00  0.00    +0.000 A 
ATOM     10  C   UNL     1       7.462   4.467  16.776  0.00  0.00    +0.000 A 
ATOM     11  C   UNL     1       6.651   5.401  17.455  0.00  0.00    +0.000 A 
BRANCH  11  12
ATOM     12  C   UNL     1       7.029   5.811  18.831  0.00  0.00    +0.000 C 
ATOM     13  O   UNL     1       6.437   5.412  19.821  0.00  0.00    +0.000 OA
BRANCH  12  14
ATOM     14  O   UNL     1       8.044   6.700  18.897  0.00  0.00    +0.000 OA
ATOM     15  H   UNL     1       8.041   7.406  18.225  0.00  0.00    +0.000 HD
ENDBRANCH  12  14
ENDBRANCH  11  12
ENDBRANCH   3   5
BRANCH   1  19
ATOM     16  C   UNL     1       0.896   9.555  19.576  0.00  0.00    +0.000 A 
ATOM     17  C   UNL     1       1.453   9.571  18.292  0.00  0.00    +0.000 A 
ATOM     18  C   UNL     1       2.277   8.530  17.872  0.00  0.00    +0.000 A 
ATOM     19  C   UNL     1       2.556   7.457  18.728  0.00  0.00    +0.000 A 
ATOM     20  C   UNL     1       2.069   7.469  20.038  0.00  0.00    +0.000 A 
ATOM     21  C   UNL     1       1.247   8.520  20.458  0.00  0.00    +0.000 A 
BRANCH  16  22
ATOM     22  C   UNL     1      -0.114  10.608  19.981  0.00  0.00    +0.000 C 
BRANCH  22  24
ATOM     23  C   UNL     1      -0.871  13.007  19.534  0.00  0.00    +0.000 C 
ATOM     24  C   UNL     1       0.317  12.039  19.580  0.00  0.00    +0.000 C 
ATOM     25  C   UNL     1       1.374  12.577  20.546  0.00  0.00    +0.000 C 
ENDBRANCH  22  24
ENDBRANCH  16  22
ENDBRANCH   1  19
TORSDOF 6
ENDMDL
MODEL 5
REMARK VINA RESULT:      -7.1      0.485      1.044
REMARK  Name = 
REMARK  8 active torsions:
REMARK  status: ('A' for Active; 'I' for Inactive)
REMARK    1  A    between atoms: C_1  and  C_2
REMARK    2  A    between atoms: C_2  and  C_3
REMARK    3  A    between atoms: C_2  and  C_4
REMARK    4  A    between atoms: C_4  and  C_5
REMARK    5  A    between atoms: C_8  and  C_9
REMARK    6  A    between atoms: N_11  and  C_12
REMARK    7  A    between atoms: C_18  and  C_19
REMARK    8  A    between atoms: C_19  and  O_21
REMARK                            x       y       z     vdW  Elec       q    Type
REMARK                         _______ _______ _______ _____ _____    ______ ____
ROOT
ATOM      1  C   UNL     1       3.390   6.638  18.034  0.00  0.00    +0.000 C 
ATOM      2  O   UNL     1       3.048   5.522  18.413  0.00  0.00    +0.000 OA
ATOM      3  N   UNL     1       4.521   6.922  17.279  0.00  0.00    +0.000 N 
ATOM      4  H   UNL     1       4.898   7.875  17.340  0.00  0.00    +0.000 HD
ENDROOT
BRANCH   3   5
ATOM      5  C   UNL     1       5.358   5.940  16.671  0.00  0.00    +0.000 A 
ATOM      6  C   UNL     1       5.103   5.516  15.358  0.00  0.00    +0.000 A 
ATOM      7  C   UNL     1       5.866   4.520  14.753  0.00  0.00    +0.000 A 
ATOM      8 CL   UNL     1       5.470   3.987  13.167  0.00  0.00    +0.000 Cl
ATOM      9  C   UNL     1       6.930   3.944  15.434  0.00  0.00    +0.000 A 
ATOM     10  C   UNL     1       7.234   4.373  16.726  0.00  0.00    +0.000 A 
ATOM     11  C   UNL     1       6.470   5.386  17.345  0.00  0.00    +0.000 A 
BRANCH  11  12
ATOM     12  C   UNL     1       6.812   5.794  18.731  0.00  0.00    +0.000 C 
ATOM     13  O   UNL     1       7.842   6.387  19.006  0.00  0.00    +0.000 OA
BRANCH  12  14
ATOM     14  O   UNL     1       5.919   5.412  19.669  0.00  0.00    +0.000 OA
ATOM     15  H   UNL     1       6.003   4.497  19.996  0.00  0.00    +0.000 HD
ENDBRANCH  12  14
ENDBRANCH  11  12
ENDBRANCH   3   5
BRANCH   1  19
ATOM     16  C   UNL     1       0.995  10.006  19.173  0.00  0.00    +0.000 A 
ATOM     17  C   UNL     1       1.703   9.996  17.965  0.00  0.00    +0.000 A 
ATOM     18  C   UNL     1       2.473   8.890  17.613  0.00  0.00    +0.000 A 
ATOM     19  C   UNL     1       2.545   7.778  18.462  0.00  0.00    +0.000 A 
ATOM     20  C   UNL     1       1.905   7.809  19.703  0.00  0.00    +0.000 A 
ATOM     21  C   UNL     1       1.138   8.925  20.057  0.00  0.00    +0.000 A 
BRANCH  16  22
ATOM     22  C   UNL     1       0.045  11.142  19.487  0.00  0.00    +0.000 C 
BRANCH  22  24
ATOM     23  C   UNL     1      -2.372  11.972  19.453  0.00  0.00    +0.000 C 
ATOM     24  C   UNL     1      -1.436  10.780  19.219  0.00  0.00    +0.000 C 
ATOM     25  C   UNL     1      -1.617  10.263  17.791  0.00  0.00    +0.000 C 
ENDBRANCH  22  24
ENDBRANCH  16  22
ENDBRANCH   1  19
TORSDOF 6
ENDMDL
MODEL 6
REMARK VINA RESULT:      -7.1      0.429      1.296
REMARK  Name = 
REMARK  8 active torsions:
REMARK  status: ('A' for Active; 'I' for Inactive)
REMARK    1  A    between atoms: C_1  and  C_2
REMARK    2  A    between atoms: C_2  and  C_3
REMARK    3  A    between atoms: C_2  and  C_4
REMARK    4  A    between atoms: C_4  and  C_5
REMARK    5  A    between atoms: C_8  and  C_9
REMARK    6  A    between atoms: N_11  and  C_12
REMARK    7  A    between atoms: C_18  and  C_19
REMARK    8  A    between atoms: C_19  and  O_21
REMARK                            x       y       z     vdW  Elec       q    Type
REMARK                         _______ _______ _______ _____ _____    ______ ____
ROOT
ATOM      1  C   UNL     1       3.391   6.610  17.998  0.00  0.00    +0.000 C 
ATOM      2  O   UNL     1       2.922   5.485  18.147  0.00  0.00    +0.000 OA
ATOM      3  N   UNL     1       4.637   6.899  17.456  0.00  0.00    +0.000 N 
ATOM      4  H   UNL     1       5.065   7.794  17.717  0.00  0.00    +0.000 HD
ENDROOT
BRANCH   3   5
ATOM      5  C   UNL     1       5.484   5.946  16.817  0.00  0.00    +0.000 A 
ATOM      6  C   UNL     1       5.202   5.521  15.509  0.00  0.00    +0.000 A 
ATOM      7  C   UNL     1       5.976   4.552  14.875  0.00  0.00    +0.000 A 
ATOM      8 CL   UNL     1       5.548   4.016  13.298  0.00  0.00    +0.000 Cl
ATOM      9  C   UNL     1       7.077   4.004  15.519  0.00  0.00    +0.000 A 
ATOM     10  C   UNL     1       7.407   4.435  16.805  0.00  0.00    +0.000 A 
ATOM     11  C   UNL     1       6.633   5.421  17.453  0.00  0.00    +0.000 A 
BRANCH  11  12
ATOM     12  C   UNL     1       7.004   5.832  18.831  0.00  0.00    +0.000 C 
ATOM     13  O   UNL     1       6.335   5.537  19.807  0.00  0.00    +0.000 OA
BRANCH  12  14
ATOM     14  O   UNL     1       8.111   6.602  18.911  0.00  0.00    +0.000 OA
ATOM     15  H   UNL     1       8.014   7.527  18.621  0.00  0.00    +0.000 HD
ENDBRANCH  12  14
ENDBRANCH  11  12
ENDBRANCH   3   5
BRANCH   1  19
ATOM     16  C   UNL     1       0.988   9.821  19.513  0.00  0.00    +0.000 A 
ATOM     17  C   UNL     1       1.241   8.678  20.283  0.00  0.00    +0.000 A 
ATOM     18  C   UNL     1       2.027   7.648  19.772  0.00  0.00    +0.000 A 
ATOM     19  C   UNL     1       2.573   7.745  18.486  0.00  0.00    +0.000 A 
ATOM     20  C   UNL     1       2.263   8.844  17.681  0.00  0.00    +0.000 A 
ATOM     21  C   UNL     1       1.468   9.874  18.195  0.00  0.00    +0.000 A 
BRANCH  16  22
ATOM     22  C   UNL     1       0.259  11.000  20.120  0.00  0.00    +0.000 C 
BRANCH  22  24
ATOM     23  C   UNL     1      -1.951  12.284  20.149  0.00  0.00    +0.000 C 
ATOM     24  C   UNL     1      -1.274  10.928  19.918  0.00  0.00    +0.000 C 
ATOM     25  C   UNL     1      -1.612  10.423  18.514  0.00  0.00    +0.000 C 
ENDBRANCH  22  24
ENDBRANCH  16  22
ENDBRANCH   1  19
TORSDOF 6
ENDMDL
MODEL 7
REMARK VINA RESULT:      -7.0      2.987      4.321
REMARK  Name = 
REMARK  8 active torsions:
REMARK  status: ('A' for Active; 'I' for Inactive)
REMARK    1  A    between atoms: C_1  and  C_2
REMARK    2  A    between atoms: C_2  and  C_3
REMARK    3  A    between atoms: C_2  and  C_4
REMARK    4  A    between atoms: C_4  and  C_5
REMARK    5  A    between atoms: C_8  and  C_9
REMARK    6  A    between atoms: N_11  and  C_12
REMARK    7  A    between atoms: C_18  and  C_19
REMARK    8  A    between atoms: C_19  and  O_21
REMARK                            x       y       z     vdW  Elec       q    Type
REMARK                         _______ _______ _______ _____ _____    ______ ____
ROOT
ATOM      1  C   UNL     1       2.060   7.360  19.672  0.00  0.00    +0.000 C 
ATOM      2  O   UNL     1       2.268   7.444  18.465  0.00  0.00    +0.000 OA
ATOM      3  N   UNL     1       2.387   6.273  20.472  0.00  0.00    +0.000 N 
ATOM      4  H   UNL     1       1.853   6.154  21.341  0.00  0.00    +0.000 HD
ENDROOT
BRANCH   3   5
ATOM      5  C   UNL     1       3.181   5.165  20.052  0.00  0.00    +0.000 A 
ATOM      6  C   UNL     1       4.393   5.386  19.378  0.00  0.00    +0.000 A 
ATOM      7  C   UNL     1       5.167   4.329  18.906  0.00  0.00    +0.000 A 
ATOM      8 CL   UNL     1       6.609   4.653  18.027  0.00  0.00    +0.000 Cl
ATOM      9  C   UNL     1       4.767   3.017  19.124  0.00  0.00    +0.000 A 
ATOM     10  C   UNL     1       3.587   2.765  19.826  0.00  0.00    +0.000 A 
ATOM     11  C   UNL     1       2.800   3.830  20.314  0.00  0.00    +0.000 A 
BRANCH  11  12
ATOM     12  C   UNL     1       1.539   3.517  21.033  0.00  0.00    +0.000 C 
ATOM     13  O   UNL     1       1.517   2.884  22.075  0.00  0.00    +0.000 OA
BRANCH  12  14
ATOM     14  O   UNL     1       0.416   3.943  20.415  0.00  0.00    +0.000 OA
ATOM     15  H   UNL     1       0.442   4.847  20.050  0.00  0.00    +0.000 HD
ENDBRANCH  12  14
ENDBRANCH  11  12
ENDBRANCH   3   5
BRANCH   1  19
ATOM     16  C   UNL     1       0.012  10.579  21.626  0.00  0.00    +0.000 A 
ATOM     17  C   UNL     1       0.372   9.420  22.324  0.00  0.00    +0.000 A 
ATOM     18  C   UNL     1       1.040   8.387  21.669  0.00  0.00    +0.000 A 
ATOM     19  C   UNL     1       1.359   8.499  20.310  0.00  0.00    +0.000 A 
ATOM     20  C   UNL     1       0.935   9.617  19.587  0.00  0.00    +0.000 A 
ATOM     21  C   UNL     1       0.259  10.649  20.246  0.00  0.00    +0.000 A 
BRANCH  16  22
ATOM     22  C   UNL     1      -0.581  11.758  22.367  0.00  0.00    +0.000 C 
BRANCH  22  24
ATOM     23  C   UNL     1      -2.880  12.128  23.420  0.00  0.00    +0.000 C 
ATOM     24  C   UNL     1      -2.100  11.925  22.116  0.00  0.00    +0.000 C 
ATOM     25  C   UNL     1      -2.367  13.100  21.175  0.00  0.00    +0.000 C 
ENDBRANCH  22  24
ENDBRANCH  16  22
ENDBRANCH   1  19
TORSDOF 6
ENDMDL
MODEL 8
REMARK VINA RESULT:      -7.0      3.034      4.308
REMARK  Name = 
REMARK  8 active torsions:
REMARK  status: ('A' for Active; 'I' for Inactive)
REMARK    1  A    between atoms: C_1  and  C_2
REMARK    2  A    between atoms: C_2  and  C_3
REMARK    3  A    between atoms: C_2  and  C_4
REMARK    4  A    between atoms: C_4  and  C_5
REMARK    5  A    between atoms: C_8  and  C_9
REMARK    6  A    between atoms: N_11  and  C_12
REMARK    7  A    between atoms: C_18  and  C_19
REMARK    8  A    between atoms: C_19  and  O_21
REMARK                            x       y       z     vdW  Elec       q    Type
REMARK                         _______ _______ _______ _____ _____    ______ ____
ROOT
ATOM      1  C   UNL     1       1.790   7.742  20.026  0.00  0.00    +0.000 C 
ATOM      2  O   UNL     1       2.083   8.138  18.901  0.00  0.00    +0.000 OA
ATOM      3  N   UNL     1       2.105   6.494  20.549  0.00  0.00    +0.000 N 
ATOM      4  H   UNL     1       1.513   6.143  21.311  0.00  0.00    +0.000 HD
ENDROOT
BRANCH   3   5
ATOM      5  C   UNL     1       2.978   5.551  19.929  0.00  0.00    +0.000 A 
ATOM      6  C   UNL     1       3.995   5.996  19.070  0.00  0.00    +0.000 A 
ATOM      7  C   UNL     1       4.831   5.102  18.407  0.00  0.00    +0.000 A 
ATOM      8 CL   UNL     1       6.018   5.694  17.312  0.00  0.00    +0.000 Cl
ATOM      9  C   UNL     1       4.694   3.734  18.609  0.00  0.00    +0.000 A 
ATOM     10  C   UNL     1       3.718   3.264  19.488  0.00  0.00    +0.000 A 
ATOM     11  C   UNL     1       2.871   4.163  20.171  0.00  0.00    +0.000 A 
BRANCH  11  12
ATOM     12  C   UNL     1       1.828   3.617  21.077  0.00  0.00    +0.000 C 
ATOM     13  O   UNL     1       2.092   3.141  22.168  0.00  0.00    +0.000 OA
BRANCH  12  14
ATOM     14  O   UNL     1       0.575   3.643  20.575  0.00  0.00    +0.000 OA
ATOM     15  H   UNL     1      -0.149   3.555  21.221  0.00  0.00    +0.000 HD
ENDBRANCH  12  14
ENDBRANCH  11  12
ENDBRANCH   3   5
BRANCH   1  19
ATOM     16  C   UNL     1      -0.543  10.475  22.364  0.00  0.00    +0.000 A 
ATOM     17  C   UNL     1      -0.508  10.563  20.966  0.00  0.00    +0.000 A 
ATOM     18  C   UNL     1       0.255   9.662  20.226  0.00  0.00    +0.000 A 
ATOM     19  C   UNL     1       0.991   8.660  20.871  0.00  0.00    +0.000 A 
ATOM     20  C   UNL     1       1.026   8.613  22.266  0.00  0.00    +0.000 A 
ATOM     21  C   UNL     1       0.264   9.523  23.007  0.00  0.00    +0.000 A 
BRANCH  16  22
ATOM     22  C   UNL     1      -1.483  11.357  23.157  0.00  0.00    +0.000 C 
BRANCH  22  24
ATOM     23  C   UNL     1      -3.337  12.945  22.403  0.00  0.00    +0.000 C 
ATOM     24  C   UNL     1      -1.827  12.678  22.428  0.00  0.00    +0.000 C 
ATOM     25  C   UNL     1      -1.113  13.861  23.085  0.00  0.00    +0.000 C 
ENDBRANCH  22  24
ENDBRANCH  16  22
ENDBRANCH   1  19
TORSDOF 6
ENDMDL
MODEL 9
REMARK VINA RESULT:      -7.0      4.056      8.240
REMARK  Name = 
REMARK  8 active torsions:
REMARK  status: ('A' for Active; 'I' for Inactive)
REMARK    1  A    between atoms: C_1  and  C_2
REMARK    2  A    between atoms: C_2  and  C_3
REMARK    3  A    between atoms: C_2  and  C_4
REMARK    4  A    between atoms: C_4  and  C_5
REMARK    5  A    between atoms: C_8  and  C_9
REMARK    6  A    between atoms: N_11  and  C_12
REMARK    7  A    between atoms: C_18  and  C_19
REMARK    8  A    between atoms: C_19  and  O_21
REMARK                            x       y       z     vdW  Elec       q    Type
REMARK                         _______ _______ _______ _____ _____    ______ ____
ROOT
ATOM      1  C   UNL     1       1.748   9.056  18.299  0.00  0.00    +0.000 C 
ATOM      2  O   UNL     1       2.085   9.889  17.462  0.00  0.00    +0.000 OA
ATOM      3  N   UNL     1       0.707   9.202  19.207  0.00  0.00    +0.000 N 
ATOM      4  H   UNL     1       0.753   8.641  20.066  0.00  0.00    +0.000 HD
ENDROOT
BRANCH   3   5
ATOM      5  C   UNL     1      -0.248  10.260  19.183  0.00  0.00    +0.000 A 
ATOM      6  C   UNL     1      -1.285  10.250  18.236  0.00  0.00    +0.000 A 
ATOM      7  C   UNL     1      -2.202  11.293  18.149  0.00  0.00    +0.000 A 
ATOM      8 CL   UNL     1      -3.412  11.267  16.927  0.00  0.00    +0.000 Cl
ATOM      9  C   UNL     1      -2.130  12.364  19.030  0.00  0.00    +0.000 A 
ATOM     10  C   UNL     1      -1.135  12.383  20.008  0.00  0.00    +0.000 A 
ATOM     11  C   UNL     1      -0.205  11.327  20.109  0.00  0.00    +0.000 A 
BRANCH  11  12
ATOM     12  C   UNL     1       0.853  11.401  21.149  0.00  0.00    +0.000 C 
ATOM     13  O   UNL     1       1.121  10.462  21.880  0.00  0.00    +0.000 OA
BRANCH  12  14
ATOM     14  O   UNL     1       1.457  12.604  21.254  0.00  0.00    +0.000 OA
ATOM     15  H   UNL     1       0.891  13.347  21.530  0.00  0.00    +0.000 HD
ENDBRANCH  12  14
ENDBRANCH  11  12
ENDBRANCH   3   5
BRANCH   1  19
ATOM     16  C   UNL     1       4.041   5.449  18.630  0.00  0.00    +0.000 A 
ATOM     17  C   UNL     1       3.095   5.799  19.602  0.00  0.00    +0.000 A 
ATOM     18  C   UNL     1       2.359   6.975  19.473  0.00  0.00    +0.000 A 
ATOM     19  C   UNL     1       2.556   7.816  18.370  0.00  0.00    +0.000 A 
ATOM     20  C   UNL     1       3.551   7.516  17.437  0.00  0.00    +0.000 A 
ATOM     21  C   UNL     1       4.293   6.338  17.573  0.00  0.00    +0.000 A 
BRANCH  16  22
ATOM     22  C   UNL     1       4.734   4.105  18.693  0.00  0.00    +0.000 C 
BRANCH  22  24
ATOM     23  C   UNL     1       3.311   2.110  17.970  0.00  0.00    +0.000 C 
ATOM     24  C   UNL     1       3.793   2.963  19.148  0.00  0.00    +0.000 C 
ATOM     25  C   UNL     1       4.488   2.067  20.176  0.00  0.00    +0.000 C 
ENDBRANCH  22  24
ENDBRANCH  16  22
ENDBRANCH   1  19
TORSDOF 6
ENDMDL
