MODEL 1
REMARK VINA RESULT:      -8.1      0.000      0.000
REMARK  Name = 
REMARK  5 active torsions:
REMARK  status: ('A' for Active; 'I' for Inactive)
REMARK    1  A    between atoms: C_1  and  O_2
REMARK    2  A    between atoms: O_2  and  C_3
REMARK    3  A    between atoms: C_6  and  C_7
REMARK    4  A    between atoms: N_12  and  C_13
REMARK    5  A    between atoms: N_21  and  C_22
REMARK                            x       y       z     vdW  Elec       q    Type
REMARK                         _______ _______ _______ _____ _____    ______ ____
ROOT
ATOM      1  C   UNL     1       0.448  10.285  20.178  0.00  0.00    +0.000 A 
ATOM      2  N   UNL     1       0.854   9.038  20.188  0.00  0.00    +0.000 NA
ATOM      3  N   UNL     1       1.673   8.931  19.054  0.00  0.00    +0.000 N 
ATOM      4  C   UNL     1       2.456   7.808  18.774  0.00  0.00    +0.000 C 
ATOM      5  O   UNL     1       3.162   7.674  17.778  0.00  0.00    +0.000 OA
ATOM      6  N   UNL     1       2.379   6.832  19.747  0.00  0.00    +0.000 N 
ATOM      7  C   UNL     1       1.744  10.174  18.390  0.00  0.00    +0.000 A 
ATOM      8  O   UNL     1       2.387  10.467  17.392  0.00  0.00    +0.000 OA
ATOM      9  N   UNL     1       0.962  11.032  19.152  0.00  0.00    +0.000 N 
ATOM     10  H   UNL     1       1.597   6.945  20.380  0.00  0.00    +0.000 HD
ENDROOT
BRANCH   9  11
ATOM     11  C   UNL     1       1.079  12.432  19.029  0.00  0.00    +0.000 A 
ATOM     12  C   UNL     1       2.163  13.090  19.623  0.00  0.00    +0.000 A 
ATOM     13  C   UNL     1       2.282  14.478  19.531  0.00  0.00    +0.000 A 
ATOM     14  C   UNL     1       1.296  15.215  18.879  0.00  0.00    +0.000 A 
ATOM     15 CL   UNL     1       1.416  16.929  18.808  0.00  0.00    +0.000 Cl
ATOM     16  C   UNL     1       0.206  14.573  18.294  0.00  0.00    +0.000 A 
ATOM     17  C   UNL     1       0.103  13.180  18.355  0.00  0.00    +0.000 A 
ENDBRANCH   9  11
BRANCH   1  21
ATOM     18  C   UNL     1      -2.376  11.936  22.989  0.00  0.00    +0.000 A 
ATOM     19  C   UNL     1      -1.465  10.951  23.386  0.00  0.00    +0.000 A 
ATOM     20  C   UNL     1      -0.550  10.406  22.473  0.00  0.00    +0.000 A 
ATOM     21  C   UNL     1      -0.545  10.836  21.144  0.00  0.00    +0.000 A 
ATOM     22  C   UNL     1      -1.523  11.756  20.735  0.00  0.00    +0.000 A 
ATOM     23  C   UNL     1      -2.417  12.320  21.654  0.00  0.00    +0.000 A 
BRANCH  18  25
ATOM     24  C   UNL     1      -4.478  12.881  23.533  0.00  0.00    +0.000 C 
ATOM     25  O   UNL     1      -3.202  12.409  23.971  0.00  0.00    +0.000 OA
ENDBRANCH  18  25
ENDBRANCH   1  21
BRANCH   6  26
ATOM     26  C   UNL     1       3.079   5.556  19.644  0.00  0.00    +0.000 C 
ATOM     27  C   UNL     1       2.631   4.596  20.751  0.00  0.00    +0.000 C 
ATOM     28  C   UNL     1       1.188   4.128  20.563  0.00  0.00    +0.000 C 
ATOM     29  C   UNL     1       0.953   3.536  19.176  0.00  0.00    +0.000 C 
ATOM     30  C   UNL     1       1.442   4.449  18.052  0.00  0.00    +0.000 C 
ATOM     31  C   UNL     1       2.885   4.903  18.269  0.00  0.00    +0.000 C 
ENDBRANCH   6  26
TORSDOF 4
ENDMDL
MODEL 2
REMARK VINA RESULT:      -8.0      0.267      1.274
REMARK  Name = 
REMARK  5 active torsions:
REMARK  status: ('A' for Active; 'I' for Inactive)
REMARK    1  A    between atoms: C_1  and  O_2
REMARK    2  A    between atoms: O_2  and  C_3
REMARK    3  A    between atoms: C_6  and  C_7
REMARK    4  A    between atoms: N_12  and  C_13
REMARK    5  A    between atoms: N_21  and  C_22
REMARK                            x       y       z     vdW  Elec       q    Type
REMARK                         _______ _______ _______ _____ _____    ______ ____
ROOT
ATOM      1  C   UNL     1       0.547  10.282  20.113  0.00  0.00    +0.000 A 
ATOM      2  N   UNL     1       0.957   9.039  20.031  0.00  0.00    +0.000 NA
ATOM      3  N   UNL     1       1.759   9.013  18.881  0.00  0.00    +0.000 N 
ATOM      4  C   UNL     1       2.542   7.916  18.513  0.00  0.00    +0.000 C 
ATOM      5  O   UNL     1       3.234   7.853  17.500  0.00  0.00    +0.000 OA
ATOM      6  N   UNL     1       2.481   6.874  19.417  0.00  0.00    +0.000 N 
ATOM      7  C   UNL     1       1.817  10.300  18.303  0.00  0.00    +0.000 A 
ATOM      8  O   UNL     1       2.445  10.663  17.319  0.00  0.00    +0.000 OA
ATOM      9  N   UNL     1       1.044  11.100  19.134  0.00  0.00    +0.000 N 
ATOM     10  H   UNL     1       1.708   6.941  20.068  0.00  0.00    +0.000 HD
ENDROOT
BRANCH   9  11
ATOM     11  C   UNL     1       1.155  12.506  19.105  0.00  0.00    +0.000 A 
ATOM     12  C   UNL     1       0.201  13.261  18.413  0.00  0.00    +0.000 A 
ATOM     13  C   UNL     1       0.309  14.651  18.354  0.00  0.00    +0.000 A 
ATOM     14  C   UNL     1       1.394  15.287  18.953  0.00  0.00    +0.000 A 
ATOM     15 CL   UNL     1       1.553  16.995  18.839  0.00  0.00    +0.000 Cl
ATOM     16  C   UNL     1       2.357  14.546  19.636  0.00  0.00    +0.000 A 
ATOM     17  C   UNL     1       2.232  13.155  19.725  0.00  0.00    +0.000 A 
ENDBRANCH   9  11
BRANCH   1  21
ATOM     18  C   UNL     1      -2.338  11.609  23.032  0.00  0.00    +0.000 A 
ATOM     19  C   UNL     1      -2.356  12.115  21.727  0.00  0.00    +0.000 A 
ATOM     20  C   UNL     1      -1.415  11.691  20.777  0.00  0.00    +0.000 A 
ATOM     21  C   UNL     1      -0.434  10.761  21.128  0.00  0.00    +0.000 A 
ATOM     22  C   UNL     1      -0.367  10.331  22.463  0.00  0.00    +0.000 A 
ATOM     23  C   UNL     1      -1.325  10.732  23.403  0.00  0.00    +0.000 A 
BRANCH  18  25
ATOM     24  C   UNL     1      -4.096  13.163  23.352  0.00  0.00    +0.000 C 
ATOM     25  O   UNL     1      -3.318  12.077  23.863  0.00  0.00    +0.000 OA
ENDBRANCH  18  25
ENDBRANCH   1  21
BRANCH   6  26
ATOM     26  C   UNL     1       3.185   5.611  19.217  0.00  0.00    +0.000 C 
ATOM     27  C   UNL     1       2.892   4.636  20.363  0.00  0.00    +0.000 C 
ATOM     28  C   UNL     1       1.445   4.145  20.350  0.00  0.00    +0.000 C 
ATOM     29  C   UNL     1       1.049   3.559  18.996  0.00  0.00    +0.000 C 
ATOM     30  C   UNL     1       1.381   4.488  17.830  0.00  0.00    +0.000 C 
ATOM     31  C   UNL     1       2.832   4.966  17.871  0.00  0.00    +0.000 C 
ENDBRANCH   6  26
TORSDOF 4
ENDMDL
MODEL 3
REMARK VINA RESULT:      -7.9      0.635      1.172
REMARK  Name = 
REMARK  5 active torsions:
REMARK  status: ('A' for Active; 'I' for Inactive)
REMARK    1  A    between atoms: C_1  and  O_2
REMARK    2  A    between atoms: O_2  and  C_3
REMARK    3  A    between atoms: C_6  and  C_7
REMARK    4  A    between atoms: N_12  and  C_13
REMARK    5  A    between atoms: N_21  and  C_22
REMARK                            x       y       z     vdW  Elec       q    Type
REMARK                         _______ _______ _______ _____ _____    ______ ____
ROOT
ATOM      1  C   UNL     1       0.639  10.415  19.981  0.00  0.00    +0.000 A 
ATOM      2  N   UNL     1       0.978   9.169  19.753  0.00  0.00    +0.000 NA
ATOM      3  N   UNL     1       1.811   9.238  18.626  0.00  0.00    +0.000 N 
ATOM      4  C   UNL     1       2.539   8.149  18.140  0.00  0.00    +0.000 C 
ATOM      5  O   UNL     1       3.256   8.170  17.143  0.00  0.00    +0.000 OA
ATOM      6  N   UNL     1       2.391   7.008  18.904  0.00  0.00    +0.000 N 
ATOM      7  C   UNL     1       1.961  10.580  18.217  0.00  0.00    +0.000 A 
ATOM      8  O   UNL     1       2.638  11.024  17.300  0.00  0.00    +0.000 OA
ATOM      9  N   UNL     1       1.212  11.317  19.125  0.00  0.00    +0.000 N 
ATOM     10  H   UNL     1       1.604   7.041  19.541  0.00  0.00    +0.000 HD
ENDROOT
BRANCH   9  11
ATOM     11  C   UNL     1       1.406  12.706  19.276  0.00  0.00    +0.000 A 
ATOM     12  C   UNL     1       2.360  13.175  20.187  0.00  0.00    +0.000 A 
ATOM     13  C   UNL     1       2.548  14.546  20.367  0.00  0.00    +0.000 A 
ATOM     14  C   UNL     1       1.754  15.451  19.667  0.00  0.00    +0.000 A 
ATOM     15 CL   UNL     1       1.952  17.140  19.925  0.00  0.00    +0.000 Cl
ATOM     16  C   UNL     1       0.793  14.997  18.766  0.00  0.00    +0.000 A 
ATOM     17  C   UNL     1       0.626  13.624  18.559  0.00  0.00    +0.000 A 
ENDBRANCH   9  11
BRANCH   1  21
ATOM     18  C   UNL     1      -2.244  11.537  22.987  0.00  0.00    +0.000 A 
ATOM     19  C   UNL     1      -2.293  12.096  21.705  0.00  0.00    +0.000 A 
ATOM     20  C   UNL     1      -1.353  11.738  20.727  0.00  0.00    +0.000 A 
ATOM     21  C   UNL     1      -0.342  10.824  21.027  0.00  0.00    +0.000 A 
ATOM     22  C   UNL     1      -0.246  10.340  22.342  0.00  0.00    +0.000 A 
ATOM     23  C   UNL     1      -1.202  10.675  23.309  0.00  0.00    +0.000 A 
BRANCH  18  25
ATOM     24  C   UNL     1      -4.050  13.016  23.387  0.00  0.00    +0.000 C 
ATOM     25  O   UNL     1      -3.227  11.942  23.848  0.00  0.00    +0.000 OA
ENDBRANCH  18  25
ENDBRANCH   1  21
BRANCH   6  26
ATOM     26  C   UNL     1       3.025   5.739  18.562  0.00  0.00    +0.000 C 
ATOM     27  C   UNL     1       3.643   5.086  19.802  0.00  0.00    +0.000 C 
ATOM     28  C   UNL     1       2.584   4.601  20.791  0.00  0.00    +0.000 C 
ATOM     29  C   UNL     1       1.555   3.688  20.128  0.00  0.00    +0.000 C 
ATOM     30  C   UNL     1       0.961   4.292  18.856  0.00  0.00    +0.000 C 
ATOM     31  C   UNL     1       2.043   4.771  17.889  0.00  0.00    +0.000 C 
ENDBRANCH   6  26
TORSDOF 4
ENDMDL
MODEL 4
REMARK VINA RESULT:      -7.8      0.551      1.174
REMARK  Name = 
REMARK  5 active torsions:
REMARK  status: ('A' for Active; 'I' for Inactive)
REMARK    1  A    between atoms: C_1  and  O_2
REMARK    2  A    between atoms: O_2  and  C_3
REMARK    3  A    between atoms: C_6  and  C_7
REMARK    4  A    between atoms: N_12  and  C_13
REMARK    5  A    between atoms: N_21  and  C_22
REMARK                            x       y       z     vdW  Elec       q    Type
REMARK                         _______ _______ _______ _____ _____    ______ ____
ROOT
ATOM      1  C   UNL     1       0.536  10.382  20.049  0.00  0.00    +0.000 A 
ATOM      2  N   UNL     1       0.818   9.116  19.860  0.00  0.00    +0.000 NA
ATOM      3  N   UNL     1       1.697   9.117  18.766  0.00  0.00    +0.000 N 
ATOM      4  C   UNL     1       2.387   7.982  18.332  0.00  0.00    +0.000 C 
ATOM      5  O   UNL     1       3.142   7.945  17.364  0.00  0.00    +0.000 OA
ATOM      6  N   UNL     1       2.151   6.868  19.112  0.00  0.00    +0.000 N 
ATOM      7  C   UNL     1       1.932  10.441  18.336  0.00  0.00    +0.000 A 
ATOM      8  O   UNL     1       2.666  10.830  17.438  0.00  0.00    +0.000 OA
ATOM      9  N   UNL     1       1.187  11.234  19.198  0.00  0.00    +0.000 N 
ATOM     10  H   UNL     1       1.343   6.954  19.716  0.00  0.00    +0.000 HD
ENDROOT
BRANCH   9  11
ATOM     11  C   UNL     1       1.445  12.615  19.329  0.00  0.00    +0.000 A 
ATOM     12  C   UNL     1       0.776  13.525  18.502  0.00  0.00    +0.000 A 
ATOM     13  C   UNL     1       1.037  14.892  18.602  0.00  0.00    +0.000 A 
ATOM     14  C   UNL     1       1.999  15.349  19.500  0.00  0.00    +0.000 A 
ATOM     15 CL   UNL     1       2.357  17.029  19.589  0.00  0.00    +0.000 Cl
ATOM     16  C   UNL     1       2.681  14.452  20.321  0.00  0.00    +0.000 A 
ATOM     17  C   UNL     1       2.396  13.085  20.247  0.00  0.00    +0.000 A 
ENDBRANCH   9  11
BRANCH   1  21
ATOM     18  C   UNL     1      -2.304  11.830  22.955  0.00  0.00    +0.000 A 
ATOM     19  C   UNL     1      -1.383  10.831  23.291  0.00  0.00    +0.000 A 
ATOM     20  C   UNL     1      -0.462  10.353  22.347  0.00  0.00    +0.000 A 
ATOM     21  C   UNL     1      -0.463  10.863  21.047  0.00  0.00    +0.000 A 
ATOM     22  C   UNL     1      -1.451  11.796  20.694  0.00  0.00    +0.000 A 
ATOM     23  C   UNL     1      -2.350  12.294  21.646  0.00  0.00    +0.000 A 
BRANCH  18  25
ATOM     24  C   UNL     1      -4.325  12.910  23.553  0.00  0.00    +0.000 C 
ATOM     25  O   UNL     1      -3.135  12.233  23.964  0.00  0.00    +0.000 OA
ENDBRANCH  18  25
ENDBRANCH   1  21
BRANCH   6  26
ATOM     26  C   UNL     1       2.731   5.561  18.821  0.00  0.00    +0.000 C 
ATOM     27  C   UNL     1       3.496   5.021  20.034  0.00  0.00    +0.000 C 
ATOM     28  C   UNL     1       2.565   4.652  21.189  0.00  0.00    +0.000 C 
ATOM     29  C   UNL     1       1.458   3.697  20.750  0.00  0.00    +0.000 C 
ATOM     30  C   UNL     1       0.714   4.184  19.508  0.00  0.00    +0.000 C 
ATOM     31  C   UNL     1       1.670   4.549  18.373  0.00  0.00    +0.000 C 
ENDBRANCH   6  26
TORSDOF 4
ENDMDL
MODEL 5
REMARK VINA RESULT:      -7.7      3.643      8.070
REMARK  Name = 
REMARK  5 active torsions:
REMARK  status: ('A' for Active; 'I' for Inactive)
REMARK    1  A    between atoms: C_1  and  O_2
REMARK    2  A    between atoms: O_2  and  C_3
REMARK    3  A    between atoms: C_6  and  C_7
REMARK    4  A    between atoms: N_12  and  C_13
REMARK    5  A    between atoms: N_21  and  C_22
REMARK                            x       y       z     vdW  Elec       q    Type
REMARK                         _______ _______ _______ _____ _____    ______ ____
ROOT
ATOM      1  C   UNL     1      -0.334  12.210  19.197  0.00  0.00    +0.000 A 
ATOM      2  N   UNL     1      -1.490  12.816  19.319  0.00  0.00    +0.000 NA
ATOM      3  N   UNL     1      -2.428  11.860  18.903  0.00  0.00    +0.000 N 
ATOM      4  C   UNL     1      -3.809  12.027  19.036  0.00  0.00    +0.000 C 
ATOM      5  O   UNL     1      -4.655  11.222  18.657  0.00  0.00    +0.000 OA
ATOM      6  N   UNL     1      -4.158  13.210  19.658  0.00  0.00    +0.000 N 
ATOM      7  C   UNL     1      -1.772  10.661  18.549  0.00  0.00    +0.000 A 
ATOM      8  O   UNL     1      -2.266   9.606  18.176  0.00  0.00    +0.000 OA
ATOM      9  N   UNL     1      -0.425  10.911  18.771  0.00  0.00    +0.000 N 
ATOM     10  H   UNL     1      -3.407  13.887  19.701  0.00  0.00    +0.000 HD
ENDROOT
BRANCH   9  11
ATOM     11  C   UNL     1       0.505   9.858  18.889  0.00  0.00    +0.000 A 
ATOM     12  C   UNL     1       1.188   9.407  17.752  0.00  0.00    +0.000 A 
ATOM     13  C   UNL     1       2.093   8.350  17.847  0.00  0.00    +0.000 A 
ATOM     14  C   UNL     1       2.289   7.713  19.070  0.00  0.00    +0.000 A 
ATOM     15 CL   UNL     1       3.368   6.378  19.176  0.00  0.00    +0.000 Cl
ATOM     16  C   UNL     1       1.607   8.144  20.207  0.00  0.00    +0.000 A 
ATOM     17  C   UNL     1       0.725   9.226  20.121  0.00  0.00    +0.000 A 
ENDBRANCH   9  11
BRANCH   1  21
ATOM     18  C   UNL     1       3.423  14.228  19.844  0.00  0.00    +0.000 A 
ATOM     19  C   UNL     1       3.001  13.900  18.551  0.00  0.00    +0.000 A 
ATOM     20  C   UNL     1       1.783  13.237  18.337  0.00  0.00    +0.000 A 
ATOM     21  C   UNL     1       0.977  12.884  19.421  0.00  0.00    +0.000 A 
ATOM     22  C   UNL     1       1.453  13.134  20.718  0.00  0.00    +0.000 A 
ATOM     23  C   UNL     1       2.655  13.821  20.929  0.00  0.00    +0.000 A 
BRANCH  18  25
ATOM     24  C   UNL     1       5.289  15.115  18.686  0.00  0.00    +0.000 C 
ATOM     25  O   UNL     1       4.615  14.894  19.928  0.00  0.00    +0.000 OA
ENDBRANCH  18  25
ENDBRANCH   1  21
BRANCH   6  26
ATOM     26  C   UNL     1      -5.544  13.615  19.866  0.00  0.00    +0.000 C 
ATOM     27  C   UNL     1      -6.158  12.868  21.055  0.00  0.00    +0.000 C 
ATOM     28  C   UNL     1      -5.548  13.300  22.388  0.00  0.00    +0.000 C 
ATOM     29  C   UNL     1      -5.605  14.813  22.582  0.00  0.00    +0.000 C 
ATOM     30  C   UNL     1      -5.049  15.585  21.386  0.00  0.00    +0.000 C 
ATOM     31  C   UNL     1      -5.675  15.129  20.069  0.00  0.00    +0.000 C 
ENDBRANCH   6  26
TORSDOF 4
ENDMDL
MODEL 6
REMARK VINA RESULT:      -7.5      3.682      7.939
REMARK  Name = 
REMARK  5 active torsions:
REMARK  status: ('A' for Active; 'I' for Inactive)
REMARK    1  A    between atoms: C_1  and  O_2
REMARK    2  A    between atoms: O_2  and  C_3
REMARK    3  A    between atoms: C_6  and  C_7
REMARK    4  A    between atoms: N_12  and  C_13
REMARK    5  A    between atoms: N_21  and  C_22
REMARK                            x       y       z     vdW  Elec       q    Type
REMARK                         _______ _______ _______ _____ _____    ______ ____
ROOT
ATOM      1  C   UNL     1      -0.530  12.198  19.237  0.00  0.00    +0.000 A 
ATOM      2  N   UNL     1      -1.711  12.765  19.302  0.00  0.00    +0.000 NA
ATOM      3  N   UNL     1      -2.589  11.796  18.795  0.00  0.00    +0.000 N 
ATOM      4  C   UNL     1      -3.980  11.919  18.841  0.00  0.00    +0.000 C 
ATOM      5  O   UNL     1      -4.774  11.101  18.383  0.00  0.00    +0.000 OA
ATOM      6  N   UNL     1      -4.406  13.069  19.476  0.00  0.00    +0.000 N 
ATOM      7  C   UNL     1      -1.874  10.630  18.448  0.00  0.00    +0.000 A 
ATOM      8  O   UNL     1      -2.309   9.573  18.011  0.00  0.00    +0.000 OA
ATOM      9  N   UNL     1      -0.552  10.912  18.767  0.00  0.00    +0.000 N 
ATOM     10  H   UNL     1      -3.681  13.767  19.589  0.00  0.00    +0.000 HD
ENDROOT
BRANCH   9  11
ATOM     11  C   UNL     1       0.400   9.882  18.913  0.00  0.00    +0.000 A 
ATOM     12  C   UNL     1       1.102   9.425  17.791  0.00  0.00    +0.000 A 
ATOM     13  C   UNL     1       2.031   8.391  17.914  0.00  0.00    +0.000 A 
ATOM     14  C   UNL     1       2.231   7.784  19.152  0.00  0.00    +0.000 A 
ATOM     15 CL   UNL     1       3.340   6.477  19.293  0.00  0.00    +0.000 Cl
ATOM     16  C   UNL     1       1.531   8.222  20.274  0.00  0.00    +0.000 A 
ATOM     17  C   UNL     1       0.625   9.281  20.160  0.00  0.00    +0.000 A 
ENDBRANCH   9  11
BRANCH   1  21
ATOM     18  C   UNL     1       3.182  14.166  20.213  0.00  0.00    +0.000 A 
ATOM     19  C   UNL     1       2.184  14.001  21.180  0.00  0.00    +0.000 A 
ATOM     20  C   UNL     1       0.973  13.367  20.865  0.00  0.00    +0.000 A 
ATOM     21  C   UNL     1       0.742  12.902  19.569  0.00  0.00    +0.000 A 
ATOM     22  C   UNL     1       1.710  13.155  18.584  0.00  0.00    +0.000 A 
ATOM     23  C   UNL     1       2.931  13.761  18.907  0.00  0.00    +0.000 A 
BRANCH  18  25
ATOM     24  C   UNL     1       4.866  14.287  21.874  0.00  0.00    +0.000 C 
ATOM     25  O   UNL     1       4.329  14.775  20.643  0.00  0.00    +0.000 OA
ENDBRANCH  18  25
ENDBRANCH   1  21
BRANCH   6  26
ATOM     26  C   UNL     1      -5.815  13.426  19.604  0.00  0.00    +0.000 C 
ATOM     27  C   UNL     1      -6.459  12.690  20.783  0.00  0.00    +0.000 C 
ATOM     28  C   UNL     1      -5.932  13.181  22.131  0.00  0.00    +0.000 C 
ATOM     29  C   UNL     1      -6.055  14.696  22.278  0.00  0.00    +0.000 C 
ATOM     30  C   UNL     1      -5.469  15.455  21.088  0.00  0.00    +0.000 C 
ATOM     31  C   UNL     1      -6.011  14.940  19.755  0.00  0.00    +0.000 C 
ENDBRANCH   6  26
TORSDOF 4
ENDMDL
MODEL 7
REMARK VINA RESULT:      -7.4      3.100      7.294
REMARK  Name = 
REMARK  5 active torsions:
REMARK  status: ('A' for Active; 'I' for Inactive)
REMARK    1  A    between atoms: C_1  and  O_2
REMARK    2  A    between atoms: O_2  and  C_3
REMARK    3  A    between atoms: C_6  and  C_7
REMARK    4  A    between atoms: N_12  and  C_13
REMARK    5  A    between atoms: N_21  and  C_22
REMARK                            x       y       z     vdW  Elec       q    Type
REMARK                         _______ _______ _______ _____ _____    ______ ____
ROOT
ATOM      1  C   UNL     1      -0.518  11.862  20.071  0.00  0.00    +0.000 A 
ATOM      2  N   UNL     1      -1.822  11.859  20.210  0.00  0.00    +0.000 NA
ATOM      3  N   UNL     1      -2.129  13.163  20.629  0.00  0.00    +0.000 N 
ATOM      4  C   UNL     1      -3.433  13.651  20.732  0.00  0.00    +0.000 C 
ATOM      5  O   UNL     1      -3.735  14.777  21.119  0.00  0.00    +0.000 OA
ATOM      6  N   UNL     1      -4.391  12.737  20.339  0.00  0.00    +0.000 N 
ATOM      7  C   UNL     1      -0.949  13.934  20.710  0.00  0.00    +0.000 A 
ATOM      8  O   UNL     1      -0.832  15.116  21.004  0.00  0.00    +0.000 OA
ATOM      9  N   UNL     1       0.069  13.074  20.321  0.00  0.00    +0.000 N 
ATOM     10  H   UNL     1      -4.049  11.786  20.277  0.00  0.00    +0.000 HD
ENDROOT
BRANCH   9  11
ATOM     11  C   UNL     1       1.328  13.565  19.919  0.00  0.00    +0.000 A 
ATOM     12  C   UNL     1       2.359  13.676  20.859  0.00  0.00    +0.000 A 
ATOM     13  C   UNL     1       3.604  14.183  20.483  0.00  0.00    +0.000 A 
ATOM     14  C   UNL     1       3.809  14.617  19.175  0.00  0.00    +0.000 A 
ATOM     15 CL   UNL     1       5.327  15.287  18.725  0.00  0.00    +0.000 Cl
ATOM     16  C   UNL     1       2.787  14.522  18.233  0.00  0.00    +0.000 A 
ATOM     17  C   UNL     1       1.549  13.983  18.599  0.00  0.00    +0.000 A 
ENDBRANCH   9  11
BRANCH   1  21
ATOM     18  C   UNL     1       1.851   8.379  19.142  0.00  0.00    +0.000 A 
ATOM     19  C   UNL     1       1.454   9.264  18.133  0.00  0.00    +0.000 A 
ATOM     20  C   UNL     1       0.677  10.394  18.430  0.00  0.00    +0.000 A 
ATOM     21  C   UNL     1       0.278  10.644  19.745  0.00  0.00    +0.000 A 
ATOM     22  C   UNL     1       0.602   9.702  20.734  0.00  0.00    +0.000 A 
ATOM     23  C   UNL     1       1.402   8.590  20.440  0.00  0.00    +0.000 A 
BRANCH  18  25
ATOM     24  C   UNL     1       2.625   6.189  19.602  0.00  0.00    +0.000 C 
ATOM     25  O   UNL     1       2.625   7.327  18.737  0.00  0.00    +0.000 OA
ENDBRANCH  18  25
ENDBRANCH   1  21
BRANCH   6  26
ATOM     26  C   UNL     1      -5.822  13.015  20.403  0.00  0.00    +0.000 C 
ATOM     27  C   UNL     1      -6.290  13.760  19.148  0.00  0.00    +0.000 C 
ATOM     28  C   UNL     1      -6.240  12.881  17.899  0.00  0.00    +0.000 C 
ATOM     29  C   UNL     1      -6.998  11.570  18.090  0.00  0.00    +0.000 C 
ATOM     30  C   UNL     1      -6.591  10.831  19.364  0.00  0.00    +0.000 C 
ATOM     31  C   UNL     1      -6.647  11.736  20.594  0.00  0.00    +0.000 C 
ENDBRANCH   6  26
TORSDOF 4
ENDMDL
MODEL 8
REMARK VINA RESULT:      -7.3      3.113      7.255
REMARK  Name = 
REMARK  5 active torsions:
REMARK  status: ('A' for Active; 'I' for Inactive)
REMARK    1  A    between atoms: C_1  and  O_2
REMARK    2  A    between atoms: O_2  and  C_3
REMARK    3  A    between atoms: C_6  and  C_7
REMARK    4  A    between atoms: N_12  and  C_13
REMARK    5  A    between atoms: N_21  and  C_22
REMARK                            x       y       z     vdW  Elec       q    Type
REMARK                         _______ _______ _______ _____ _____    ______ ____
ROOT
ATOM      1  C   UNL     1      -0.523  11.885  20.113  0.00  0.00    +0.000 A 
ATOM      2  N   UNL     1      -1.827  11.856  20.244  0.00  0.00    +0.000 NA
ATOM      3  N   UNL     1      -2.163  13.155  20.657  0.00  0.00    +0.000 N 
ATOM      4  C   UNL     1      -3.478  13.617  20.750  0.00  0.00    +0.000 C 
ATOM      5  O   UNL     1      -3.805  14.737  21.132  0.00  0.00    +0.000 OA
ATOM      6  N   UNL     1      -4.414  12.683  20.353  0.00  0.00    +0.000 N 
ATOM      7  C   UNL     1      -1.000  13.950  20.744  0.00  0.00    +0.000 A 
ATOM      8  O   UNL     1      -0.909  15.134  21.035  0.00  0.00    +0.000 OA
ATOM      9  N   UNL     1       0.038  13.109  20.364  0.00  0.00    +0.000 N 
ATOM     10  H   UNL     1      -4.053  11.739  20.296  0.00  0.00    +0.000 HD
ENDROOT
BRANCH   9  11
ATOM     11  C   UNL     1       1.290  13.625  19.969  0.00  0.00    +0.000 A 
ATOM     12  C   UNL     1       1.484  14.025  18.641  0.00  0.00    +0.000 A 
ATOM     13  C   UNL     1       2.723  14.515  18.227  0.00  0.00    +0.000 A 
ATOM     14  C   UNL     1       3.783  14.568  19.130  0.00  0.00    +0.000 A 
ATOM     15 CL   UNL     1       5.324  15.125  18.607  0.00  0.00    +0.000 Cl
ATOM     16  C   UNL     1       3.606  14.161  20.451  0.00  0.00    +0.000 A 
ATOM     17  C   UNL     1       2.355  13.702  20.876  0.00  0.00    +0.000 A 
ENDBRANCH   9  11
BRANCH   1  21
ATOM     18  C   UNL     1       1.792   8.368  19.179  0.00  0.00    +0.000 A 
ATOM     19  C   UNL     1       1.394   8.633  20.494  0.00  0.00    +0.000 A 
ATOM     20  C   UNL     1       0.647   9.780  20.803  0.00  0.00    +0.000 A 
ATOM     21  C   UNL     1       0.300  10.683  19.796  0.00  0.00    +0.000 A 
ATOM     22  C   UNL     1       0.783  10.456  18.497  0.00  0.00    +0.000 A 
ATOM     23  C   UNL     1       1.504   9.295  18.185  0.00  0.00    +0.000 A 
BRANCH  18  25
ATOM     24  C   UNL     1       2.236   6.171  19.944  0.00  0.00    +0.000 C 
ATOM     25  O   UNL     1       2.495   7.209  18.995  0.00  0.00    +0.000 OA
ENDBRANCH  18  25
ENDBRANCH   1  21
BRANCH   6  26
ATOM     26  C   UNL     1      -5.851  12.932  20.407  0.00  0.00    +0.000 C 
ATOM     27  C   UNL     1      -6.321  13.689  19.160  0.00  0.00    +0.000 C 
ATOM     28  C   UNL     1      -6.241  12.832  17.897  0.00  0.00    +0.000 C 
ATOM     29  C   UNL     1      -6.975  11.503  18.058  0.00  0.00    +0.000 C 
ATOM     30  C   UNL     1      -6.567  10.751  19.324  0.00  0.00    +0.000 C 
ATOM     31  C   UNL     1      -6.652  11.634  20.569  0.00  0.00    +0.000 C 
ENDBRANCH   6  26
TORSDOF 4
ENDMDL
MODEL 9
REMARK VINA RESULT:      -7.3      3.129      7.191
REMARK  Name = 
REMARK  5 active torsions:
REMARK  status: ('A' for Active; 'I' for Inactive)
REMARK    1  A    between atoms: C_1  and  O_2
REMARK    2  A    between atoms: O_2  and  C_3
REMARK    3  A    between atoms: C_6  and  C_7
REMARK    4  A    between atoms: N_12  and  C_13
REMARK    5  A    between atoms: N_21  and  C_22
REMARK                            x       y       z     vdW  Elec       q    Type
REMARK                         _______ _______ _______ _____ _____    ______ ____
ROOT
ATOM      1  C   UNL     1      -0.879  11.571  19.723  0.00  0.00    +0.000 A 
ATOM      2  N   UNL     1      -2.184  11.494  19.618  0.00  0.00    +0.000 NA
ATOM      3  N   UNL     1      -2.638  12.762  20.013  0.00  0.00    +0.000 N 
ATOM      4  C   UNL     1      -3.966  13.177  19.887  0.00  0.00    +0.000 C 
ATOM      5  O   UNL     1      -4.399  14.269  20.247  0.00  0.00    +0.000 OA
ATOM      6  N   UNL     1      -4.780  12.232  19.295  0.00  0.00    +0.000 N 
ATOM      7  C   UNL     1      -1.541  13.589  20.335  0.00  0.00    +0.000 A 
ATOM      8  O   UNL     1      -1.550  14.762  20.683  0.00  0.00    +0.000 OA
ATOM      9  N   UNL     1      -0.420  12.799  20.116  0.00  0.00    +0.000 N 
ATOM     10  H   UNL     1      -4.377  11.303  19.267  0.00  0.00    +0.000 HD
ENDROOT
BRANCH   9  11
ATOM     11  C   UNL     1       0.861  13.371  19.970  0.00  0.00    +0.000 A 
ATOM     12  C   UNL     1       1.703  13.474  21.084  0.00  0.00    +0.000 A 
ATOM     13  C   UNL     1       2.964  14.059  20.962  0.00  0.00    +0.000 A 
ATOM     14  C   UNL     1       3.370  14.580  19.735  0.00  0.00    +0.000 A 
ATOM     15 CL   UNL     1       4.904  15.345  19.597  0.00  0.00    +0.000 Cl
ATOM     16  C   UNL     1       2.536  14.494  18.622  0.00  0.00    +0.000 A 
ATOM     17  C   UNL     1       1.286  13.877  18.734  0.00  0.00    +0.000 A 
ENDBRANCH   9  11
BRANCH   1  21
ATOM     18  C   UNL     1       1.822   8.261  19.127  0.00  0.00    +0.000 A 
ATOM     19  C   UNL     1       1.381   9.028  18.043  0.00  0.00    +0.000 A 
ATOM     20  C   UNL     1       0.497  10.101  18.232  0.00  0.00    +0.000 A 
ATOM     21  C   UNL     1       0.033  10.410  19.512  0.00  0.00    +0.000 A 
ATOM     22  C   UNL     1       0.407   9.577  20.579  0.00  0.00    +0.000 A 
ATOM     23  C   UNL     1       1.313   8.525  20.393  0.00  0.00    +0.000 A 
BRANCH  18  25
ATOM     24  C   UNL     1       2.628   6.099  19.659  0.00  0.00    +0.000 C 
ATOM     25  O   UNL     1       2.700   7.257  18.824  0.00  0.00    +0.000 OA
ENDBRANCH  18  25
ENDBRANCH   1  21
BRANCH   6  26
ATOM     26  C   UNL     1      -6.212  12.432  19.100  0.00  0.00    +0.000 C 
ATOM     27  C   UNL     1      -6.823  11.272  18.306  0.00  0.00    +0.000 C 
ATOM     28  C   UNL     1      -6.837   9.969  19.104  0.00  0.00    +0.000 C 
ATOM     29  C   UNL     1      -7.511  10.136  20.464  0.00  0.00    +0.000 C 
ATOM     30  C   UNL     1      -6.959  11.321  21.255  0.00  0.00    +0.000 C 
ATOM     31  C   UNL     1      -6.953  12.608  20.432  0.00  0.00    +0.000 C 
ENDBRANCH   6  26
TORSDOF 4
ENDMDL
