MODEL 1
REMARK VINA RESULT:      -8.1      0.000      0.000
REMARK  Name = 
REMARK  7 active torsions:
REMARK  status: ('A' for Active; 'I' for Inactive)
REMARK    1  A    between atoms: C_1  and  C_2
REMARK    2  A    between atoms: C_2  and  C_3
REMARK    3  A    between atoms: C_4  and  O_5
REMARK    4  A    between atoms: O_5  and  C_6
REMARK    5  A    between atoms: C_10  and  C_11
REMARK    6  A    between atoms: C_13  and  C_14
REMARK    7  A    between atoms: C_19  and  C_20
REMARK                            x       y       z     vdW  Elec       q    Type
REMARK                         _______ _______ _______ _____ _____    ______ ____
ROOT
ATOM      1  C   UNL     1       1.982   4.247  19.712  0.00  0.00    +0.000 A 
ATOM      2  C   UNL     1       2.315   5.710  19.772  0.00  0.00    +0.000 A 
ATOM      3  N   UNL     1       3.108   6.373  18.992  0.00  0.00    +0.000 NA
ATOM      4  C   UNL     1       3.709   5.654  18.004  0.00  0.00    +0.000 A 
ATOM      5  N   UNL     1       4.616   6.053  17.130  0.00  0.00    +0.000 NA
ATOM      6  C   UNL     1       4.902   4.949  16.369  0.00  0.00    +0.000 A 
ATOM      7  C   UNL     1       4.144   3.873  16.757  0.00  0.00    +0.000 A 
ATOM      8  N   UNL     1       3.406   4.301  17.824  0.00  0.00    +0.000 N 
ATOM      9  C   UNL     1       2.536   3.594  18.661  0.00  0.00    +0.000 A 
ATOM     10  C   UNL     1       2.282   2.131  18.406  0.00  0.00    +0.000 C 
ENDROOT
BRANCH   6  11
ATOM     11  C   UNL     1       5.924   4.938  15.321  0.00  0.00    +0.000 A 
ATOM     12  C   UNL     1       5.808   4.312  14.065  0.00  0.00    +0.000 A 
ATOM     13  C   UNL     1       6.972   4.634  13.399  0.00  0.00    +0.000 A 
ATOM     14  C   UNL     1       7.463   4.333  12.040  0.00  0.00    +0.000 C 
ATOM     15  N   UNL     1       7.702   5.383  14.280  0.00  0.00    +0.000 N 
ATOM     16  N   UNL     1       7.092   5.586  15.455  0.00  0.00    +0.000 NA
ATOM     17  H   UNL     1       8.616   5.799  14.139  0.00  0.00    +0.000 HD
ENDBRANCH   6  11
BRANCH   1  19
ATOM     18  C   UNL     1       1.919   2.888  21.812  0.00  0.00    +0.000 C 
ATOM     19  C   UNL     1       1.098   3.603  20.747  0.00  0.00    +0.000 C 
ENDBRANCH   1  19
BRANCH   2  20
ATOM     20  O   UNL     1       1.641   6.309  20.786  0.00  0.00    +0.000 OA
ATOM     21  C   UNL     1       1.561   7.741  20.737  0.00  0.00    +0.000 C 
ENDBRANCH   2  20
TORSDOF 3
ENDMDL
MODEL 2
REMARK VINA RESULT:      -7.5      1.327      2.620
REMARK  Name = 
REMARK  7 active torsions:
REMARK  status: ('A' for Active; 'I' for Inactive)
REMARK    1  A    between atoms: C_1  and  C_2
REMARK    2  A    between atoms: C_2  and  C_3
REMARK    3  A    between atoms: C_4  and  O_5
REMARK    4  A    between atoms: O_5  and  C_6
REMARK    5  A    between atoms: C_10  and  C_11
REMARK    6  A    between atoms: C_13  and  C_14
REMARK    7  A    between atoms: C_19  and  C_20
REMARK                            x       y       z     vdW  Elec       q    Type
REMARK                         _______ _______ _______ _____ _____    ______ ____
ROOT
ATOM      1  C   UNL     1       2.255   6.236  19.903  0.00  0.00    +0.000 A 
ATOM      2  C   UNL     1       2.864   4.929  20.322  0.00  0.00    +0.000 A 
ATOM      3  N   UNL     1       3.792   4.259  19.715  0.00  0.00    +0.000 NA
ATOM      4  C   UNL     1       4.264   4.808  18.562  0.00  0.00    +0.000 A 
ATOM      5  N   UNL     1       5.139   4.306  17.709  0.00  0.00    +0.000 NA
ATOM      6  C   UNL     1       5.259   5.241  16.713  0.00  0.00    +0.000 A 
ATOM      7  C   UNL     1       4.477   6.338  16.971  0.00  0.00    +0.000 A 
ATOM      8  N   UNL     1       3.809   6.057  18.129  0.00  0.00    +0.000 N 
ATOM      9  C   UNL     1       2.817   6.783  18.798  0.00  0.00    +0.000 A 
ATOM     10  C   UNL     1       2.371   8.114  18.250  0.00  0.00    +0.000 C 
ENDROOT
BRANCH   6  11
ATOM     11  C   UNL     1       6.082   5.042  15.519  0.00  0.00    +0.000 A 
ATOM     12  C   UNL     1       5.732   4.260  14.401  0.00  0.00    +0.000 A 
ATOM     13  C   UNL     1       6.769   4.435  13.508  0.00  0.00    +0.000 A 
ATOM     14  C   UNL     1       7.008   3.933  12.140  0.00  0.00    +0.000 C 
ATOM     15  N   UNL     1       7.660   5.260  14.138  0.00  0.00    +0.000 N 
ATOM     16  N   UNL     1       7.270   5.646  15.360  0.00  0.00    +0.000 NA
ATOM     17  H   UNL     1       8.544   5.609  13.787  0.00  0.00    +0.000 HD
ENDBRANCH   6  11
BRANCH   1  19
ATOM     18  C   UNL     1       1.553   8.144  21.363  0.00  0.00    +0.000 C 
ATOM     19  C   UNL     1       1.121   6.853  20.678  0.00  0.00    +0.000 C 
ENDBRANCH   1  19
BRANCH   2  20
ATOM     20  O   UNL     1       2.319   4.502  21.489  0.00  0.00    +0.000 OA
ATOM     21  C   UNL     1       1.902   3.130  21.530  0.00  0.00    +0.000 C 
ENDBRANCH   2  20
TORSDOF 3
ENDMDL
MODEL 3
REMARK VINA RESULT:      -6.8      3.076      6.764
REMARK  Name = 
REMARK  7 active torsions:
REMARK  status: ('A' for Active; 'I' for Inactive)
REMARK    1  A    between atoms: C_1  and  C_2
REMARK    2  A    between atoms: C_2  and  C_3
REMARK    3  A    between atoms: C_4  and  O_5
REMARK    4  A    between atoms: O_5  and  C_6
REMARK    5  A    between atoms: C_10  and  C_11
REMARK    6  A    between atoms: C_13  and  C_14
REMARK    7  A    between atoms: C_19  and  C_20
REMARK                            x       y       z     vdW  Elec       q    Type
REMARK                         _______ _______ _______ _____ _____    ______ ____
ROOT
ATOM      1  C   UNL     1       5.139   4.959  17.795  0.00  0.00    +0.000 A 
ATOM      2  C   UNL     1       4.540   4.462  19.080  0.00  0.00    +0.000 A 
ATOM      3  N   UNL     1       3.602   5.016  19.780  0.00  0.00    +0.000 NA
ATOM      4  C   UNL     1       3.106   6.185  19.291  0.00  0.00    +0.000 A 
ATOM      5  N   UNL     1       2.216   6.994  19.837  0.00  0.00    +0.000 NA
ATOM      6  C   UNL     1       2.074   8.034  18.955  0.00  0.00    +0.000 A 
ATOM      7  C   UNL     1       2.860   7.848  17.845  0.00  0.00    +0.000 A 
ATOM      8  N   UNL     1       3.550   6.691  18.066  0.00  0.00    +0.000 N 
ATOM      9  C   UNL     1       4.554   6.079  17.306  0.00  0.00    +0.000 A 
ATOM     10  C   UNL     1       4.987   6.704  16.004  0.00  0.00    +0.000 C 
ENDROOT
BRANCH   6  11
ATOM     11  C   UNL     1       1.229   9.200  19.215  0.00  0.00    +0.000 A 
ATOM     12  C   UNL     1       0.560   9.964  18.239  0.00  0.00    +0.000 A 
ATOM     13  C   UNL     1      -0.165  10.896  18.954  0.00  0.00    +0.000 A 
ATOM     14  C   UNL     1      -1.102  11.962  18.547  0.00  0.00    +0.000 C 
ATOM     15  N   UNL     1       0.129  10.658  20.268  0.00  0.00    +0.000 N 
ATOM     16  N   UNL     1       0.972   9.634  20.459  0.00  0.00    +0.000 NA
ATOM     17  H   UNL     1      -0.220  11.146  21.085  0.00  0.00    +0.000 HD
ENDBRANCH   6  11
BRANCH   1  19
ATOM     18  C   UNL     1       7.627   4.696  17.703  0.00  0.00    +0.000 C 
ATOM     19  C   UNL     1       6.287   4.240  17.138  0.00  0.00    +0.000 C 
ENDBRANCH   1  19
BRANCH   2  20
ATOM     20  O   UNL     1       5.110   3.286  19.446  0.00  0.00    +0.000 OA
ATOM     21  C   UNL     1       4.241   2.325  20.061  0.00  0.00    +0.000 C 
ENDBRANCH   2  20
TORSDOF 3
ENDMDL
MODEL 4
REMARK VINA RESULT:      -6.8      3.083      6.893
REMARK  Name = 
REMARK  7 active torsions:
REMARK  status: ('A' for Active; 'I' for Inactive)
REMARK    1  A    between atoms: C_1  and  C_2
REMARK    2  A    between atoms: C_2  and  C_3
REMARK    3  A    between atoms: C_4  and  O_5
REMARK    4  A    between atoms: O_5  and  C_6
REMARK    5  A    between atoms: C_10  and  C_11
REMARK    6  A    between atoms: C_13  and  C_14
REMARK    7  A    between atoms: C_19  and  C_20
REMARK                            x       y       z     vdW  Elec       q    Type
REMARK                         _______ _______ _______ _____ _____    ______ ____
ROOT
ATOM      1  C   UNL     1       5.155   4.983  17.796  0.00  0.00    +0.000 A 
ATOM      2  C   UNL     1       4.566   4.494  19.088  0.00  0.00    +0.000 A 
ATOM      3  N   UNL     1       3.632   5.050  19.792  0.00  0.00    +0.000 NA
ATOM      4  C   UNL     1       3.129   6.215  19.298  0.00  0.00    +0.000 A 
ATOM      5  N   UNL     1       2.241   7.025  19.845  0.00  0.00    +0.000 NA
ATOM      6  C   UNL     1       2.090   8.059  18.955  0.00  0.00    +0.000 A 
ATOM      7  C   UNL     1       2.868   7.867  17.841  0.00  0.00    +0.000 A 
ATOM      8  N   UNL     1       3.564   6.713  18.066  0.00  0.00    +0.000 N 
ATOM      9  C   UNL     1       4.564   6.098  17.303  0.00  0.00    +0.000 A 
ATOM     10  C   UNL     1       4.985   6.714  15.994  0.00  0.00    +0.000 C 
ENDROOT
BRANCH   6  11
ATOM     11  C   UNL     1       1.243   9.224  19.213  0.00  0.00    +0.000 A 
ATOM     12  C   UNL     1       0.611   9.526  20.435  0.00  0.00    +0.000 A 
ATOM     13  C   UNL     1      -0.003  10.743  20.224  0.00  0.00    +0.000 A 
ATOM     14  C   UNL     1      -0.793  11.631  21.101  0.00  0.00    +0.000 C 
ATOM     15  N   UNL     1       0.265  11.069  18.924  0.00  0.00    +0.000 N 
ATOM     16  N   UNL     1       1.021  10.167  18.284  0.00  0.00    +0.000 NA
ATOM     17  H   UNL     1      -0.023  11.897  18.414  0.00  0.00    +0.000 HD
ENDBRANCH   6  11
BRANCH   1  19
ATOM     18  C   UNL     1       7.641   4.699  17.715  0.00  0.00    +0.000 C 
ATOM     19  C   UNL     1       6.300   4.262  17.136  0.00  0.00    +0.000 C 
ENDBRANCH   1  19
BRANCH   2  20
ATOM     20  O   UNL     1       5.142   3.322  19.459  0.00  0.00    +0.000 OA
ATOM     21  C   UNL     1       4.264   2.332  20.013  0.00  0.00    +0.000 C 
ENDBRANCH   2  20
TORSDOF 3
ENDMDL
MODEL 5
REMARK VINA RESULT:      -6.5      3.070      7.250
REMARK  Name = 
REMARK  7 active torsions:
REMARK  status: ('A' for Active; 'I' for Inactive)
REMARK    1  A    between atoms: C_1  and  C_2
REMARK    2  A    between atoms: C_2  and  C_3
REMARK    3  A    between atoms: C_4  and  O_5
REMARK    4  A    between atoms: O_5  and  C_6
REMARK    5  A    between atoms: C_10  and  C_11
REMARK    6  A    between atoms: C_13  and  C_14
REMARK    7  A    between atoms: C_19  and  C_20
REMARK                            x       y       z     vdW  Elec       q    Type
REMARK                         _______ _______ _______ _____ _____    ______ ____
ROOT
ATOM      1  C   UNL     1       4.638   4.822  17.874  0.00  0.00    +0.000 A 
ATOM      2  C   UNL     1       4.019   4.034  18.992  0.00  0.00    +0.000 A 
ATOM      3  N   UNL     1       3.128   4.434  19.843  0.00  0.00    +0.000 NA
ATOM      4  C   UNL     1       2.709   5.721  19.703  0.00  0.00    +0.000 A 
ATOM      5  N   UNL     1       1.881   6.406  20.472  0.00  0.00    +0.000 NA
ATOM      6  C   UNL     1       1.803   7.654  19.909  0.00  0.00    +0.000 A 
ATOM      7  C   UNL     1       2.562   7.727  18.768  0.00  0.00    +0.000 A 
ATOM      8  N   UNL     1       3.174   6.512  18.648  0.00  0.00    +0.000 N 
ATOM      9  C   UNL     1       4.126   6.068  17.723  0.00  0.00    +0.000 A 
ATOM     10  C   UNL     1       4.588   6.994  16.628  0.00  0.00    +0.000 C 
ENDROOT
BRANCH   6  11
ATOM     11  C   UNL     1       1.042   8.756  20.498  0.00  0.00    +0.000 A 
ATOM     12  C   UNL     1       0.376   8.723  21.739  0.00  0.00    +0.000 A 
ATOM     13  C   UNL     1      -0.126   9.997  21.905  0.00  0.00    +0.000 A 
ATOM     14  C   UNL     1      -0.884  10.640  22.998  0.00  0.00    +0.000 C 
ATOM     15  N   UNL     1       0.233  10.682  20.778  0.00  0.00    +0.000 N 
ATOM     16  N   UNL     1       0.944   9.956  19.905  0.00  0.00    +0.000 NA
ATOM     17  H   UNL     1       0.039  11.650  20.546  0.00  0.00    +0.000 HD
ENDBRANCH   6  11
BRANCH   1  19
ATOM     18  C   UNL     1       7.109   4.585  17.555  0.00  0.00    +0.000 C 
ATOM     19  C   UNL     1       5.727   4.237  17.014  0.00  0.00    +0.000 C 
ENDBRANCH   1  19
BRANCH   2  20
ATOM     20  O   UNL     1       4.510   2.768  19.010  0.00  0.00    +0.000 OA
ATOM     21  C   UNL     1       3.571   1.719  18.735  0.00  0.00    +0.000 C 
ENDBRANCH   2  20
TORSDOF 3
ENDMDL
MODEL 6
REMARK VINA RESULT:      -6.5      2.950      6.457
REMARK  Name = 
REMARK  7 active torsions:
REMARK  status: ('A' for Active; 'I' for Inactive)
REMARK    1  A    between atoms: C_1  and  C_2
REMARK    2  A    between atoms: C_2  and  C_3
REMARK    3  A    between atoms: C_4  and  O_5
REMARK    4  A    between atoms: O_5  and  C_6
REMARK    5  A    between atoms: C_10  and  C_11
REMARK    6  A    between atoms: C_13  and  C_14
REMARK    7  A    between atoms: C_19  and  C_20
REMARK                            x       y       z     vdW  Elec       q    Type
REMARK                         _______ _______ _______ _____ _____    ______ ____
ROOT
ATOM      1  C   UNL     1       3.856   4.211  18.812  0.00  0.00    +0.000 A 
ATOM      2  C   UNL     1       4.494   4.848  17.611  0.00  0.00    +0.000 A 
ATOM      3  N   UNL     1       4.323   6.054  17.171  0.00  0.00    +0.000 NA
ATOM      4  C   UNL     1       3.460   6.829  17.884  0.00  0.00    +0.000 A 
ATOM      5  N   UNL     1       3.042   8.054  17.617  0.00  0.00    +0.000 NA
ATOM      6  C   UNL     1       2.176   8.375  18.631  0.00  0.00    +0.000 A 
ATOM      7  C   UNL     1       2.086   7.354  19.543  0.00  0.00    +0.000 A 
ATOM      8  N   UNL     1       2.872   6.348  19.057  0.00  0.00    +0.000 N 
ATOM      9  C   UNL     1       3.074   5.048  19.535  0.00  0.00    +0.000 A 
ATOM     10  C   UNL     1       2.384   4.605  20.799  0.00  0.00    +0.000 C 
ENDROOT
BRANCH   6  11
ATOM     11  C   UNL     1       1.423   9.629  18.678  0.00  0.00    +0.000 A 
ATOM     12  C   UNL     1       0.195   9.826  19.339  0.00  0.00    +0.000 A 
ATOM     13  C   UNL     1      -0.084  11.167  19.176  0.00  0.00    +0.000 A 
ATOM     14  C   UNL     1      -1.188  12.025  19.650  0.00  0.00    +0.000 C 
ATOM     15  N   UNL     1       0.945  11.667  18.426  0.00  0.00    +0.000 N 
ATOM     16  N   UNL     1       1.877  10.757  18.110  0.00  0.00    +0.000 NA
ATOM     17  H   UNL     1       1.082  12.619  18.108  0.00  0.00    +0.000 HD
ENDBRANCH   6  11
BRANCH   1  19
ATOM     18  C   UNL     1       3.109   1.852  18.429  0.00  0.00    +0.000 C 
ATOM     19  C   UNL     1       4.097   2.763  19.150  0.00  0.00    +0.000 C 
ENDBRANCH   1  19
BRANCH   2  20
ATOM     20  O   UNL     1       5.339   3.976  17.003  0.00  0.00    +0.000 OA
ATOM     21  C   UNL     1       6.641   4.480  16.673  0.00  0.00    +0.000 C 
ENDBRANCH   2  20
TORSDOF 3
ENDMDL
MODEL 7
REMARK VINA RESULT:      -6.4      3.053      6.058
REMARK  Name = 
REMARK  7 active torsions:
REMARK  status: ('A' for Active; 'I' for Inactive)
REMARK    1  A    between atoms: C_1  and  C_2
REMARK    2  A    between atoms: C_2  and  C_3
REMARK    3  A    between atoms: C_4  and  O_5
REMARK    4  A    between atoms: O_5  and  C_6
REMARK    5  A    between atoms: C_10  and  C_11
REMARK    6  A    between atoms: C_13  and  C_14
REMARK    7  A    between atoms: C_19  and  C_20
REMARK                            x       y       z     vdW  Elec       q    Type
REMARK                         _______ _______ _______ _____ _____    ______ ____
ROOT
ATOM      1  C   UNL     1       3.523   3.862  19.293  0.00  0.00    +0.000 A 
ATOM      2  C   UNL     1       2.710   4.089  20.535  0.00  0.00    +0.000 A 
ATOM      3  N   UNL     1       2.065   5.160  20.873  0.00  0.00    +0.000 NA
ATOM      4  C   UNL     1       2.138   6.199  19.996  0.00  0.00    +0.000 A 
ATOM      5  N   UNL     1       1.652   7.421  20.126  0.00  0.00    +0.000 NA
ATOM      6  C   UNL     1       2.009   8.081  18.978  0.00  0.00    +0.000 A 
ATOM      7  C   UNL     1       2.691   7.251  18.124  0.00  0.00    +0.000 A 
ATOM      8  N   UNL     1       2.812   6.059  18.780  0.00  0.00    +0.000 N 
ATOM      9  C   UNL     1       3.494   4.893  18.414  0.00  0.00    +0.000 A 
ATOM     10  C   UNL     1       4.212   4.835  17.090  0.00  0.00    +0.000 C 
ENDROOT
BRANCH   6  11
ATOM     11  C   UNL     1       1.729   9.499  18.746  0.00  0.00    +0.000 A 
ATOM     12  C   UNL     1       0.920  10.320  19.556  0.00  0.00    +0.000 A 
ATOM     13  C   UNL     1       1.016  11.576  18.994  0.00  0.00    +0.000 A 
ATOM     14  C   UNL     1       0.451  12.887  19.371  0.00  0.00    +0.000 C 
ATOM     15  N   UNL     1       1.824  11.428  17.901  0.00  0.00    +0.000 N 
ATOM     16  N   UNL     1       2.274  10.178  17.724  0.00  0.00    +0.000 NA
ATOM     17  H   UNL     1       2.121  12.138  17.242  0.00  0.00    +0.000 HD
ENDBRANCH   6  11
BRANCH   1  19
ATOM     18  C   UNL     1       3.424   1.530  18.389  0.00  0.00    +0.000 C 
ATOM     19  C   UNL     1       4.285   2.581  19.080  0.00  0.00    +0.000 C 
ENDBRANCH   1  19
BRANCH   2  20
ATOM     20  O   UNL     1       2.707   2.975  21.311  0.00  0.00    +0.000 OA
ATOM     21  C   UNL     1       1.435   2.574  21.840  0.00  0.00    +0.000 C 
ENDBRANCH   2  20
TORSDOF 3
ENDMDL
MODEL 8
REMARK VINA RESULT:      -6.4      2.633      6.876
REMARK  Name = 
REMARK  7 active torsions:
REMARK  status: ('A' for Active; 'I' for Inactive)
REMARK    1  A    between atoms: C_1  and  C_2
REMARK    2  A    between atoms: C_2  and  C_3
REMARK    3  A    between atoms: C_4  and  O_5
REMARK    4  A    between atoms: O_5  and  C_6
REMARK    5  A    between atoms: C_10  and  C_11
REMARK    6  A    between atoms: C_13  and  C_14
REMARK    7  A    between atoms: C_19  and  C_20
REMARK                            x       y       z     vdW  Elec       q    Type
REMARK                         _______ _______ _______ _____ _____    ______ ____
ROOT
ATOM      1  C   UNL     1       2.605   3.564  18.359  0.00  0.00    +0.000 A 
ATOM      2  C   UNL     1       3.364   4.565  17.536  0.00  0.00    +0.000 A 
ATOM      3  N   UNL     1       3.423   5.847  17.708  0.00  0.00    +0.000 NA
ATOM      4  C   UNL     1       2.711   6.339  18.759  0.00  0.00    +0.000 A 
ATOM      5  N   UNL     1       2.529   7.599  19.112  0.00  0.00    +0.000 NA
ATOM      6  C   UNL     1       1.726   7.557  20.223  0.00  0.00    +0.000 A 
ATOM      7  C   UNL     1       1.439   6.262  20.574  0.00  0.00    +0.000 A 
ATOM      8  N   UNL     1       2.031   5.478  19.625  0.00  0.00    +0.000 N 
ATOM      9  C   UNL     1       1.983   4.091  19.442  0.00  0.00    +0.000 A 
ATOM     10  C   UNL     1       1.209   3.238  20.413  0.00  0.00    +0.000 C 
ENDROOT
BRANCH   6  11
ATOM     11  C   UNL     1       1.218   8.755  20.893  0.00  0.00    +0.000 A 
ATOM     12  C   UNL     1       0.808   9.942  20.256  0.00  0.00    +0.000 A 
ATOM     13  C   UNL     1       0.340  10.747  21.273  0.00  0.00    +0.000 A 
ATOM     14  C   UNL     1      -0.264  12.095  21.286  0.00  0.00    +0.000 C 
ATOM     15  N   UNL     1       0.520  10.028  22.422  0.00  0.00    +0.000 N 
ATOM     16  N   UNL     1       1.050   8.813  22.224  0.00  0.00    +0.000 NA
ATOM     17  H   UNL     1       0.291  10.298  23.372  0.00  0.00    +0.000 HD
ENDBRANCH   6  11
BRANCH   1  19
ATOM     18  C   UNL     1       3.738   1.344  18.596  0.00  0.00    +0.000 C 
ATOM     19  C   UNL     1       2.570   2.106  17.981  0.00  0.00    +0.000 C 
ENDBRANCH   1  19
BRANCH   2  20
ATOM     20  O   UNL     1       4.039   3.944  16.536  0.00  0.00    +0.000 OA
ATOM     21  C   UNL     1       5.462   4.130  16.520  0.00  0.00    +0.000 C 
ENDBRANCH   2  20
TORSDOF 3
ENDMDL
MODEL 9
REMARK VINA RESULT:      -6.4      2.691      7.156
REMARK  Name = 
REMARK  7 active torsions:
REMARK  status: ('A' for Active; 'I' for Inactive)
REMARK    1  A    between atoms: C_1  and  C_2
REMARK    2  A    between atoms: C_2  and  C_3
REMARK    3  A    between atoms: C_4  and  O_5
REMARK    4  A    between atoms: O_5  and  C_6
REMARK    5  A    between atoms: C_10  and  C_11
REMARK    6  A    between atoms: C_13  and  C_14
REMARK    7  A    between atoms: C_19  and  C_20
REMARK                            x       y       z     vdW  Elec       q    Type
REMARK                         _______ _______ _______ _____ _____    ______ ____
ROOT
ATOM      1  C   UNL     1       3.562   4.010  19.179  0.00  0.00    +0.000 A 
ATOM      2  C   UNL     1       4.037   5.012  18.166  0.00  0.00    +0.000 A 
ATOM      3  N   UNL     1       3.729   6.267  18.091  0.00  0.00    +0.000 NA
ATOM      4  C   UNL     1       2.871   6.727  19.043  0.00  0.00    +0.000 A 
ATOM      5  N   UNL     1       2.331   7.927  19.154  0.00  0.00    +0.000 NA
ATOM      6  C   UNL     1       1.534   7.870  20.269  0.00  0.00    +0.000 A 
ATOM      7  C   UNL     1       1.609   6.636  20.864  0.00  0.00    +0.000 A 
ATOM      8  N   UNL     1       2.429   5.887  20.070  0.00  0.00    +0.000 N 
ATOM      9  C   UNL     1       2.779   4.534  20.154  0.00  0.00    +0.000 A 
ATOM     10  C   UNL     1       2.241   3.695  21.284  0.00  0.00    +0.000 C 
ENDROOT
BRANCH   6  11
ATOM     11  C   UNL     1       0.687   8.979  20.710  0.00  0.00    +0.000 A 
ATOM     12  C   UNL     1       0.195   9.169  22.015  0.00  0.00    +0.000 A 
ATOM     13  C   UNL     1      -0.478  10.372  21.969  0.00  0.00    +0.000 A 
ATOM     14  C   UNL     1      -1.186  11.163  22.995  0.00  0.00    +0.000 C 
ATOM     15  N   UNL     1      -0.377  10.799  20.674  0.00  0.00    +0.000 N 
ATOM     16  N   UNL     1       0.326   9.975  19.885  0.00  0.00    +0.000 NA
ATOM     17  H   UNL     1      -0.749  11.648  20.264  0.00  0.00    +0.000 HD
ENDBRANCH   6  11
BRANCH   1  19
ATOM     18  C   UNL     1       3.000   1.786  18.176  0.00  0.00    +0.000 C 
ATOM     19  C   UNL     1       3.950   2.558  19.085  0.00  0.00    +0.000 C 
ENDBRANCH   1  19
BRANCH   2  20
ATOM     20  O   UNL     1       4.895   4.430  17.290  0.00  0.00    +0.000 OA
ATOM     21  C   UNL     1       5.156   5.157  16.081  0.00  0.00    +0.000 C 
ENDBRANCH   2  20
TORSDOF 3
ENDMDL
