MODEL 1
REMARK VINA RESULT:      -6.5      0.000      0.000
REMARK  Name = 
REMARK  10 active torsions:
REMARK  status: ('A' for Active; 'I' for Inactive)
REMARK    1  A    between atoms: C_2  and  C_3
REMARK    2  A    between atoms: C_3  and  O_4
REMARK    3  A    between atoms: O_4  and  C_5
REMARK    4  A    between atoms: C_10  and  C_11
REMARK    5  A    between atoms: C_11  and  N_12
REMARK    6  A    between atoms: N_12  and  C_13
REMARK    7  A    between atoms: C_13  and  C_14
REMARK    8  A    between atoms: C_15  and  C_17
REMARK    9  A    between atoms: C_17  and  C_18
REMARK   10  A    between atoms: C_17  and  N_19
REMARK                            x       y       z     vdW  Elec       q    Type
REMARK                         _______ _______ _______ _____ _____    ______ ____
ROOT
ATOM      1  C   UNL     1       4.931   3.625  19.056  0.00  0.00    +0.000 C 
ENDROOT
BRANCH   1   7
ATOM      2  C   UNL     1       2.570   4.317  19.654  0.00  0.00    +0.000 A 
ATOM      3  C   UNL     1       1.232   3.965  19.876  0.00  0.00    +0.000 A 
ATOM      4  C   UNL     1       0.745   2.745  19.405  0.00  0.00    +0.000 A 
ATOM      5  C   UNL     1       1.568   1.901  18.664  0.00  0.00    +0.000 A 
ATOM      6  C   UNL     1       2.906   2.246  18.451  0.00  0.00    +0.000 A 
ATOM      7  C   UNL     1       3.429   3.431  18.990  0.00  0.00    +0.000 A 
BRANCH   2   8
ATOM      8  O   UNL     1       3.136   5.497  20.050  0.00  0.00    +0.000 OA
BRANCH   8   9
ATOM      9  C   UNL     1       2.423   6.700  19.776  0.00  0.00    +0.000 C 
BRANCH   9  11
ATOM     10  C   UNL     1       2.556   8.286  17.810  0.00  0.00    +0.000 C 
ATOM     11  C   UNL     1       2.770   7.086  18.368  0.00  0.00    +0.000 C 
ENDBRANCH   9  11
ENDBRANCH   8   9
ENDBRANCH   2   8
ENDBRANCH   1   7
BRANCH   1  12
ATOM     12  N   UNL     1       5.624   4.538  18.147  0.00  0.00    +0.000 N 
ATOM     13  C   UNL     1       6.535   5.386  18.791  0.00  0.00    +0.000 C 
ATOM     14  O   UNL     1       6.703   5.329  20.018  0.00  0.00    +0.000 OA
BRANCH  12  15
ATOM     15  C   UNL     1       5.164   4.715  16.764  0.00  0.00    +0.000 C 
ATOM     16  C   UNL     1       5.789   3.771  15.747  0.00  0.00    +0.000 C 
ENDBRANCH  12  15
BRANCH  13  17
ATOM     17  C   UNL     1       7.381   6.376  17.956  0.00  0.00    +0.000 C 
ATOM     18  C   UNL     1       6.479   7.405  17.264  0.00  0.00    +0.000 C 
BRANCH  17  19
ATOM     19  N   UNL     1       8.331   7.084  18.835  0.00  0.00    +0.000 NA
ATOM     20  H   UNL     1       8.006   8.046  18.942  0.00  0.00    +0.000 HD
ATOM     21  H   UNL     1       9.233   7.144  18.368  0.00  0.00    +0.000 HD
ENDBRANCH  17  19
ENDBRANCH  13  17
ENDBRANCH   1  12
TORSDOF 8
ENDMDL
MODEL 2
REMARK VINA RESULT:      -6.4      1.861      3.941
REMARK  Name = 
REMARK  10 active torsions:
REMARK  status: ('A' for Active; 'I' for Inactive)
REMARK    1  A    between atoms: C_2  and  C_3
REMARK    2  A    between atoms: C_3  and  O_4
REMARK    3  A    between atoms: O_4  and  C_5
REMARK    4  A    between atoms: C_10  and  C_11
REMARK    5  A    between atoms: C_11  and  N_12
REMARK    6  A    between atoms: N_12  and  C_13
REMARK    7  A    between atoms: C_13  and  C_14
REMARK    8  A    between atoms: C_15  and  C_17
REMARK    9  A    between atoms: C_17  and  C_18
REMARK   10  A    between atoms: C_17  and  N_19
REMARK                            x       y       z     vdW  Elec       q    Type
REMARK                         _______ _______ _______ _____ _____    ______ ____
ROOT
ATOM      1  C   UNL     1       5.068   4.563  18.319  0.00  0.00    +0.000 C 
ENDROOT
BRANCH   1   7
ATOM      2  C   UNL     1       3.219   5.784  19.545  0.00  0.00    +0.000 A 
ATOM      3  C   UNL     1       2.222   6.767  19.546  0.00  0.00    +0.000 A 
ATOM      4  C   UNL     1       2.236   7.777  18.583  0.00  0.00    +0.000 A 
ATOM      5  C   UNL     1       3.272   7.844  17.654  0.00  0.00    +0.000 A 
ATOM      6  C   UNL     1       4.261   6.857  17.644  0.00  0.00    +0.000 A 
ATOM      7  C   UNL     1       4.212   5.792  18.556  0.00  0.00    +0.000 A 
BRANCH   2   8
ATOM      8  O   UNL     1       3.310   4.772  20.458  0.00  0.00    +0.000 OA
BRANCH   8   9
ATOM      9  C   UNL     1       2.109   4.337  21.090  0.00  0.00    +0.000 C 
BRANCH   9  11
ATOM     10  C   UNL     1       0.781   2.927  19.463  0.00  0.00    +0.000 C 
ATOM     11  C   UNL     1       1.716   3.056  20.416  0.00  0.00    +0.000 C 
ENDBRANCH   9  11
ENDBRANCH   8   9
ENDBRANCH   2   8
ENDBRANCH   1   7
BRANCH   1  12
ATOM     12  N   UNL     1       6.162   4.570  17.348  0.00  0.00    +0.000 N 
ATOM     13  C   UNL     1       5.768   4.192  16.057  0.00  0.00    +0.000 C 
ATOM     14  O   UNL     1       4.591   3.890  15.812  0.00  0.00    +0.000 OA
BRANCH  12  15
ATOM     15  C   UNL     1       7.558   4.677  17.789  0.00  0.00    +0.000 C 
ATOM     16  C   UNL     1       7.817   5.711  18.875  0.00  0.00    +0.000 C 
ENDBRANCH  12  15
BRANCH  13  17
ATOM     17  C   UNL     1       6.805   4.197  14.909  0.00  0.00    +0.000 C 
ATOM     18  C   UNL     1       6.151   3.770  13.590  0.00  0.00    +0.000 C 
BRANCH  17  19
ATOM     19  N   UNL     1       7.365   5.554  14.750  0.00  0.00    +0.000 NA
ATOM     20  H   UNL     1       7.523   5.941  15.681  0.00  0.00    +0.000 HD
ATOM     21  H   UNL     1       6.667   6.151  14.313  0.00  0.00    +0.000 HD
ENDBRANCH  17  19
ENDBRANCH  13  17
ENDBRANCH   1  12
TORSDOF 8
ENDMDL
MODEL 3
REMARK VINA RESULT:      -6.3      2.713      6.064
REMARK  Name = 
REMARK  10 active torsions:
REMARK  status: ('A' for Active; 'I' for Inactive)
REMARK    1  A    between atoms: C_2  and  C_3
REMARK    2  A    between atoms: C_3  and  O_4
REMARK    3  A    between atoms: O_4  and  C_5
REMARK    4  A    between atoms: C_10  and  C_11
REMARK    5  A    between atoms: C_11  and  N_12
REMARK    6  A    between atoms: N_12  and  C_13
REMARK    7  A    between atoms: C_13  and  C_14
REMARK    8  A    between atoms: C_15  and  C_17
REMARK    9  A    between atoms: C_17  and  C_18
REMARK   10  A    between atoms: C_17  and  N_19
REMARK                            x       y       z     vdW  Elec       q    Type
REMARK                         _______ _______ _______ _____ _____    ______ ____
ROOT
ATOM      1  C   UNL     1       4.048   3.969  16.975  0.00  0.00    +0.000 C 
ENDROOT
BRANCH   1   7
ATOM      2  C   UNL     1       6.542   4.309  16.699  0.00  0.00    +0.000 A 
ATOM      3  C   UNL     1       7.784   4.621  17.266  0.00  0.00    +0.000 A 
ATOM      4  C   UNL     1       7.844   5.262  18.504  0.00  0.00    +0.000 A 
ATOM      5  C   UNL     1       6.672   5.647  19.151  0.00  0.00    +0.000 A 
ATOM      6  C   UNL     1       5.433   5.325  18.592  0.00  0.00    +0.000 A 
ATOM      7  C   UNL     1       5.360   4.608  17.388  0.00  0.00    +0.000 A 
BRANCH   2   8
ATOM      8  O   UNL     1       6.376   3.707  15.483  0.00  0.00    +0.000 OA
BRANCH   8   9
ATOM      9  C   UNL     1       6.507   4.517  14.317  0.00  0.00    +0.000 C 
BRANCH   9  11
ATOM     10  C   UNL     1       6.455   3.273  12.115  0.00  0.00    +0.000 C 
ATOM     11  C   UNL     1       5.842   3.765  13.203  0.00  0.00    +0.000 C 
ENDBRANCH   9  11
ENDBRANCH   8   9
ENDBRANCH   2   8
ENDBRANCH   1   7
BRANCH   1  12
ATOM     12  N   UNL     1       3.304   3.097  17.883  0.00  0.00    +0.000 N 
ATOM     13  C   UNL     1       2.145   3.689  18.403  0.00  0.00    +0.000 C 
ATOM     14  O   UNL     1       1.823   4.845  18.092  0.00  0.00    +0.000 OA
BRANCH  12  15
ATOM     15  C   UNL     1       3.903   1.859  18.396  0.00  0.00    +0.000 C 
ATOM     16  C   UNL     1       4.447   1.941  19.814  0.00  0.00    +0.000 C 
ENDBRANCH  12  15
BRANCH  13  17
ATOM     17  C   UNL     1       1.226   2.873  19.343  0.00  0.00    +0.000 C 
ATOM     18  C   UNL     1       0.651   3.768  20.446  0.00  0.00    +0.000 C 
BRANCH  17  19
ATOM     19  N   UNL     1       0.112   2.291  18.568  0.00  0.00    +0.000 NA
ATOM     20  H   UNL     1      -0.533   3.045  18.328  0.00  0.00    +0.000 HD
ATOM     21  H   UNL     1      -0.411   1.655  19.166  0.00  0.00    +0.000 HD
ENDBRANCH  17  19
ENDBRANCH  13  17
ENDBRANCH   1  12
TORSDOF 8
ENDMDL
MODEL 4
REMARK VINA RESULT:      -6.2      2.452      5.799
REMARK  Name = 
REMARK  10 active torsions:
REMARK  status: ('A' for Active; 'I' for Inactive)
REMARK    1  A    between atoms: C_2  and  C_3
REMARK    2  A    between atoms: C_3  and  O_4
REMARK    3  A    between atoms: O_4  and  C_5
REMARK    4  A    between atoms: C_10  and  C_11
REMARK    5  A    between atoms: C_11  and  N_12
REMARK    6  A    between atoms: N_12  and  C_13
REMARK    7  A    between atoms: C_13  and  C_14
REMARK    8  A    between atoms: C_15  and  C_17
REMARK    9  A    between atoms: C_17  and  C_18
REMARK   10  A    between atoms: C_17  and  N_19
REMARK                            x       y       z     vdW  Elec       q    Type
REMARK                         _______ _______ _______ _____ _____    ______ ____
ROOT
ATOM      1  C   UNL     1       3.536   4.993  17.654  0.00  0.00    +0.000 C 
ENDROOT
BRANCH   1   7
ATOM      2  C   UNL     1       5.857   4.599  16.720  0.00  0.00    +0.000 A 
ATOM      3  C   UNL     1       7.233   4.455  16.937  0.00  0.00    +0.000 A 
ATOM      4  C   UNL     1       7.800   4.899  18.133  0.00  0.00    +0.000 A 
ATOM      5  C   UNL     1       7.013   5.538  19.087  0.00  0.00    +0.000 A 
ATOM      6  C   UNL     1       5.638   5.671  18.877  0.00  0.00    +0.000 A 
ATOM      7  C   UNL     1       5.043   5.156  17.715  0.00  0.00    +0.000 A 
BRANCH   2   8
ATOM      8  O   UNL     1       5.210   4.224  15.576  0.00  0.00    +0.000 OA
BRANCH   8   9
ATOM      9  C   UNL     1       5.634   4.811  14.349  0.00  0.00    +0.000 C 
BRANCH   9  11
ATOM     10  C   UNL     1       5.731   3.358  12.281  0.00  0.00    +0.000 C 
ATOM     11  C   UNL     1       6.166   3.691  13.505  0.00  0.00    +0.000 C 
ENDBRANCH   9  11
ENDBRANCH   8   9
ENDBRANCH   2   8
ENDBRANCH   1   7
BRANCH   1  12
ATOM     12  N   UNL     1       2.869   3.833  18.243  0.00  0.00    +0.000 N 
ATOM     13  C   UNL     1       2.465   4.033  19.570  0.00  0.00    +0.000 C 
ATOM     14  O   UNL     1       2.676   5.110  20.147  0.00  0.00    +0.000 OA
BRANCH  12  15
ATOM     15  C   UNL     1       2.910   2.524  17.579  0.00  0.00    +0.000 C 
ATOM     16  C   UNL     1       3.856   1.509  18.204  0.00  0.00    +0.000 C 
ENDBRANCH  12  15
BRANCH  13  17
ATOM     17  C   UNL     1       1.703   2.912  20.315  0.00  0.00    +0.000 C 
ATOM     18  C   UNL     1       1.997   2.965  21.818  0.00  0.00    +0.000 C 
BRANCH  17  19
ATOM     19  N   UNL     1       0.250   3.072  20.104  0.00  0.00    +0.000 NA
ATOM     20  H   UNL     1      -0.221   2.273  20.529  0.00  0.00    +0.000 HD
ATOM     21  H   UNL     1       0.052   3.017  19.107  0.00  0.00    +0.000 HD
ENDBRANCH  17  19
ENDBRANCH  13  17
ENDBRANCH   1  12
TORSDOF 8
ENDMDL
MODEL 5
REMARK VINA RESULT:      -6.2      2.176      4.930
REMARK  Name = 
REMARK  10 active torsions:
REMARK  status: ('A' for Active; 'I' for Inactive)
REMARK    1  A    between atoms: C_2  and  C_3
REMARK    2  A    between atoms: C_3  and  O_4
REMARK    3  A    between atoms: O_4  and  C_5
REMARK    4  A    between atoms: C_10  and  C_11
REMARK    5  A    between atoms: C_11  and  N_12
REMARK    6  A    between atoms: N_12  and  C_13
REMARK    7  A    between atoms: C_13  and  C_14
REMARK    8  A    between atoms: C_15  and  C_17
REMARK    9  A    between atoms: C_17  and  C_18
REMARK   10  A    between atoms: C_17  and  N_19
REMARK                            x       y       z     vdW  Elec       q    Type
REMARK                         _______ _______ _______ _____ _____    ______ ____
ROOT
ATOM      1  C   UNL     1       4.866   4.740  19.428  0.00  0.00    +0.000 C 
ENDROOT
BRANCH   1   7
ATOM      2  C   UNL     1       4.756   5.680  17.080  0.00  0.00    +0.000 A 
ATOM      3  C   UNL     1       5.209   5.664  15.755  0.00  0.00    +0.000 A 
ATOM      4  C   UNL     1       6.419   5.045  15.439  0.00  0.00    +0.000 A 
ATOM      5  C   UNL     1       7.207   4.493  16.447  0.00  0.00    +0.000 A 
ATOM      6  C   UNL     1       6.750   4.498  17.767  0.00  0.00    +0.000 A 
ATOM      7  C   UNL     1       5.498   5.045  18.084  0.00  0.00    +0.000 A 
BRANCH   2   8
ATOM      8  O   UNL     1       3.601   6.282  17.496  0.00  0.00    +0.000 OA
BRANCH   8   9
ATOM      9  C   UNL     1       3.545   7.706  17.465  0.00  0.00    +0.000 C 
BRANCH   9  11
ATOM     10  C   UNL     1       1.605   9.282  17.847  0.00  0.00    +0.000 C 
ATOM     11  C   UNL     1       2.196   8.088  17.997  0.00  0.00    +0.000 C 
ENDBRANCH   9  11
ENDBRANCH   8   9
ENDBRANCH   2   8
ENDBRANCH   1   7
BRANCH   1  12
ATOM     12  N   UNL     1       3.899   3.653  19.588  0.00  0.00    +0.000 N 
ATOM     13  C   UNL     1       2.716   4.046  20.230  0.00  0.00    +0.000 C 
ATOM     14  O   UNL     1       2.553   5.216  20.608  0.00  0.00    +0.000 OA
BRANCH  12  15
ATOM     15  C   UNL     1       4.291   2.258  19.357  0.00  0.00    +0.000 C 
ATOM     16  C   UNL     1       3.745   1.635  18.080  0.00  0.00    +0.000 C 
ENDBRANCH  12  15
BRANCH  13  17
ATOM     17  C   UNL     1       1.578   3.019  20.430  0.00  0.00    +0.000 C 
ATOM     18  C   UNL     1       1.528   2.544  21.887  0.00  0.00    +0.000 C 
BRANCH  17  19
ATOM     19  N   UNL     1       0.283   3.637  20.083  0.00  0.00    +0.000 NA
ATOM     20  H   UNL     1       0.416   4.648  20.042  0.00  0.00    +0.000 HD
ATOM     21  H   UNL     1      -0.377   3.472  20.840  0.00  0.00    +0.000 HD
ENDBRANCH  17  19
ENDBRANCH  13  17
ENDBRANCH   1  12
TORSDOF 8
ENDMDL
MODEL 6
REMARK VINA RESULT:      -6.2      2.112      5.390
REMARK  Name = 
REMARK  10 active torsions:
REMARK  status: ('A' for Active; 'I' for Inactive)
REMARK    1  A    between atoms: C_2  and  C_3
REMARK    2  A    between atoms: C_3  and  O_4
REMARK    3  A    between atoms: O_4  and  C_5
REMARK    4  A    between atoms: C_10  and  C_11
REMARK    5  A    between atoms: C_11  and  N_12
REMARK    6  A    between atoms: N_12  and  C_13
REMARK    7  A    between atoms: C_13  and  C_14
REMARK    8  A    between atoms: C_15  and  C_17
REMARK    9  A    between atoms: C_17  and  C_18
REMARK   10  A    between atoms: C_17  and  N_19
REMARK                            x       y       z     vdW  Elec       q    Type
REMARK                         _______ _______ _______ _____ _____    ______ ____
ROOT
ATOM      1  C   UNL     1       4.658   5.119  18.760  0.00  0.00    +0.000 C 
ENDROOT
BRANCH   1   7
ATOM      2  C   UNL     1       6.010   5.942  16.784  0.00  0.00    +0.000 A 
ATOM      3  C   UNL     1       6.344   5.839  15.428  0.00  0.00    +0.000 A 
ATOM      4  C   UNL     1       6.038   4.675  14.720  0.00  0.00    +0.000 A 
ATOM      5  C   UNL     1       5.455   3.592  15.373  0.00  0.00    +0.000 A 
ATOM      6  C   UNL     1       5.110   3.698  16.723  0.00  0.00    +0.000 A 
ATOM      7  C   UNL     1       5.338   4.892  17.424  0.00  0.00    +0.000 A 
BRANCH   2   8
ATOM      8  O   UNL     1       6.289   7.025  17.570  0.00  0.00    +0.000 OA
BRANCH   8   9
ATOM      9  C   UNL     1       7.647   7.241  17.946  0.00  0.00    +0.000 C 
BRANCH   9  11
ATOM     10  C   UNL     1       8.674   9.491  18.474  0.00  0.00    +0.000 C 
ATOM     11  C   UNL     1       7.929   8.692  17.695  0.00  0.00    +0.000 C 
ENDBRANCH   9  11
ENDBRANCH   8   9
ENDBRANCH   2   8
ENDBRANCH   1   7
BRANCH   1  12
ATOM     12  N   UNL     1       3.207   5.004  18.908  0.00  0.00    +0.000 N 
ATOM     13  C   UNL     1       2.803   3.843  19.580  0.00  0.00    +0.000 C 
ATOM     14  O   UNL     1       3.635   3.021  19.993  0.00  0.00    +0.000 OA
BRANCH  12  15
ATOM     15  C   UNL     1       2.303   5.882  18.155  0.00  0.00    +0.000 C 
ATOM     16  C   UNL     1       2.705   7.349  18.120  0.00  0.00    +0.000 C 
ENDBRANCH  12  15
BRANCH  13  17
ATOM     17  C   UNL     1       1.300   3.604  19.856  0.00  0.00    +0.000 C 
ATOM     18  C   UNL     1       0.715   2.617  18.839  0.00  0.00    +0.000 C 
BRANCH  17  19
ATOM     19  N   UNL     1       1.124   3.054  21.215  0.00  0.00    +0.000 NA
ATOM     20  H   UNL     1       0.928   2.055  21.128  0.00  0.00    +0.000 HD
ATOM     21  H   UNL     1       0.294   3.466  21.634  0.00  0.00    +0.000 HD
ENDBRANCH  17  19
ENDBRANCH  13  17
ENDBRANCH   1  12
TORSDOF 8
ENDMDL
MODEL 7
REMARK VINA RESULT:      -6.2      2.180      5.728
REMARK  Name = 
REMARK  10 active torsions:
REMARK  status: ('A' for Active; 'I' for Inactive)
REMARK    1  A    between atoms: C_2  and  C_3
REMARK    2  A    between atoms: C_3  and  O_4
REMARK    3  A    between atoms: O_4  and  C_5
REMARK    4  A    between atoms: C_10  and  C_11
REMARK    5  A    between atoms: C_11  and  N_12
REMARK    6  A    between atoms: N_12  and  C_13
REMARK    7  A    between atoms: C_13  and  C_14
REMARK    8  A    between atoms: C_15  and  C_17
REMARK    9  A    between atoms: C_17  and  C_18
REMARK   10  A    between atoms: C_17  and  N_19
REMARK                            x       y       z     vdW  Elec       q    Type
REMARK                         _______ _______ _______ _____ _____    ______ ____
ROOT
ATOM      1  C   UNL     1       4.752   4.033  18.320  0.00  0.00    +0.000 C 
ENDROOT
BRANCH   1   7
ATOM      2  C   UNL     1       6.045   5.916  17.228  0.00  0.00    +0.000 A 
ATOM      3  C   UNL     1       7.199   6.707  17.169  0.00  0.00    +0.000 A 
ATOM      4  C   UNL     1       8.065   6.761  18.263  0.00  0.00    +0.000 A 
ATOM      5  C   UNL     1       7.754   6.076  19.435  0.00  0.00    +0.000 A 
ATOM      6  C   UNL     1       6.610   5.277  19.491  0.00  0.00    +0.000 A 
ATOM      7  C   UNL     1       5.775   5.151  18.370  0.00  0.00    +0.000 A 
BRANCH   2   8
ATOM      8  O   UNL     1       5.122   5.817  16.224  0.00  0.00    +0.000 OA
BRANCH   8   9
ATOM      9  C   UNL     1       5.603   5.722  14.886  0.00  0.00    +0.000 C 
BRANCH   9  11
ATOM     10  C   UNL     1       6.049   3.731  13.391  0.00  0.00    +0.000 C 
ATOM     11  C   UNL     1       5.679   4.258  14.568  0.00  0.00    +0.000 C 
ENDBRANCH   9  11
ENDBRANCH   8   9
ENDBRANCH   2   8
ENDBRANCH   1   7
BRANCH   1  12
ATOM     12  N   UNL     1       3.416   4.194  18.895  0.00  0.00    +0.000 N 
ATOM     13  C   UNL     1       3.151   3.312  19.951  0.00  0.00    +0.000 C 
ATOM     14  O   UNL     1       4.000   2.491  20.326  0.00  0.00    +0.000 OA
BRANCH  12  15
ATOM     15  C   UNL     1       2.396   4.999  18.212  0.00  0.00    +0.000 C 
ATOM     16  C   UNL     1       2.440   6.490  18.510  0.00  0.00    +0.000 C 
ENDBRANCH  12  15
BRANCH  13  17
ATOM     17  C   UNL     1       1.796   3.393  20.693  0.00  0.00    +0.000 C 
ATOM     18  C   UNL     1       0.692   2.709  19.878  0.00  0.00    +0.000 C 
BRANCH  17  19
ATOM     19  N   UNL     1       1.907   2.728  22.006  0.00  0.00    +0.000 NA
ATOM     20  H   UNL     1       1.631   1.752  21.889  0.00  0.00    +0.000 HD
ATOM     21  H   UNL     1       1.226   3.137  22.643  0.00  0.00    +0.000 HD
ENDBRANCH  17  19
ENDBRANCH  13  17
ENDBRANCH   1  12
TORSDOF 8
ENDMDL
MODEL 8
REMARK VINA RESULT:      -6.2      1.810      4.121
REMARK  Name = 
REMARK  10 active torsions:
REMARK  status: ('A' for Active; 'I' for Inactive)
REMARK    1  A    between atoms: C_2  and  C_3
REMARK    2  A    between atoms: C_3  and  O_4
REMARK    3  A    between atoms: O_4  and  C_5
REMARK    4  A    between atoms: C_10  and  C_11
REMARK    5  A    between atoms: C_11  and  N_12
REMARK    6  A    between atoms: N_12  and  C_13
REMARK    7  A    between atoms: C_13  and  C_14
REMARK    8  A    between atoms: C_15  and  C_17
REMARK    9  A    between atoms: C_17  and  C_18
REMARK   10  A    between atoms: C_17  and  N_19
REMARK                            x       y       z     vdW  Elec       q    Type
REMARK                         _______ _______ _______ _____ _____    ______ ____
ROOT
ATOM      1  C   UNL     1       3.043   5.904  17.639  0.00  0.00    +0.000 C 
ENDROOT
BRANCH   1   7
ATOM      2  C   UNL     1       2.205   6.963  19.781  0.00  0.00    +0.000 A 
ATOM      3  C   UNL     1       1.509   7.998  20.419  0.00  0.00    +0.000 A 
ATOM      4  C   UNL     1       1.262   9.193  19.743  0.00  0.00    +0.000 A 
ATOM      5  C   UNL     1       1.754   9.384  18.455  0.00  0.00    +0.000 A 
ATOM      6  C   UNL     1       2.438   8.349  17.812  0.00  0.00    +0.000 A 
ATOM      7  C   UNL     1       2.622   7.113  18.451  0.00  0.00    +0.000 A 
BRANCH   2   8
ATOM      8  O   UNL     1       2.521   5.768  20.363  0.00  0.00    +0.000 OA
BRANCH   8   9
ATOM      9  C   UNL     1       1.452   4.881  20.682  0.00  0.00    +0.000 C 
BRANCH   9  11
ATOM     10  C   UNL     1       1.507   2.566  21.700  0.00  0.00    +0.000 C 
ATOM     11  C   UNL     1       2.082   3.559  21.005  0.00  0.00    +0.000 C 
ENDBRANCH   9  11
ENDBRANCH   8   9
ENDBRANCH   2   8
ENDBRANCH   1   7
BRANCH   1  12
ATOM     12  N   UNL     1       4.413   5.392  17.686  0.00  0.00    +0.000 N 
ATOM     13  C   UNL     1       5.256   5.960  16.721  0.00  0.00    +0.000 C 
ATOM     14  O   UNL     1       4.834   6.812  15.925  0.00  0.00    +0.000 OA
BRANCH  12  15
ATOM     15  C   UNL     1       4.744   4.200  18.475  0.00  0.00    +0.000 C 
ATOM     16  C   UNL     1       4.010   2.930  18.070  0.00  0.00    +0.000 C 
ENDBRANCH  12  15
BRANCH  13  17
ATOM     17  C   UNL     1       6.748   5.555  16.676  0.00  0.00    +0.000 C 
ATOM     18  C   UNL     1       7.029   4.665  15.459  0.00  0.00    +0.000 C 
BRANCH  17  19
ATOM     19  N   UNL     1       7.590   6.764  16.591  0.00  0.00    +0.000 NA
ATOM     20  H   UNL     1       8.243   6.750  17.375  0.00  0.00    +0.000 HD
ATOM     21  H   UNL     1       7.005   7.586  16.728  0.00  0.00    +0.000 HD
ENDBRANCH  17  19
ENDBRANCH  13  17
ENDBRANCH   1  12
TORSDOF 8
ENDMDL
MODEL 9
REMARK VINA RESULT:      -6.2      1.458      2.227
REMARK  Name = 
REMARK  10 active torsions:
REMARK  status: ('A' for Active; 'I' for Inactive)
REMARK    1  A    between atoms: C_2  and  C_3
REMARK    2  A    between atoms: C_3  and  O_4
REMARK    3  A    between atoms: O_4  and  C_5
REMARK    4  A    between atoms: C_10  and  C_11
REMARK    5  A    between atoms: C_11  and  N_12
REMARK    6  A    between atoms: N_12  and  C_13
REMARK    7  A    between atoms: C_13  and  C_14
REMARK    8  A    between atoms: C_15  and  C_17
REMARK    9  A    between atoms: C_17  and  C_18
REMARK   10  A    between atoms: C_17  and  N_19
REMARK                            x       y       z     vdW  Elec       q    Type
REMARK                         _______ _______ _______ _____ _____    ______ ____
ROOT
ATOM      1  C   UNL     1       4.912   3.746  18.884  0.00  0.00    +0.000 C 
ENDROOT
BRANCH   1   7
ATOM      2  C   UNL     1       2.588   4.440  19.612  0.00  0.00    +0.000 A 
ATOM      3  C   UNL     1       1.263   4.089  19.901  0.00  0.00    +0.000 A 
ATOM      4  C   UNL     1       0.747   2.875  19.446  0.00  0.00    +0.000 A 
ATOM      5  C   UNL     1       1.528   2.036  18.654  0.00  0.00    +0.000 A 
ATOM      6  C   UNL     1       2.853   2.378  18.374  0.00  0.00    +0.000 A 
ATOM      7  C   UNL     1       3.408   3.557  18.895  0.00  0.00    +0.000 A 
BRANCH   2   8
ATOM      8  O   UNL     1       3.178   5.614  19.987  0.00  0.00    +0.000 OA
BRANCH   8   9
ATOM      9  C   UNL     1       2.463   6.823  19.748  0.00  0.00    +0.000 C 
BRANCH   9  11
ATOM     10  C   UNL     1       2.501   8.362  17.742  0.00  0.00    +0.000 C 
ATOM     11  C   UNL     1       2.664   7.153  18.299  0.00  0.00    +0.000 C 
ENDBRANCH   9  11
ENDBRANCH   8   9
ENDBRANCH   2   8
ENDBRANCH   1   7
BRANCH   1  12
ATOM     12  N   UNL     1       5.544   4.795  18.083  0.00  0.00    +0.000 N 
ATOM     13  C   UNL     1       5.677   4.463  16.728  0.00  0.00    +0.000 C 
ATOM     14  O   UNL     1       5.280   3.370  16.297  0.00  0.00    +0.000 OA
BRANCH  12  15
ATOM     15  C   UNL     1       6.218   5.929  18.727  0.00  0.00    +0.000 C 
ATOM     16  C   UNL     1       7.660   5.674  19.142  0.00  0.00    +0.000 C 
ENDBRANCH  12  15
BRANCH  13  17
ATOM     17  C   UNL     1       6.283   5.490  15.745  0.00  0.00    +0.000 C 
ATOM     18  C   UNL     1       6.773   4.794  14.470  0.00  0.00    +0.000 C 
BRANCH  17  19
ATOM     19  N   UNL     1       5.263   6.494  15.381  0.00  0.00    +0.000 NA
ATOM     20  H   UNL     1       5.564   6.952  14.520  0.00  0.00    +0.000 HD
ATOM     21  H   UNL     1       5.245   7.221  16.093  0.00  0.00    +0.000 HD
ENDBRANCH  17  19
ENDBRANCH  13  17
ENDBRANCH   1  12
TORSDOF 8
ENDMDL
