MODEL 1
REMARK VINA RESULT:      -7.3      0.000      0.000
REMARK  Name = 
REMARK  3 active torsions:
REMARK  status: ('A' for Active; 'I' for Inactive)
REMARK    1  A    between atoms: N_1  and  C_2
REMARK    2  A    between atoms: C_5  and  S_6
REMARK    3  A    between atoms: S_6  and  N_9
REMARK                            x       y       z     vdW  Elec       q    Type
REMARK                         _______ _______ _______ _____ _____    ______ ____
ROOT
ATOM      1  S   UNL     1       3.179   2.879  17.974  0.00  0.00    +0.000 S 
ATOM      2  O   UNL     1       2.085   2.782  17.023  0.00  0.00    +0.000 OA
ATOM      3  O   UNL     1       3.707   1.700  18.637  0.00  0.00    +0.000 OA
ENDROOT
BRANCH   1   4
ATOM      4  N   UNL     1       2.660   3.916  19.228  0.00  0.00    +0.000 N 
ATOM      5  C   UNL     1       2.465   3.475  20.514  0.00  0.00    +0.000 A 
ATOM      6  C   UNL     1       2.076   4.558  21.268  0.00  0.00    +0.000 A 
ATOM      7  C   UNL     1       2.088   5.702  20.421  0.00  0.00    +0.000 A 
ATOM      8  C   UNL     1       1.792   7.064  20.645  0.00  0.00    +0.000 A 
ATOM      9  C   UNL     1       1.898   7.977  19.594  0.00  0.00    +0.000 A 
ATOM     10  C   UNL     1       2.287   7.549  18.330  0.00  0.00    +0.000 A 
ATOM     11  C   UNL     1       2.580   6.204  18.079  0.00  0.00    +0.000 A 
ATOM     12  C   UNL     1       2.478   5.284  19.139  0.00  0.00    +0.000 A 
ENDBRANCH   1   4
BRANCH   1  16
ATOM     13  C   UNL     1       6.714   4.973  15.947  0.00  0.00    +0.000 A 
ATOM     14  C   UNL     1       5.588   4.597  15.208  0.00  0.00    +0.000 A 
ATOM     15  C   UNL     1       4.507   3.953  15.819  0.00  0.00    +0.000 A 
ATOM     16  C   UNL     1       4.529   3.728  17.197  0.00  0.00    +0.000 A 
ATOM     17  C   UNL     1       5.641   4.109  17.953  0.00  0.00    +0.000 A 
ATOM     18  C   UNL     1       6.714   4.753  17.327  0.00  0.00    +0.000 A 
BRANCH  13  19
ATOM     19  N   UNL     1       7.709   5.760  15.358  0.00  0.00    +0.000 N 
ATOM     20  H   UNL     1       8.377   6.151  16.014  0.00  0.00    +0.000 HD
ATOM     21  H   UNL     1       7.365   6.451  14.699  0.00  0.00    +0.000 HD
ENDBRANCH  13  19
ENDBRANCH   1  16
TORSDOF 3
ENDMDL
MODEL 2
REMARK VINA RESULT:      -7.2      0.123      1.114
REMARK  Name = 
REMARK  3 active torsions:
REMARK  status: ('A' for Active; 'I' for Inactive)
REMARK    1  A    between atoms: N_1  and  C_2
REMARK    2  A    between atoms: C_5  and  S_6
REMARK    3  A    between atoms: S_6  and  N_9
REMARK                            x       y       z     vdW  Elec       q    Type
REMARK                         _______ _______ _______ _____ _____    ______ ____
ROOT
ATOM      1  S   UNL     1       3.189   2.950  17.986  0.00  0.00    +0.000 S 
ATOM      2  O   UNL     1       2.094   2.834  17.040  0.00  0.00    +0.000 OA
ATOM      3  O   UNL     1       3.721   1.784  18.669  0.00  0.00    +0.000 OA
ENDROOT
BRANCH   1   4
ATOM      4  N   UNL     1       2.670   4.008  19.223  0.00  0.00    +0.000 N 
ATOM      5  C   UNL     1       2.486   3.591  20.518  0.00  0.00    +0.000 A 
ATOM      6  C   UNL     1       2.094   4.685  21.254  0.00  0.00    +0.000 A 
ATOM      7  C   UNL     1       2.092   5.813  20.384  0.00  0.00    +0.000 A 
ATOM      8  C   UNL     1       1.788   7.176  20.584  0.00  0.00    +0.000 A 
ATOM      9  C   UNL     1       1.881   8.069  19.514  0.00  0.00    +0.000 A 
ATOM     10  C   UNL     1       2.266   7.620  18.257  0.00  0.00    +0.000 A 
ATOM     11  C   UNL     1       2.567   6.272  18.030  0.00  0.00    +0.000 A 
ATOM     12  C   UNL     1       2.477   5.373  19.109  0.00  0.00    +0.000 A 
ENDBRANCH   1   4
BRANCH   1  16
ATOM     13  C   UNL     1       6.616   5.213  15.955  0.00  0.00    +0.000 A 
ATOM     14  C   UNL     1       6.672   4.907  17.319  0.00  0.00    +0.000 A 
ATOM     15  C   UNL     1       5.627   4.221  17.946  0.00  0.00    +0.000 A 
ATOM     16  C   UNL     1       4.536   3.788  17.191  0.00  0.00    +0.000 A 
ATOM     17  C   UNL     1       4.470   4.074  15.825  0.00  0.00    +0.000 A 
ATOM     18  C   UNL     1       5.523   4.760  15.211  0.00  0.00    +0.000 A 
BRANCH  13  19
ATOM     19  N   UNL     1       7.735   5.750  15.310  0.00  0.00    +0.000 N 
ATOM     20  H   UNL     1       8.538   5.131  15.278  0.00  0.00    +0.000 HD
ATOM     21  H   UNL     1       7.983   6.689  15.607  0.00  0.00    +0.000 HD
ENDBRANCH  13  19
ENDBRANCH   1  16
TORSDOF 3
ENDMDL
MODEL 3
REMARK VINA RESULT:      -7.0      0.931      1.120
REMARK  Name = 
REMARK  3 active torsions:
REMARK  status: ('A' for Active; 'I' for Inactive)
REMARK    1  A    between atoms: N_1  and  C_2
REMARK    2  A    between atoms: C_5  and  S_6
REMARK    3  A    between atoms: S_6  and  N_9
REMARK                            x       y       z     vdW  Elec       q    Type
REMARK                         _______ _______ _______ _____ _____    ______ ____
ROOT
ATOM      1  S   UNL     1       4.087   3.176  18.844  0.00  0.00    +0.000 S 
ATOM      2  O   UNL     1       3.154   2.289  18.171  0.00  0.00    +0.000 OA
ATOM      3  O   UNL     1       4.889   2.716  19.963  0.00  0.00    +0.000 OA
ENDROOT
BRANCH   1   4
ATOM      4  N   UNL     1       3.180   4.495  19.441  0.00  0.00    +0.000 N 
ATOM      5  C   UNL     1       2.507   4.443  20.637  0.00  0.00    +0.000 A 
ATOM      6  C   UNL     1       1.907   5.666  20.828  0.00  0.00    +0.000 A 
ATOM      7  C   UNL     1       2.274   6.502  19.736  0.00  0.00    +0.000 A 
ATOM      8  C   UNL     1       1.966   7.841  19.408  0.00  0.00    +0.000 A 
ATOM      9  C   UNL     1       2.487   8.404  18.242  0.00  0.00    +0.000 A 
ATOM     10  C   UNL     1       3.301   7.652  17.402  0.00  0.00    +0.000 A 
ATOM     11  C   UNL     1       3.616   6.321  17.699  0.00  0.00    +0.000 A 
ATOM     12  C   UNL     1       3.094   5.755  18.877  0.00  0.00    +0.000 A 
ENDBRANCH   1   4
BRANCH   1  16
ATOM     13  C   UNL     1       6.957   4.878  15.704  0.00  0.00    +0.000 A 
ATOM     14  C   UNL     1       5.749   4.287  15.321  0.00  0.00    +0.000 A 
ATOM     15  C   UNL     1       4.870   3.761  16.274  0.00  0.00    +0.000 A 
ATOM     16  C   UNL     1       5.178   3.873  17.631  0.00  0.00    +0.000 A 
ATOM     17  C   UNL     1       6.375   4.472  18.032  0.00  0.00    +0.000 A 
ATOM     18  C   UNL     1       7.243   4.995  17.068  0.00  0.00    +0.000 A 
BRANCH  13  19
ATOM     19  N   UNL     1       7.743   5.544  14.759  0.00  0.00    +0.000 N 
ATOM     20  H   UNL     1       8.367   4.941  14.232  0.00  0.00    +0.000 HD
ATOM     21  H   UNL     1       8.213   6.373  15.110  0.00  0.00    +0.000 HD
ENDBRANCH  13  19
ENDBRANCH   1  16
TORSDOF 3
ENDMDL
MODEL 4
REMARK VINA RESULT:      -6.9      2.544      3.818
REMARK  Name = 
REMARK  3 active torsions:
REMARK  status: ('A' for Active; 'I' for Inactive)
REMARK    1  A    between atoms: N_1  and  C_2
REMARK    2  A    between atoms: C_5  and  S_6
REMARK    3  A    between atoms: S_6  and  N_9
REMARK                            x       y       z     vdW  Elec       q    Type
REMARK                         _______ _______ _______ _____ _____    ______ ____
ROOT
ATOM      1  S   UNL     1       6.028   5.384  17.712  0.00  0.00    +0.000 S 
ATOM      2  O   UNL     1       6.662   4.397  18.568  0.00  0.00    +0.000 OA
ATOM      3  O   UNL     1       6.380   6.789  17.794  0.00  0.00    +0.000 OA
ENDROOT
BRANCH   1   4
ATOM      4  N   UNL     1       4.350   5.312  18.026  0.00  0.00    +0.000 N 
ATOM      5  C   UNL     1       3.546   6.425  17.985  0.00  0.00    +0.000 A 
ATOM      6  C   UNL     1       2.261   6.017  18.259  0.00  0.00    +0.000 A 
ATOM      7  C   UNL     1       2.281   4.603  18.419  0.00  0.00    +0.000 A 
ATOM      8  C   UNL     1       1.272   3.656  18.701  0.00  0.00    +0.000 A 
ATOM      9  C   UNL     1       1.602   2.303  18.799  0.00  0.00    +0.000 A 
ATOM     10  C   UNL     1       2.918   1.888  18.627  0.00  0.00    +0.000 A 
ATOM     11  C   UNL     1       3.938   2.806  18.354  0.00  0.00    +0.000 A 
ATOM     12  C   UNL     1       3.604   4.169  18.250  0.00  0.00    +0.000 A 
ENDBRANCH   1   4
BRANCH   1  16
ATOM     13  C   UNL     1       6.459   4.146  13.322  0.00  0.00    +0.000 A 
ATOM     14  C   UNL     1       7.542   4.691  14.019  0.00  0.00    +0.000 A 
ATOM     15  C   UNL     1       7.416   5.075  15.359  0.00  0.00    +0.000 A 
ATOM     16  C   UNL     1       6.207   4.865  16.025  0.00  0.00    +0.000 A 
ATOM     17  C   UNL     1       5.119   4.310  15.347  0.00  0.00    +0.000 A 
ATOM     18  C   UNL     1       5.260   3.929  14.008  0.00  0.00    +0.000 A 
BRANCH  13  19
ATOM     19  N   UNL     1       6.644   3.616  12.041  0.00  0.00    +0.000 N 
ATOM     20  H   UNL     1       7.521   3.878  11.601  0.00  0.00    +0.000 HD
ATOM     21  H   UNL     1       5.851   3.730  11.419  0.00  0.00    +0.000 HD
ENDBRANCH  13  19
ENDBRANCH   1  16
TORSDOF 3
ENDMDL
MODEL 5
REMARK VINA RESULT:      -6.9      2.537      3.729
REMARK  Name = 
REMARK  3 active torsions:
REMARK  status: ('A' for Active; 'I' for Inactive)
REMARK    1  A    between atoms: N_1  and  C_2
REMARK    2  A    between atoms: C_5  and  S_6
REMARK    3  A    between atoms: S_6  and  N_9
REMARK                            x       y       z     vdW  Elec       q    Type
REMARK                         _______ _______ _______ _____ _____    ______ ____
ROOT
ATOM      1  S   UNL     1       5.991   5.364  17.725  0.00  0.00    +0.000 S 
ATOM      2  O   UNL     1       6.604   4.348  18.561  0.00  0.00    +0.000 OA
ATOM      3  O   UNL     1       6.355   6.764  17.851  0.00  0.00    +0.000 OA
ENDROOT
BRANCH   1   4
ATOM      4  N   UNL     1       4.309   5.300  18.016  0.00  0.00    +0.000 N 
ATOM      5  C   UNL     1       3.508   6.415  17.952  0.00  0.00    +0.000 A 
ATOM      6  C   UNL     1       2.218   6.014  18.212  0.00  0.00    +0.000 A 
ATOM      7  C   UNL     1       2.232   4.601  18.387  0.00  0.00    +0.000 A 
ATOM      8  C   UNL     1       1.217   3.660  18.664  0.00  0.00    +0.000 A 
ATOM      9  C   UNL     1       1.542   2.307  18.782  0.00  0.00    +0.000 A 
ATOM     10  C   UNL     1       2.858   1.886  18.633  0.00  0.00    +0.000 A 
ATOM     11  C   UNL     1       3.884   2.799  18.365  0.00  0.00    +0.000 A 
ATOM     12  C   UNL     1       3.556   4.162  18.242  0.00  0.00    +0.000 A 
ENDBRANCH   1   4
BRANCH   1  16
ATOM     13  C   UNL     1       6.539   4.046  13.372  0.00  0.00    +0.000 A 
ATOM     14  C   UNL     1       5.342   3.792  14.049  0.00  0.00    +0.000 A 
ATOM     15  C   UNL     1       5.170   4.188  15.380  0.00  0.00    +0.000 A 
ATOM     16  C   UNL     1       6.187   4.892  16.026  0.00  0.00    +0.000 A 
ATOM     17  C   UNL     1       7.384   5.166  15.360  0.00  0.00    +0.000 A 
ATOM     18  C   UNL     1       7.542   4.765  14.029  0.00  0.00    +0.000 A 
BRANCH  13  19
ATOM     19  N   UNL     1       6.636   3.795  12.000  0.00  0.00    +0.000 N 
ATOM     20  H   UNL     1       6.944   4.589  11.448  0.00  0.00    +0.000 HD
ATOM     21  H   UNL     1       5.825   3.336  11.597  0.00  0.00    +0.000 HD
ENDBRANCH  13  19
ENDBRANCH   1  16
TORSDOF 3
ENDMDL
MODEL 6
REMARK VINA RESULT:      -6.8      1.679      5.193
REMARK  Name = 
REMARK  3 active torsions:
REMARK  status: ('A' for Active; 'I' for Inactive)
REMARK    1  A    between atoms: N_1  and  C_2
REMARK    2  A    between atoms: C_5  and  S_6
REMARK    3  A    between atoms: S_6  and  N_9
REMARK                            x       y       z     vdW  Elec       q    Type
REMARK                         _______ _______ _______ _____ _____    ______ ____
ROOT
ATOM      1  S   UNL     1       2.761   3.657  18.176  0.00  0.00    +0.000 S 
ATOM      2  O   UNL     1       2.969   2.681  19.231  0.00  0.00    +0.000 OA
ATOM      3  O   UNL     1       1.836   3.404  17.086  0.00  0.00    +0.000 OA
ENDROOT
BRANCH   1   4
ATOM      4  N   UNL     1       4.279   3.921  17.436  0.00  0.00    +0.000 N 
ATOM      5  C   UNL     1       4.508   3.648  16.110  0.00  0.00    +0.000 A 
ATOM      6  C   UNL     1       5.810   3.994  15.835  0.00  0.00    +0.000 A 
ATOM      7  C   UNL     1       6.372   4.543  17.022  0.00  0.00    +0.000 A 
ATOM      8  C   UNL     1       7.648   5.065  17.327  0.00  0.00    +0.000 A 
ATOM      9  C   UNL     1       7.910   5.545  18.612  0.00  0.00    +0.000 A 
ATOM     10  C   UNL     1       6.923   5.506  19.590  0.00  0.00    +0.000 A 
ATOM     11  C   UNL     1       5.652   4.988  19.316  0.00  0.00    +0.000 A 
ATOM     12  C   UNL     1       5.386   4.508  18.020  0.00  0.00    +0.000 A 
ENDBRANCH   1   4
BRANCH   1  16
ATOM     13  C   UNL     1       1.754   7.675  20.133  0.00  0.00    +0.000 A 
ATOM     14  C   UNL     1       2.208   7.619  18.812  0.00  0.00    +0.000 A 
ATOM     15  C   UNL     1       2.522   6.396  18.209  0.00  0.00    +0.000 A 
ATOM     16  C   UNL     1       2.331   5.209  18.919  0.00  0.00    +0.000 A 
ATOM     17  C   UNL     1       1.865   5.246  20.236  0.00  0.00    +0.000 A 
ATOM     18  C   UNL     1       1.553   6.476  20.825  0.00  0.00    +0.000 A 
BRANCH  13  19
ATOM     19  N   UNL     1       1.288   8.881  20.665  0.00  0.00    +0.000 N 
ATOM     20  H   UNL     1       0.868   8.801  21.585  0.00  0.00    +0.000 HD
ATOM     21  H   UNL     1       0.719   9.431  20.028  0.00  0.00    +0.000 HD
ENDBRANCH  13  19
ENDBRANCH   1  16
TORSDOF 3
ENDMDL
MODEL 7
REMARK VINA RESULT:      -6.7      2.166      3.126
REMARK  Name = 
REMARK  3 active torsions:
REMARK  status: ('A' for Active; 'I' for Inactive)
REMARK    1  A    between atoms: N_1  and  C_2
REMARK    2  A    between atoms: C_5  and  S_6
REMARK    3  A    between atoms: S_6  and  N_9
REMARK                            x       y       z     vdW  Elec       q    Type
REMARK                         _______ _______ _______ _____ _____    ______ ____
ROOT
ATOM      1  S   UNL     1       3.028   5.632  18.725  0.00  0.00    +0.000 S 
ATOM      2  O   UNL     1       1.953   4.793  18.224  0.00  0.00    +0.000 OA
ATOM      3  O   UNL     1       3.546   5.469  20.071  0.00  0.00    +0.000 OA
ENDROOT
BRANCH   1   4
ATOM      4  N   UNL     1       2.481   7.248  18.637  0.00  0.00    +0.000 N 
ATOM      5  C   UNL     1       2.591   8.000  17.492  0.00  0.00    +0.000 A 
ATOM      6  C   UNL     1       2.038   9.233  17.753  0.00  0.00    +0.000 A 
ATOM      7  C   UNL     1       1.530   9.207  19.082  0.00  0.00    +0.000 A 
ATOM      8  C   UNL     1       0.864  10.168  19.872  0.00  0.00    +0.000 A 
ATOM      9  C   UNL     1       0.476   9.845  21.174  0.00  0.00    +0.000 A 
ATOM     10  C   UNL     1       0.748   8.585  21.694  0.00  0.00    +0.000 A 
ATOM     11  C   UNL     1       1.413   7.615  20.935  0.00  0.00    +0.000 A 
ATOM     12  C   UNL     1       1.800   7.940  19.622  0.00  0.00    +0.000 A 
ENDBRANCH   1   4
BRANCH   1  16
ATOM     13  C   UNL     1       6.593   5.316  15.865  0.00  0.00    +0.000 A 
ATOM     14  C   UNL     1       5.464   4.510  15.689  0.00  0.00    +0.000 A 
ATOM     15  C   UNL     1       4.373   4.598  16.562  0.00  0.00    +0.000 A 
ATOM     16  C   UNL     1       4.390   5.539  17.592  0.00  0.00    +0.000 A 
ATOM     17  C   UNL     1       5.505   6.362  17.773  0.00  0.00    +0.000 A 
ATOM     18  C   UNL     1       6.587   6.264  16.892  0.00  0.00    +0.000 A 
BRANCH  13  19
ATOM     19  N   UNL     1       7.599   5.335  14.894  0.00  0.00    +0.000 N 
ATOM     20  H   UNL     1       7.259   5.378  13.938  0.00  0.00    +0.000 HD
ATOM     21  H   UNL     1       8.317   4.629  15.017  0.00  0.00    +0.000 HD
ENDBRANCH  13  19
ENDBRANCH   1  16
TORSDOF 3
ENDMDL
MODEL 8
REMARK VINA RESULT:      -6.7      2.009      5.453
REMARK  Name = 
REMARK  3 active torsions:
REMARK  status: ('A' for Active; 'I' for Inactive)
REMARK    1  A    between atoms: N_1  and  C_2
REMARK    2  A    between atoms: C_5  and  S_6
REMARK    3  A    between atoms: S_6  and  N_9
REMARK                            x       y       z     vdW  Elec       q    Type
REMARK                         _______ _______ _______ _____ _____    ______ ____
ROOT
ATOM      1  S   UNL     1       3.263   4.665  18.980  0.00  0.00    +0.000 S 
ATOM      2  O   UNL     1       3.344   4.087  20.309  0.00  0.00    +0.000 OA
ATOM      3  O   UNL     1       2.585   3.975  17.898  0.00  0.00    +0.000 OA
ENDROOT
BRANCH   1   4
ATOM      4  N   UNL     1       4.867   4.899  18.440  0.00  0.00    +0.000 N 
ATOM      5  C   UNL     1       5.894   5.211  19.298  0.00  0.00    +0.000 A 
ATOM      6  C   UNL     1       7.044   5.304  18.550  0.00  0.00    +0.000 A 
ATOM      7  C   UNL     1       6.711   4.987  17.203  0.00  0.00    +0.000 A 
ATOM      8  C   UNL     1       7.476   4.915  16.018  0.00  0.00    +0.000 A 
ATOM      9  C   UNL     1       6.856   4.567  14.816  0.00  0.00    +0.000 A 
ATOM     10  C   UNL     1       5.493   4.298  14.781  0.00  0.00    +0.000 A 
ATOM     11  C   UNL     1       4.711   4.368  15.940  0.00  0.00    +0.000 A 
ATOM     12  C   UNL     1       5.336   4.715  17.152  0.00  0.00    +0.000 A 
ENDBRANCH   1   4
BRANCH   1  16
ATOM     13  C   UNL     1       1.588   8.913  19.358  0.00  0.00    +0.000 A 
ATOM     14  C   UNL     1       2.116   8.459  18.145  0.00  0.00    +0.000 A 
ATOM     15  C   UNL     1       2.633   7.165  18.023  0.00  0.00    +0.000 A 
ATOM     16  C   UNL     1       2.576   6.295  19.114  0.00  0.00    +0.000 A 
ATOM     17  C   UNL     1       2.039   6.728  20.330  0.00  0.00    +0.000 A 
ATOM     18  C   UNL     1       1.524   8.024  20.435  0.00  0.00    +0.000 A 
BRANCH  13  19
ATOM     19  N   UNL     1       0.927  10.143  19.419  0.00  0.00    +0.000 N 
ATOM     20  H   UNL     1      -0.002  10.101  19.825  0.00  0.00    +0.000 HD
ATOM     21  H   UNL     1       0.946  10.676  18.555  0.00  0.00    +0.000 HD
ENDBRANCH  13  19
ENDBRANCH   1  16
TORSDOF 3
ENDMDL
MODEL 9
REMARK VINA RESULT:      -6.7      2.044      5.559
REMARK  Name = 
REMARK  3 active torsions:
REMARK  status: ('A' for Active; 'I' for Inactive)
REMARK    1  A    between atoms: N_1  and  C_2
REMARK    2  A    between atoms: C_5  and  S_6
REMARK    3  A    between atoms: S_6  and  N_9
REMARK                            x       y       z     vdW  Elec       q    Type
REMARK                         _______ _______ _______ _____ _____    ______ ____
ROOT
ATOM      1  S   UNL     1       3.232   4.752  18.953  0.00  0.00    +0.000 S 
ATOM      2  O   UNL     1       3.289   4.148  20.273  0.00  0.00    +0.000 OA
ATOM      3  O   UNL     1       2.544   4.100  17.855  0.00  0.00    +0.000 OA
ENDROOT
BRANCH   1   4
ATOM      4  N   UNL     1       4.846   4.953  18.428  0.00  0.00    +0.000 N 
ATOM      5  C   UNL     1       5.869   5.257  19.293  0.00  0.00    +0.000 A 
ATOM      6  C   UNL     1       7.028   5.322  18.556  0.00  0.00    +0.000 A 
ATOM      7  C   UNL     1       6.704   4.996  17.209  0.00  0.00    +0.000 A 
ATOM      8  C   UNL     1       7.479   4.898  16.033  0.00  0.00    +0.000 A 
ATOM      9  C   UNL     1       6.866   4.547  14.828  0.00  0.00    +0.000 A 
ATOM     10  C   UNL     1       5.499   4.300  14.782  0.00  0.00    +0.000 A 
ATOM     11  C   UNL     1       4.706   4.397  15.932  0.00  0.00    +0.000 A 
ATOM     12  C   UNL     1       5.324   4.746  17.147  0.00  0.00    +0.000 A 
ENDBRANCH   1   4
BRANCH   1  16
ATOM     13  C   UNL     1       1.466   8.962  19.334  0.00  0.00    +0.000 A 
ATOM     14  C   UNL     1       1.494   8.098  20.433  0.00  0.00    +0.000 A 
ATOM     15  C   UNL     1       2.027   6.809  20.323  0.00  0.00    +0.000 A 
ATOM     16  C   UNL     1       2.587   6.397  19.112  0.00  0.00    +0.000 A 
ATOM     17  C   UNL     1       2.580   7.253  18.007  0.00  0.00    +0.000 A 
ATOM     18  C   UNL     1       2.044   8.539  18.133  0.00  0.00    +0.000 A 
BRANCH  13  19
ATOM     19  N   UNL     1       1.084  10.297  19.501  0.00  0.00    +0.000 N 
ATOM     20  H   UNL     1       1.723  10.850  20.063  0.00  0.00    +0.000 HD
ATOM     21  H   UNL     1       0.116  10.427  19.776  0.00  0.00    +0.000 HD
ENDBRANCH  13  19
ENDBRANCH   1  16
TORSDOF 3
ENDMDL
