MODEL 1
REMARK VINA RESULT:      -7.4      0.000      0.000
REMARK  Name = 
REMARK  10 active torsions:
REMARK  status: ('A' for Active; 'I' for Inactive)
REMARK    1  A    between atoms: C_1  and  C_2
REMARK    2  A    between atoms: C_2  and  N_3
REMARK    3  A    between atoms: N_3  and  C_4
REMARK    4  A    between atoms: N_3  and  C_6
REMARK    5  A    between atoms: C_4  and  C_5
REMARK    6  A    between atoms: C_9  and  C_10
REMARK    7  A    between atoms: C_11  and  C_12
REMARK    8  A    between atoms: C_11  and  C_14
REMARK    9  A    between atoms: N_16  and  C_17
REMARK   10  A    between atoms: C_17  and  C_18
REMARK                            x       y       z     vdW  Elec       q    Type
REMARK                         _______ _______ _______ _____ _____    ______ ____
ROOT
ATOM      1  C   UNL     1       4.743   6.678  16.795  0.00  0.00    +0.000 C 
ATOM      2  C   UNL     1       5.362   5.494  16.628  0.00  0.00    +0.000 C 
ENDROOT
BRANCH   1   6
ATOM      3  C   UNL     1       2.161   8.059  18.942  0.00  0.00    +0.000 A 
ATOM      4  C   UNL     1       2.187   6.774  19.436  0.00  0.00    +0.000 A 
ATOM      5  C   UNL     1       3.162   6.066  18.690  0.00  0.00    +0.000 A 
ATOM      6  C   UNL     1       3.717   6.939  17.761  0.00  0.00    +0.000 A 
ATOM      7  O   UNL     1       3.117   8.165  17.968  0.00  0.00    +0.000 OA
BRANCH   3   8
ATOM      8  N   UNL     1       1.411   9.165  19.246  0.00  0.00    +0.000 N 
BRANCH   8  10
ATOM      9  C   UNL     1       0.763  10.502  21.251  0.00  0.00    +0.000 C 
ATOM     10  C   UNL     1       0.654   9.175  20.508  0.00  0.00    +0.000 C 
ENDBRANCH   8  10
BRANCH   8  11
ATOM     11  C   UNL     1       0.895   9.955  18.114  0.00  0.00    +0.000 C 
ATOM     12  C   UNL     1      -0.614   9.853  17.927  0.00  0.00    +0.000 C 
ENDBRANCH   8  11
ENDBRANCH   3   8
ENDBRANCH   1   6
BRANCH   2  13
ATOM     13  C   UNL     1       5.185   4.312  17.561  0.00  0.00    +0.000 C 
ATOM     14  O   UNL     1       5.906   4.132  18.538  0.00  0.00    +0.000 OA
ATOM     15  N   UNL     1       4.217   3.394  17.196  0.00  0.00    +0.000 N 
ATOM     16  H   UNL     1       3.695   3.483  16.334  0.00  0.00    +0.000 HD
BRANCH  15  17
ATOM     17  C   UNL     1       3.950   2.210  17.989  0.00  0.00    +0.000 C 
BRANCH  17  18
ATOM     18  C   UNL     1       2.975   2.478  19.108  0.00  0.00    +0.000 A 
ATOM     19  C   UNL     1       3.413   2.501  20.441  0.00  0.00    +0.000 A 
ATOM     20  C   UNL     1       2.522   2.783  21.480  0.00  0.00    +0.000 A 
ATOM     21  C   UNL     1       1.179   3.033  21.200  0.00  0.00    +0.000 A 
ATOM     22  C   UNL     1       0.726   2.999  19.881  0.00  0.00    +0.000 A 
ATOM     23  C   UNL     1       1.617   2.719  18.839  0.00  0.00    +0.000 A 
ENDBRANCH  17  18
ENDBRANCH  15  17
ENDBRANCH   2  13
BRANCH   2  24
ATOM     24  C   UNL     1       6.467   5.289  15.605  0.00  0.00    +0.000 C 
ATOM     25  N   UNL     1       7.385   5.118  14.758  0.00  0.00    +0.000 NA
ENDBRANCH   2  24
TORSDOF 8
ENDMDL
MODEL 2
REMARK VINA RESULT:      -7.3      0.489      1.511
REMARK  Name = 
REMARK  10 active torsions:
REMARK  status: ('A' for Active; 'I' for Inactive)
REMARK    1  A    between atoms: C_1  and  C_2
REMARK    2  A    between atoms: C_2  and  N_3
REMARK    3  A    between atoms: N_3  and  C_4
REMARK    4  A    between atoms: N_3  and  C_6
REMARK    5  A    between atoms: C_4  and  C_5
REMARK    6  A    between atoms: C_9  and  C_10
REMARK    7  A    between atoms: C_11  and  C_12
REMARK    8  A    between atoms: C_11  and  C_14
REMARK    9  A    between atoms: N_16  and  C_17
REMARK   10  A    between atoms: C_17  and  C_18
REMARK                            x       y       z     vdW  Elec       q    Type
REMARK                         _______ _______ _______ _____ _____    ______ ____
ROOT
ATOM      1  C   UNL     1       4.783   6.718  16.797  0.00  0.00    +0.000 C 
ATOM      2  C   UNL     1       5.361   5.524  16.567  0.00  0.00    +0.000 C 
ENDROOT
BRANCH   1   6
ATOM      3  C   UNL     1       2.180   8.032  18.960  0.00  0.00    +0.000 A 
ATOM      4  C   UNL     1       2.390   6.824  19.588  0.00  0.00    +0.000 A 
ATOM      5  C   UNL     1       3.399   6.152  18.855  0.00  0.00    +0.000 A 
ATOM      6  C   UNL     1       3.790   6.970  17.800  0.00  0.00    +0.000 A 
ATOM      7  O   UNL     1       3.058   8.135  17.916  0.00  0.00    +0.000 OA
BRANCH   3   8
ATOM      8  N   UNL     1       1.319   9.073  19.196  0.00  0.00    +0.000 N 
BRANCH   8  10
ATOM      9  C   UNL     1       1.409  11.518  18.707  0.00  0.00    +0.000 C 
ATOM     10  C   UNL     1       1.174  10.113  18.165  0.00  0.00    +0.000 C 
ENDBRANCH   8  10
BRANCH   8  11
ATOM     11  C   UNL     1       1.091   9.446  20.603  0.00  0.00    +0.000 C 
ATOM     12  C   UNL     1      -0.361   9.321  21.048  0.00  0.00    +0.000 C 
ENDBRANCH   8  11
ENDBRANCH   3   8
ENDBRANCH   1   6
BRANCH   2  13
ATOM     13  C   UNL     1       5.171   4.311  17.456  0.00  0.00    +0.000 C 
ATOM     14  O   UNL     1       5.946   4.037  18.367  0.00  0.00    +0.000 OA
ATOM     15  N   UNL     1       4.120   3.477  17.122  0.00  0.00    +0.000 N 
ATOM     16  H   UNL     1       3.545   3.641  16.307  0.00  0.00    +0.000 HD
BRANCH  15  17
ATOM     17  C   UNL     1       3.830   2.273  17.878  0.00  0.00    +0.000 C 
BRANCH  17  18
ATOM     18  C   UNL     1       2.936   2.543  19.062  0.00  0.00    +0.000 A 
ATOM     19  C   UNL     1       1.574   2.828  18.873  0.00  0.00    +0.000 A 
ATOM     20  C   UNL     1       0.733   3.046  19.968  0.00  0.00    +0.000 A 
ATOM     21  C   UNL     1       1.245   2.992  21.264  0.00  0.00    +0.000 A 
ATOM     22  C   UNL     1       2.598   2.724  21.466  0.00  0.00    +0.000 A 
ATOM     23  C   UNL     1       3.443   2.504  20.372  0.00  0.00    +0.000 A 
ENDBRANCH  17  18
ENDBRANCH  15  17
ENDBRANCH   2  13
BRANCH   2  24
ATOM     24  C   UNL     1       6.433   5.329  15.508  0.00  0.00    +0.000 C 
ATOM     25  N   UNL     1       7.323   5.168  14.629  0.00  0.00    +0.000 NA
ENDBRANCH   2  24
TORSDOF 8
ENDMDL
MODEL 3
REMARK VINA RESULT:      -7.3      0.458      1.156
REMARK  Name = 
REMARK  10 active torsions:
REMARK  status: ('A' for Active; 'I' for Inactive)
REMARK    1  A    between atoms: C_1  and  C_2
REMARK    2  A    between atoms: C_2  and  N_3
REMARK    3  A    between atoms: N_3  and  C_4
REMARK    4  A    between atoms: N_3  and  C_6
REMARK    5  A    between atoms: C_4  and  C_5
REMARK    6  A    between atoms: C_9  and  C_10
REMARK    7  A    between atoms: C_11  and  C_12
REMARK    8  A    between atoms: C_11  and  C_14
REMARK    9  A    between atoms: N_16  and  C_17
REMARK   10  A    between atoms: C_17  and  C_18
REMARK                            x       y       z     vdW  Elec       q    Type
REMARK                         _______ _______ _______ _____ _____    ______ ____
ROOT
ATOM      1  C   UNL     1       4.739   6.732  16.889  0.00  0.00    +0.000 C 
ATOM      2  C   UNL     1       5.333   5.546  16.657  0.00  0.00    +0.000 C 
ENDROOT
BRANCH   1   6
ATOM      3  C   UNL     1       2.178   8.041  19.104  0.00  0.00    +0.000 A 
ATOM      4  C   UNL     1       2.277   6.768  19.620  0.00  0.00    +0.000 A 
ATOM      5  C   UNL     1       3.254   6.088  18.851  0.00  0.00    +0.000 A 
ATOM      6  C   UNL     1       3.738   6.967  17.887  0.00  0.00    +0.000 A 
ATOM      7  O   UNL     1       3.092   8.170  18.095  0.00  0.00    +0.000 OA
BRANCH   3   8
ATOM      8  N   UNL     1       1.392   9.119  19.417  0.00  0.00    +0.000 N 
BRANCH   8  10
ATOM      9  C   UNL     1       1.071   9.434  21.872  0.00  0.00    +0.000 C 
ATOM     10  C   UNL     1       0.454   9.003  20.546  0.00  0.00    +0.000 C 
ENDBRANCH   8  10
BRANCH   8  11
ATOM     11  C   UNL     1       1.051  10.039  18.317  0.00  0.00    +0.000 C 
ATOM     12  C   UNL     1       1.220  11.512  18.670  0.00  0.00    +0.000 C 
ENDBRANCH   8  11
ENDBRANCH   3   8
ENDBRANCH   1   6
BRANCH   2  13
ATOM     13  C   UNL     1       5.154   4.327  17.540  0.00  0.00    +0.000 C 
ATOM     14  O   UNL     1       5.917   4.069  18.466  0.00  0.00    +0.000 OA
ATOM     15  N   UNL     1       4.129   3.470  17.185  0.00  0.00    +0.000 N 
ATOM     16  H   UNL     1       3.567   3.622  16.359  0.00  0.00    +0.000 HD
BRANCH  15  17
ATOM     17  C   UNL     1       3.853   2.258  17.934  0.00  0.00    +0.000 C 
BRANCH  17  18
ATOM     18  C   UNL     1       2.939   2.507  19.108  0.00  0.00    +0.000 A 
ATOM     19  C   UNL     1       1.571   2.747  18.903  0.00  0.00    +0.000 A 
ATOM     20  C   UNL     1       0.713   2.945  19.988  0.00  0.00    +0.000 A 
ATOM     21  C   UNL     1       1.213   2.917  21.290  0.00  0.00    +0.000 A 
ATOM     22  C   UNL     1       2.572   2.694  21.507  0.00  0.00    +0.000 A 
ATOM     23  C   UNL     1       3.434   2.494  20.422  0.00  0.00    +0.000 A 
ENDBRANCH  17  18
ENDBRANCH  15  17
ENDBRANCH   2  13
BRANCH   2  24
ATOM     24  C   UNL     1       6.413   5.368  15.603  0.00  0.00    +0.000 C 
ATOM     25  N   UNL     1       7.310   5.219  14.729  0.00  0.00    +0.000 NA
ENDBRANCH   2  24
TORSDOF 8
ENDMDL
MODEL 4
REMARK VINA RESULT:      -7.2      3.264      6.701
REMARK  Name = 
REMARK  10 active torsions:
REMARK  status: ('A' for Active; 'I' for Inactive)
REMARK    1  A    between atoms: C_1  and  C_2
REMARK    2  A    between atoms: C_2  and  N_3
REMARK    3  A    between atoms: N_3  and  C_4
REMARK    4  A    between atoms: N_3  and  C_6
REMARK    5  A    between atoms: C_4  and  C_5
REMARK    6  A    between atoms: C_9  and  C_10
REMARK    7  A    between atoms: C_11  and  C_12
REMARK    8  A    between atoms: C_11  and  C_14
REMARK    9  A    between atoms: N_16  and  C_17
REMARK   10  A    between atoms: C_17  and  C_18
REMARK                            x       y       z     vdW  Elec       q    Type
REMARK                         _______ _______ _______ _____ _____    ______ ____
ROOT
ATOM      1  C   UNL     1       7.578   4.764  15.852  0.00  0.00    +0.000 C 
ATOM      2  C   UNL     1       6.686   4.867  16.855  0.00  0.00    +0.000 C 
ENDROOT
BRANCH   1   6
ATOM      3  C   UNL     1       6.214   3.804  12.627  0.00  0.00    +0.000 A 
ATOM      4  C   UNL     1       7.146   4.724  12.200  0.00  0.00    +0.000 A 
ATOM      5  C   UNL     1       7.790   5.224  13.359  0.00  0.00    +0.000 A 
ATOM      6  C   UNL     1       7.242   4.590  14.469  0.00  0.00    +0.000 A 
ATOM      7  O   UNL     1       6.310   3.692  13.987  0.00  0.00    +0.000 OA
BRANCH   3   8
ATOM      8  N   UNL     1       5.291   3.032  11.970  0.00  0.00    +0.000 N 
BRANCH   8  10
ATOM      9  C   UNL     1       7.180   1.681  11.056  0.00  0.00    +0.000 C 
ATOM     10  C   UNL     1       5.710   1.717  11.458  0.00  0.00    +0.000 C 
ENDBRANCH   8  10
BRANCH   8  11
ATOM     11  C   UNL     1       4.203   3.739  11.273  0.00  0.00    +0.000 C 
ATOM     12  C   UNL     1       3.252   2.818  10.518  0.00  0.00    +0.000 C 
ENDBRANCH   8  11
ENDBRANCH   3   8
ENDBRANCH   1   6
BRANCH   2  13
ATOM     13  C   UNL     1       5.189   4.991  16.641  0.00  0.00    +0.000 C 
ATOM     14  O   UNL     1       4.662   6.038  16.278  0.00  0.00    +0.000 OA
ATOM     15  N   UNL     1       4.439   3.876  16.967  0.00  0.00    +0.000 N 
ATOM     16  H   UNL     1       4.859   3.049  17.369  0.00  0.00    +0.000 HD
BRANCH  15  17
ATOM     17  C   UNL     1       2.996   3.859  16.826  0.00  0.00    +0.000 C 
BRANCH  17  18
ATOM     18  C   UNL     1       2.290   3.880  18.160  0.00  0.00    +0.000 A 
ATOM     19  C   UNL     1       1.552   2.765  18.589  0.00  0.00    +0.000 A 
ATOM     20  C   UNL     1       0.924   2.764  19.837  0.00  0.00    +0.000 A 
ATOM     21  C   UNL     1       1.016   3.881  20.667  0.00  0.00    +0.000 A 
ATOM     22  C   UNL     1       1.734   5.001  20.248  0.00  0.00    +0.000 A 
ATOM     23  C   UNL     1       2.366   5.004  18.998  0.00  0.00    +0.000 A 
ENDBRANCH  17  18
ENDBRANCH  15  17
ENDBRANCH   2  13
BRANCH   2  24
ATOM     24  C   UNL     1       7.105   5.083  18.299  0.00  0.00    +0.000 C 
ATOM     25  N   UNL     1       7.453   5.260  19.498  0.00  0.00    +0.000 NA
ENDBRANCH   2  24
TORSDOF 8
ENDMDL
MODEL 5
REMARK VINA RESULT:      -6.8      2.146      4.848
REMARK  Name = 
REMARK  10 active torsions:
REMARK  status: ('A' for Active; 'I' for Inactive)
REMARK    1  A    between atoms: C_1  and  C_2
REMARK    2  A    between atoms: C_2  and  N_3
REMARK    3  A    between atoms: N_3  and  C_4
REMARK    4  A    between atoms: N_3  and  C_6
REMARK    5  A    between atoms: C_4  and  C_5
REMARK    6  A    between atoms: C_9  and  C_10
REMARK    7  A    between atoms: C_11  and  C_12
REMARK    8  A    between atoms: C_11  and  C_14
REMARK    9  A    between atoms: N_16  and  C_17
REMARK   10  A    between atoms: C_17  and  C_18
REMARK                            x       y       z     vdW  Elec       q    Type
REMARK                         _______ _______ _______ _____ _____    ______ ____
ROOT
ATOM      1  C   UNL     1       1.953   6.143  20.621  0.00  0.00    +0.000 C 
ATOM      2  C   UNL     1       2.124   4.851  20.282  0.00  0.00    +0.000 C 
ENDROOT
BRANCH   1   6
ATOM      3  C   UNL     1       1.655   9.298  18.850  0.00  0.00    +0.000 A 
ATOM      4  C   UNL     1       2.392   8.599  17.920  0.00  0.00    +0.000 A 
ATOM      5  C   UNL     1       2.617   7.308  18.460  0.00  0.00    +0.000 A 
ATOM      6  C   UNL     1       2.002   7.245  19.706  0.00  0.00    +0.000 A 
ATOM      7  O   UNL     1       1.383   8.464  19.900  0.00  0.00    +0.000 OA
BRANCH   3   8
ATOM      8  N   UNL     1       1.174  10.581  18.891  0.00  0.00    +0.000 N 
BRANCH   8  10
ATOM      9  C   UNL     1      -1.017  10.090  17.801  0.00  0.00    +0.000 C 
ATOM     10  C   UNL     1      -0.283  10.785  18.942  0.00  0.00    +0.000 C 
ENDBRANCH   8  10
BRANCH   8  11
ATOM     11  C   UNL     1       2.005  11.627  18.269  0.00  0.00    +0.000 C 
ATOM     12  C   UNL     1       1.488  13.043  18.496  0.00  0.00    +0.000 C 
ENDBRANCH   8  11
ENDBRANCH   3   8
ENDBRANCH   1   6
BRANCH   2  13
ATOM     13  C   UNL     1       2.218   4.361  18.850  0.00  0.00    +0.000 C 
ATOM     14  O   UNL     1       1.227   4.214  18.140  0.00  0.00    +0.000 OA
ATOM     15  N   UNL     1       3.480   4.003  18.416  0.00  0.00    +0.000 N 
ATOM     16  H   UNL     1       4.282   4.020  19.032  0.00  0.00    +0.000 HD
BRANCH  15  17
ATOM     17  C   UNL     1       3.714   3.505  17.074  0.00  0.00    +0.000 C 
BRANCH  17  18
ATOM     18  C   UNL     1       5.005   4.022  16.489  0.00  0.00    +0.000 A 
ATOM     19  C   UNL     1       5.238   3.945  15.106  0.00  0.00    +0.000 A 
ATOM     20  C   UNL     1       6.417   4.453  14.554  0.00  0.00    +0.000 A 
ATOM     21  C   UNL     1       7.382   5.032  15.377  0.00  0.00    +0.000 A 
ATOM     22  C   UNL     1       7.170   5.102  16.754  0.00  0.00    +0.000 A 
ATOM     23  C   UNL     1       5.990   4.596  17.310  0.00  0.00    +0.000 A 
ENDBRANCH  17  18
ENDBRANCH  15  17
ENDBRANCH   2  13
BRANCH   2  24
ATOM     24  C   UNL     1       2.028   3.723  21.296  0.00  0.00    +0.000 C 
ATOM     25  N   UNL     1       1.949   2.786  22.136  0.00  0.00    +0.000 NA
ENDBRANCH   2  24
TORSDOF 8
ENDMDL
MODEL 6
REMARK VINA RESULT:      -6.7      2.108      4.794
REMARK  Name = 
REMARK  10 active torsions:
REMARK  status: ('A' for Active; 'I' for Inactive)
REMARK    1  A    between atoms: C_1  and  C_2
REMARK    2  A    between atoms: C_2  and  N_3
REMARK    3  A    between atoms: N_3  and  C_4
REMARK    4  A    between atoms: N_3  and  C_6
REMARK    5  A    between atoms: C_4  and  C_5
REMARK    6  A    between atoms: C_9  and  C_10
REMARK    7  A    between atoms: C_11  and  C_12
REMARK    8  A    between atoms: C_11  and  C_14
REMARK    9  A    between atoms: N_16  and  C_17
REMARK   10  A    between atoms: C_17  and  C_18
REMARK                            x       y       z     vdW  Elec       q    Type
REMARK                         _______ _______ _______ _____ _____    ______ ____
ROOT
ATOM      1  C   UNL     1       2.053   6.164  20.541  0.00  0.00    +0.000 C 
ATOM      2  C   UNL     1       2.195   4.852  20.274  0.00  0.00    +0.000 C 
ENDROOT
BRANCH   1   6
ATOM      3  C   UNL     1       1.842   9.206  18.569  0.00  0.00    +0.000 A 
ATOM      4  C   UNL     1       2.685   8.481  17.756  0.00  0.00    +0.000 A 
ATOM      5  C   UNL     1       2.891   7.230  18.389  0.00  0.00    +0.000 A 
ATOM      6  C   UNL     1       2.161   7.216  19.572  0.00  0.00    +0.000 A 
ATOM      7  O   UNL     1       1.492   8.422  19.635  0.00  0.00    +0.000 OA
BRANCH   3   8
ATOM      8  N   UNL     1       1.325  10.472  18.490  0.00  0.00    +0.000 N 
BRANCH   8  10
ATOM      9  C   UNL     1       1.972  12.869  18.747  0.00  0.00    +0.000 C 
ATOM     10  C   UNL     1       2.192  11.558  18.002  0.00  0.00    +0.000 C 
ENDBRANCH   8  10
BRANCH   8  11
ATOM     11  C   UNL     1       0.241  10.812  19.429  0.00  0.00    +0.000 C 
ATOM     12  C   UNL     1      -1.157  10.637  18.847  0.00  0.00    +0.000 C 
ENDBRANCH   8  11
ENDBRANCH   3   8
ENDBRANCH   1   6
BRANCH   2  13
ATOM     13  C   UNL     1       2.314   4.286  18.872  0.00  0.00    +0.000 C 
ATOM     14  O   UNL     1       1.338   4.119  18.146  0.00  0.00    +0.000 OA
ATOM     15  N   UNL     1       3.580   3.883  18.490  0.00  0.00    +0.000 N 
ATOM     16  H   UNL     1       4.366   3.919  19.124  0.00  0.00    +0.000 HD
BRANCH  15  17
ATOM     17  C   UNL     1       3.836   3.311  17.182  0.00  0.00    +0.000 C 
BRANCH  17  18
ATOM     18  C   UNL     1       5.045   3.923  16.517  0.00  0.00    +0.000 A 
ATOM     19  C   UNL     1       5.161   3.921  15.118  0.00  0.00    +0.000 A 
ATOM     20  C   UNL     1       6.262   4.516  14.495  0.00  0.00    +0.000 A 
ATOM     21  C   UNL     1       7.264   5.109  15.262  0.00  0.00    +0.000 A 
ATOM     22  C   UNL     1       7.168   5.104  16.653  0.00  0.00    +0.000 A 
ATOM     23  C   UNL     1       6.067   4.511  17.280  0.00  0.00    +0.000 A 
ENDBRANCH  17  18
ENDBRANCH  15  17
ENDBRANCH   2  13
BRANCH   2  24
ATOM     24  C   UNL     1       2.037   3.782  21.341  0.00  0.00    +0.000 C 
ATOM     25  N   UNL     1       1.904   2.894  22.226  0.00  0.00    +0.000 NA
ENDBRANCH   2  24
TORSDOF 8
ENDMDL
MODEL 7
REMARK VINA RESULT:      -6.6      1.065      1.538
REMARK  Name = 
REMARK  10 active torsions:
REMARK  status: ('A' for Active; 'I' for Inactive)
REMARK    1  A    between atoms: C_1  and  C_2
REMARK    2  A    between atoms: C_2  and  N_3
REMARK    3  A    between atoms: N_3  and  C_4
REMARK    4  A    between atoms: N_3  and  C_6
REMARK    5  A    between atoms: C_4  and  C_5
REMARK    6  A    between atoms: C_9  and  C_10
REMARK    7  A    between atoms: C_11  and  C_12
REMARK    8  A    between atoms: C_11  and  C_14
REMARK    9  A    between atoms: N_16  and  C_17
REMARK   10  A    between atoms: C_17  and  C_18
REMARK                            x       y       z     vdW  Elec       q    Type
REMARK                         _______ _______ _______ _____ _____    ______ ____
ROOT
ATOM      1  C   UNL     1       4.763   6.931  16.566  0.00  0.00    +0.000 C 
ATOM      2  C   UNL     1       5.505   5.839  16.826  0.00  0.00    +0.000 C 
ENDROOT
BRANCH   1   6
ATOM      3  C   UNL     1       2.054   8.742  18.167  0.00  0.00    +0.000 A 
ATOM      4  C   UNL     1       2.007   7.585  18.912  0.00  0.00    +0.000 A 
ATOM      5  C   UNL     1       3.020   6.731  18.407  0.00  0.00    +0.000 A 
ATOM      6  C   UNL     1       3.670   7.392  17.371  0.00  0.00    +0.000 A 
ATOM      7  O   UNL     1       3.087   8.640  17.275  0.00  0.00    +0.000 OA
BRANCH   3   8
ATOM      8  N   UNL     1       1.311   9.894  18.179  0.00  0.00    +0.000 N 
BRANCH   8  10
ATOM      9  C   UNL     1       1.597  12.097  19.315  0.00  0.00    +0.000 C 
ATOM     10  C   UNL     1       2.015  11.186  18.166  0.00  0.00    +0.000 C 
ENDBRANCH   8  10
BRANCH   8  11
ATOM     11  C   UNL     1      -0.016   9.826  18.816  0.00  0.00    +0.000 C 
ATOM     12  C   UNL     1      -1.175  10.071  17.857  0.00  0.00    +0.000 C 
ENDBRANCH   8  11
ENDBRANCH   3   8
ENDBRANCH   1   6
BRANCH   2  13
ATOM     13  C   UNL     1       5.402   5.037  18.109  0.00  0.00    +0.000 C 
ATOM     14  O   UNL     1       5.829   5.455  19.181  0.00  0.00    +0.000 OA
ATOM     15  N   UNL     1       4.879   3.763  17.984  0.00  0.00    +0.000 N 
ATOM     16  H   UNL     1       4.626   3.375  17.085  0.00  0.00    +0.000 HD
BRANCH  15  17
ATOM     17  C   UNL     1       4.735   2.881  19.126  0.00  0.00    +0.000 C 
BRANCH  17  18
ATOM     18  C   UNL     1       3.352   2.942  19.726  0.00  0.00    +0.000 A 
ATOM     19  C   UNL     1       2.231   3.148  18.906  0.00  0.00    +0.000 A 
ATOM     20  C   UNL     1       0.945   3.172  19.450  0.00  0.00    +0.000 A 
ATOM     21  C   UNL     1       0.763   3.002  20.823  0.00  0.00    +0.000 A 
ATOM     22  C   UNL     1       1.868   2.811  21.651  0.00  0.00    +0.000 A 
ATOM     23  C   UNL     1       3.158   2.785  21.108  0.00  0.00    +0.000 A 
ENDBRANCH  17  18
ENDBRANCH  15  17
ENDBRANCH   2  13
BRANCH   2  24
ATOM     24  C   UNL     1       6.673   5.419  15.949  0.00  0.00    +0.000 C 
ATOM     25  N   UNL     1       7.643   5.073  15.222  0.00  0.00    +0.000 NA
ENDBRANCH   2  24
TORSDOF 8
ENDMDL
MODEL 8
REMARK VINA RESULT:      -6.6      1.090      1.316
REMARK  Name = 
REMARK  10 active torsions:
REMARK  status: ('A' for Active; 'I' for Inactive)
REMARK    1  A    between atoms: C_1  and  C_2
REMARK    2  A    between atoms: C_2  and  N_3
REMARK    3  A    between atoms: N_3  and  C_4
REMARK    4  A    between atoms: N_3  and  C_6
REMARK    5  A    between atoms: C_4  and  C_5
REMARK    6  A    between atoms: C_9  and  C_10
REMARK    7  A    between atoms: C_11  and  C_12
REMARK    8  A    between atoms: C_11  and  C_14
REMARK    9  A    between atoms: N_16  and  C_17
REMARK   10  A    between atoms: C_17  and  C_18
REMARK                            x       y       z     vdW  Elec       q    Type
REMARK                         _______ _______ _______ _____ _____    ______ ____
ROOT
ATOM      1  C   UNL     1       4.759   6.907  16.548  0.00  0.00    +0.000 C 
ATOM      2  C   UNL     1       5.511   5.821  16.809  0.00  0.00    +0.000 C 
ENDROOT
BRANCH   1   6
ATOM      3  C   UNL     1       2.139   8.746  18.261  0.00  0.00    +0.000 A 
ATOM      4  C   UNL     1       1.921   7.501  18.809  0.00  0.00    +0.000 A 
ATOM      5  C   UNL     1       2.876   6.626  18.234  0.00  0.00    +0.000 A 
ATOM      6  C   UNL     1       3.663   7.360  17.353  0.00  0.00    +0.000 A 
ATOM      7  O   UNL     1       3.218   8.665  17.424  0.00  0.00    +0.000 OA
BRANCH   3   8
ATOM      8  N   UNL     1       1.517   9.957  18.413  0.00  0.00    +0.000 N 
BRANCH   8  10
ATOM      9  C   UNL     1      -0.577  10.074  19.765  0.00  0.00    +0.000 C 
ATOM     10  C   UNL     1       0.046  10.003  18.376  0.00  0.00    +0.000 C 
ENDBRANCH   8  10
BRANCH   8  11
ATOM     11  C   UNL     1       2.265  11.151  17.981  0.00  0.00    +0.000 C 
ATOM     12  C   UNL     1       1.941  12.407  18.783  0.00  0.00    +0.000 C 
ENDBRANCH   8  11
ENDBRANCH   3   8
ENDBRANCH   1   6
BRANCH   2  13
ATOM     13  C   UNL     1       5.416   5.020  18.093  0.00  0.00    +0.000 C 
ATOM     14  O   UNL     1       5.860   5.434  19.160  0.00  0.00    +0.000 OA
ATOM     15  N   UNL     1       4.879   3.752  17.975  0.00  0.00    +0.000 N 
ATOM     16  H   UNL     1       4.612   3.366  17.079  0.00  0.00    +0.000 HD
BRANCH  15  17
ATOM     17  C   UNL     1       4.741   2.871  19.119  0.00  0.00    +0.000 C 
BRANCH  17  18
ATOM     18  C   UNL     1       3.345   2.892  19.692  0.00  0.00    +0.000 A 
ATOM     19  C   UNL     1       3.144   2.757  21.076  0.00  0.00    +0.000 A 
ATOM     20  C   UNL     1       1.857   2.810  21.617  0.00  0.00    +0.000 A 
ATOM     21  C   UNL     1       0.754   2.987  20.781  0.00  0.00    +0.000 A 
ATOM     22  C   UNL     1       0.938   3.108  19.404  0.00  0.00    +0.000 A 
ATOM     23  C   UNL     1       2.226   3.057  18.860  0.00  0.00    +0.000 A 
ENDBRANCH  17  18
ENDBRANCH  15  17
ENDBRANCH   2  13
BRANCH   2  24
ATOM     24  C   UNL     1       6.682   5.410  15.932  0.00  0.00    +0.000 C 
ATOM     25  N   UNL     1       7.653   5.068  15.204  0.00  0.00    +0.000 NA
ENDBRANCH   2  24
TORSDOF 8
ENDMDL
MODEL 9
REMARK VINA RESULT:      -6.5      3.409      6.491
REMARK  Name = 
REMARK  10 active torsions:
REMARK  status: ('A' for Active; 'I' for Inactive)
REMARK    1  A    between atoms: C_1  and  C_2
REMARK    2  A    between atoms: C_2  and  N_3
REMARK    3  A    between atoms: N_3  and  C_4
REMARK    4  A    between atoms: N_3  and  C_6
REMARK    5  A    between atoms: C_4  and  C_5
REMARK    6  A    between atoms: C_9  and  C_10
REMARK    7  A    between atoms: C_11  and  C_12
REMARK    8  A    between atoms: C_11  and  C_14
REMARK    9  A    between atoms: N_16  and  C_17
REMARK   10  A    between atoms: C_17  and  C_18
REMARK                            x       y       z     vdW  Elec       q    Type
REMARK                         _______ _______ _______ _____ _____    ______ ____
ROOT
ATOM      1  C   UNL     1       5.010   5.503  16.014  0.00  0.00    +0.000 C 
ATOM      2  C   UNL     1       6.356   5.557  16.016  0.00  0.00    +0.000 C 
ENDROOT
BRANCH   1   6
ATOM      3  C   UNL     1       2.802   5.009  18.853  0.00  0.00    +0.000 A 
ATOM      4  C   UNL     1       3.034   6.359  18.995  0.00  0.00    +0.000 A 
ATOM      5  C   UNL     1       3.908   6.737  17.946  0.00  0.00    +0.000 A 
ATOM      6  C   UNL     1       4.183   5.609  17.180  0.00  0.00    +0.000 A 
ATOM      7  O   UNL     1       3.456   4.573  17.733  0.00  0.00    +0.000 OA
BRANCH   3   8
ATOM      8  N   UNL     1       2.072   4.103  19.578  0.00  0.00    +0.000 N 
BRANCH   8  10
ATOM      9  C   UNL     1       2.300   3.162  21.879  0.00  0.00    +0.000 C 
ATOM     10  C   UNL     1       1.878   4.347  21.017  0.00  0.00    +0.000 C 
ENDBRANCH   8  10
BRANCH   8  11
ATOM     11  C   UNL     1       2.069   2.710  19.099  0.00  0.00    +0.000 C 
ATOM     12  C   UNL     1       0.707   2.227  18.613  0.00  0.00    +0.000 C 
ENDBRANCH   8  11
ENDBRANCH   3   8
ENDBRANCH   1   6
BRANCH   2  13
ATOM     13  C   UNL     1       7.183   5.916  17.235  0.00  0.00    +0.000 C 
ATOM     14  O   UNL     1       7.444   5.101  18.115  0.00  0.00    +0.000 OA
ATOM     15  N   UNL     1       7.551   7.244  17.345  0.00  0.00    +0.000 N 
ATOM     16  H   UNL     1       7.246   7.940  16.677  0.00  0.00    +0.000 HD
BRANCH  15  17
ATOM     17  C   UNL     1       8.331   7.730  18.466  0.00  0.00    +0.000 C 
BRANCH  17  18
ATOM     18  C   UNL     1       8.528   9.226  18.421  0.00  0.00    +0.000 A 
ATOM     19  C   UNL     1       9.418   9.851  19.309  0.00  0.00    +0.000 A 
ATOM     20  C   UNL     1       9.631  11.231  19.249  0.00  0.00    +0.000 A 
ATOM     21  C   UNL     1       8.948  12.004  18.311  0.00  0.00    +0.000 A 
ATOM     22  C   UNL     1       8.050  11.398  17.432  0.00  0.00    +0.000 A 
ATOM     23  C   UNL     1       7.837  10.016  17.488  0.00  0.00    +0.000 A 
ENDBRANCH  17  18
ENDBRANCH  15  17
ENDBRANCH   2  13
BRANCH   2  24
ATOM     24  C   UNL     1       7.176   5.469  14.740  0.00  0.00    +0.000 C 
ATOM     25  N   UNL     1       7.859   5.397  13.682  0.00  0.00    +0.000 NA
ENDBRANCH   2  24
TORSDOF 8
ENDMDL
