MODEL 1
REMARK VINA RESULT:      -6.4      0.000      0.000
REMARK  Name = 
REMARK  15 active torsions:
REMARK  status: ('A' for Active; 'I' for Inactive)
REMARK    1  A    between atoms: C_1  and  C_2
REMARK    2  A    between atoms: C_2  and  C_3
REMARK    3  A    between atoms: C_3  and  C_4
REMARK    4  A    between atoms: C_4  and  C_5
REMARK    5  A    between atoms: C_5  and  N_6
REMARK    6  A    between atoms: C_5  and  C_14
REMARK    7  A    between atoms: C_7  and  O_9
REMARK    8  A    between atoms: O_9  and  C_10
REMARK    9  A    between atoms: C_10  and  C_11
REMARK   10  A    between atoms: C_10  and  C_12
REMARK   11  A    between atoms: C_10  and  C_13
REMARK   12  A    between atoms: C_14  and  C_16
REMARK   13  A    between atoms: N_18  and  C_19
REMARK   14  A    between atoms: C_19  and  C_20
REMARK   15  A    between atoms: C_19  and  C_21
REMARK                            x       y       z     vdW  Elec       q    Type
REMARK                         _______ _______ _______ _____ _____    ______ ____
ROOT
ATOM      1  C   UNL     1       4.920   5.908  17.531  0.00  0.00    +0.000 C 
ENDROOT
BRANCH   1   2
ATOM      2  N   UNL     1       4.502   5.003  18.606  0.00  0.00    +0.000 N 
ATOM      3  C   UNL     1       3.680   3.950  18.319  0.00  0.00    +0.000 C 
ATOM      4  O   UNL     1       3.252   3.736  17.192  0.00  0.00    +0.000 OA
ATOM      5  H   UNL     1       4.701   5.204  19.578  0.00  0.00    +0.000 HD
BRANCH   3   6
ATOM      6  O   UNL     1       3.403   3.209  19.419  0.00  0.00    +0.000 OA
BRANCH   6   7
ATOM      7  C   UNL     1       2.096   3.334  20.044  0.00  0.00    +0.000 C 
ATOM      8  C   UNL     1       2.094   2.818  21.493  0.00  0.00    +0.000 C 
ATOM      9  C   UNL     1       1.745   4.833  20.066  0.00  0.00    +0.000 C 
ATOM     10  C   UNL     1       1.029   2.617  19.204  0.00  0.00    +0.000 C 
ENDBRANCH   6   7
ENDBRANCH   3   6
ENDBRANCH   1   2
BRANCH   1  11
ATOM     11  C   UNL     1       6.438   5.962  17.443  0.00  0.00    +0.000 C 
ATOM     12  O   UNL     1       7.156   6.663  18.153  0.00  0.00    +0.000 OA
BRANCH  11  13
ATOM     13  C   UNL     1       7.099   5.046  16.404  0.00  0.00    +0.000 C 
ATOM     14  O   UNL     1       7.958   4.244  16.724  0.00  0.00    +0.000 OA
ATOM     15  N   UNL     1       6.609   5.234  15.128  0.00  0.00    +0.000 N 
ATOM     16  H   UNL     1       5.814   5.863  15.041  0.00  0.00    +0.000 HD
BRANCH  15  17
ATOM     17  C   UNL     1       7.017   4.426  13.992  0.00  0.00    +0.000 C 
ATOM     18  C   UNL     1       5.797   3.782  13.341  0.00  0.00    +0.000 C 
ATOM     19  C   UNL     1       7.779   5.282  12.984  0.00  0.00    +0.000 C 
ENDBRANCH  15  17
ENDBRANCH  11  13
ENDBRANCH   1  11
BRANCH   1  20
ATOM     20  C   UNL     1       4.342   7.317  17.773  0.00  0.00    +0.000 C 
BRANCH  20  21
ATOM     21  C   UNL     1       2.826   7.446  17.579  0.00  0.00    +0.000 C 
BRANCH  21  23
ATOM     22  C   UNL     1       1.392   9.452  17.991  0.00  0.00    +0.000 C 
ATOM     23  C   UNL     1       2.108   8.275  18.642  0.00  0.00    +0.000 C 
ENDBRANCH  21  23
ENDBRANCH  20  21
ENDBRANCH   1  20
TORSDOF 9
ENDMDL
MODEL 2
REMARK VINA RESULT:      -6.4      2.226      2.968
REMARK  Name = 
REMARK  15 active torsions:
REMARK  status: ('A' for Active; 'I' for Inactive)
REMARK    1  A    between atoms: C_1  and  C_2
REMARK    2  A    between atoms: C_2  and  C_3
REMARK    3  A    between atoms: C_3  and  C_4
REMARK    4  A    between atoms: C_4  and  C_5
REMARK    5  A    between atoms: C_5  and  N_6
REMARK    6  A    between atoms: C_5  and  C_14
REMARK    7  A    between atoms: C_7  and  O_9
REMARK    8  A    between atoms: O_9  and  C_10
REMARK    9  A    between atoms: C_10  and  C_11
REMARK   10  A    between atoms: C_10  and  C_12
REMARK   11  A    between atoms: C_10  and  C_13
REMARK   12  A    between atoms: C_14  and  C_16
REMARK   13  A    between atoms: N_18  and  C_19
REMARK   14  A    between atoms: C_19  and  C_20
REMARK   15  A    between atoms: C_19  and  C_21
REMARK                            x       y       z     vdW  Elec       q    Type
REMARK                         _______ _______ _______ _____ _____    ______ ____
ROOT
ATOM      1  C   UNL     1       5.705   5.513  17.475  0.00  0.00    +0.000 C 
ENDROOT
BRANCH   1   2
ATOM      2  N   UNL     1       4.880   4.444  18.046  0.00  0.00    +0.000 N 
ATOM      3  C   UNL     1       4.016   4.732  19.066  0.00  0.00    +0.000 C 
ATOM      4  O   UNL     1       3.914   5.853  19.546  0.00  0.00    +0.000 OA
ATOM      5  H   UNL     1       5.019   3.473  17.796  0.00  0.00    +0.000 HD
BRANCH   3   6
ATOM      6  O   UNL     1       3.324   3.638  19.466  0.00  0.00    +0.000 OA
BRANCH   6   7
ATOM      7  C   UNL     1       1.899   3.562  19.185  0.00  0.00    +0.000 C 
ATOM      8  C   UNL     1       1.052   4.179  20.310  0.00  0.00    +0.000 C 
ATOM      9  C   UNL     1       1.649   4.366  17.895  0.00  0.00    +0.000 C 
ATOM     10  C   UNL     1       1.482   2.108  18.917  0.00  0.00    +0.000 C 
ENDBRANCH   6   7
ENDBRANCH   3   6
ENDBRANCH   1   2
BRANCH   1  11
ATOM     11  C   UNL     1       5.468   5.622  15.976  0.00  0.00    +0.000 C 
ATOM     12  O   UNL     1       5.117   6.648  15.396  0.00  0.00    +0.000 OA
BRANCH  11  13
ATOM     13  C   UNL     1       5.715   4.355  15.146  0.00  0.00    +0.000 C 
ATOM     14  O   UNL     1       5.723   3.252  15.663  0.00  0.00    +0.000 OA
ATOM     15  N   UNL     1       5.905   4.617  13.805  0.00  0.00    +0.000 N 
ATOM     16  H   UNL     1       5.758   5.579  13.511  0.00  0.00    +0.000 HD
BRANCH  15  17
ATOM     17  C   UNL     1       6.071   3.575  12.807  0.00  0.00    +0.000 C 
ATOM     18  C   UNL     1       4.784   3.404  12.007  0.00  0.00    +0.000 C 
ATOM     19  C   UNL     1       7.240   3.911  11.885  0.00  0.00    +0.000 C 
ENDBRANCH  15  17
ENDBRANCH  11  13
ENDBRANCH   1  11
BRANCH   1  20
ATOM     20  C   UNL     1       7.195   5.243  17.768  0.00  0.00    +0.000 C 
BRANCH  20  21
ATOM     21  C   UNL     1       7.766   5.978  18.988  0.00  0.00    +0.000 C 
BRANCH  21  23
ATOM     22  C   UNL     1       7.784   7.845  17.326  0.00  0.00    +0.000 C 
ATOM     23  C   UNL     1       8.213   7.414  18.723  0.00  0.00    +0.000 C 
ENDBRANCH  21  23
ENDBRANCH  20  21
ENDBRANCH   1  20
TORSDOF 9
ENDMDL
MODEL 3
REMARK VINA RESULT:      -6.4      1.645      6.095
REMARK  Name = 
REMARK  15 active torsions:
REMARK  status: ('A' for Active; 'I' for Inactive)
REMARK    1  A    between atoms: C_1  and  C_2
REMARK    2  A    between atoms: C_2  and  C_3
REMARK    3  A    between atoms: C_3  and  C_4
REMARK    4  A    between atoms: C_4  and  C_5
REMARK    5  A    between atoms: C_5  and  N_6
REMARK    6  A    between atoms: C_5  and  C_14
REMARK    7  A    between atoms: C_7  and  O_9
REMARK    8  A    between atoms: O_9  and  C_10
REMARK    9  A    between atoms: C_10  and  C_11
REMARK   10  A    between atoms: C_10  and  C_12
REMARK   11  A    between atoms: C_10  and  C_13
REMARK   12  A    between atoms: C_14  and  C_16
REMARK   13  A    between atoms: N_18  and  C_19
REMARK   14  A    between atoms: C_19  and  C_20
REMARK   15  A    between atoms: C_19  and  C_21
REMARK                            x       y       z     vdW  Elec       q    Type
REMARK                         _______ _______ _______ _____ _____    ______ ____
ROOT
ATOM      1  C   UNL     1       5.689   4.993  16.831  0.00  0.00    +0.000 C 
ENDROOT
BRANCH   1   2
ATOM      2  N   UNL     1       5.784   3.970  15.785  0.00  0.00    +0.000 N 
ATOM      3  C   UNL     1       6.454   4.251  14.626  0.00  0.00    +0.000 C 
ATOM      4  O   UNL     1       6.967   5.340  14.411  0.00  0.00    +0.000 OA
ATOM      5  H   UNL     1       5.263   3.104  15.839  0.00  0.00    +0.000 HD
BRANCH   3   6
ATOM      6  O   UNL     1       6.457   3.196  13.776  0.00  0.00    +0.000 OA
BRANCH   6   7
ATOM      7  C   UNL     1       6.250   3.433  12.356  0.00  0.00    +0.000 C 
ATOM      8  C   UNL     1       7.187   4.521  11.807  0.00  0.00    +0.000 C 
ATOM      9  C   UNL     1       6.565   2.113  11.627  0.00  0.00    +0.000 C 
ATOM     10  C   UNL     1       4.780   3.780  12.078  0.00  0.00    +0.000 C 
ENDBRANCH   6   7
ENDBRANCH   3   6
ENDBRANCH   1   2
BRANCH   1  11
ATOM     11  C   UNL     1       5.510   4.341  18.194  0.00  0.00    +0.000 C 
ATOM     12  O   UNL     1       6.291   4.462  19.136  0.00  0.00    +0.000 OA
BRANCH  11  13
ATOM     13  C   UNL     1       4.242   3.499  18.392  0.00  0.00    +0.000 C 
ATOM     14  O   UNL     1       3.897   2.671  17.567  0.00  0.00    +0.000 OA
ATOM     15  N   UNL     1       3.587   3.780  19.573  0.00  0.00    +0.000 N 
ATOM     16  H   UNL     1       4.061   4.416  20.209  0.00  0.00    +0.000 HD
BRANCH  15  17
ATOM     17  C   UNL     1       2.412   3.053  20.023  0.00  0.00    +0.000 C 
ATOM     18  C   UNL     1       2.423   2.928  21.543  0.00  0.00    +0.000 C 
ATOM     19  C   UNL     1       1.144   3.756  19.547  0.00  0.00    +0.000 C 
ENDBRANCH  15  17
ENDBRANCH  11  13
ENDBRANCH   1  11
BRANCH   1  20
ATOM     20  C   UNL     1       4.518   5.948  16.529  0.00  0.00    +0.000 C 
BRANCH  20  21
ATOM     21  C   UNL     1       4.283   7.046  17.575  0.00  0.00    +0.000 C 
BRANCH  21  23
ATOM     22  C   UNL     1       2.227   8.443  17.841  0.00  0.00    +0.000 C 
ATOM     23  C   UNL     1       2.868   7.096  18.149  0.00  0.00    +0.000 C 
ENDBRANCH  21  23
ENDBRANCH  20  21
ENDBRANCH   1  20
TORSDOF 9
ENDMDL
MODEL 4
REMARK VINA RESULT:      -6.3      1.389      1.930
REMARK  Name = 
REMARK  15 active torsions:
REMARK  status: ('A' for Active; 'I' for Inactive)
REMARK    1  A    between atoms: C_1  and  C_2
REMARK    2  A    between atoms: C_2  and  C_3
REMARK    3  A    between atoms: C_3  and  C_4
REMARK    4  A    between atoms: C_4  and  C_5
REMARK    5  A    between atoms: C_5  and  N_6
REMARK    6  A    between atoms: C_5  and  C_14
REMARK    7  A    between atoms: C_7  and  O_9
REMARK    8  A    between atoms: O_9  and  C_10
REMARK    9  A    between atoms: C_10  and  C_11
REMARK   10  A    between atoms: C_10  and  C_12
REMARK   11  A    between atoms: C_10  and  C_13
REMARK   12  A    between atoms: C_14  and  C_16
REMARK   13  A    between atoms: N_18  and  C_19
REMARK   14  A    between atoms: C_19  and  C_20
REMARK   15  A    between atoms: C_19  and  C_21
REMARK                            x       y       z     vdW  Elec       q    Type
REMARK                         _______ _______ _______ _____ _____    ______ ____
ROOT
ATOM      1  C   UNL     1       4.869   4.887  16.307  0.00  0.00    +0.000 C 
ENDROOT
BRANCH   1   2
ATOM      2  N   UNL     1       4.591   4.228  17.587  0.00  0.00    +0.000 N 
ATOM      3  C   UNL     1       3.474   3.450  17.715  0.00  0.00    +0.000 C 
ATOM      4  O   UNL     1       2.673   3.292  16.804  0.00  0.00    +0.000 OA
ATOM      5  H   UNL     1       5.131   4.431  18.419  0.00  0.00    +0.000 HD
BRANCH   3   6
ATOM      6  O   UNL     1       3.376   2.908  18.953  0.00  0.00    +0.000 OA
BRANCH   6   7
ATOM      7  C   UNL     1       2.187   3.174  19.749  0.00  0.00    +0.000 C 
ATOM      8  C   UNL     1       2.357   2.732  21.211  0.00  0.00    +0.000 C 
ATOM      9  C   UNL     1       1.962   4.698  19.729  0.00  0.00    +0.000 C 
ATOM     10  C   UNL     1       0.956   2.512  19.113  0.00  0.00    +0.000 C 
ENDBRANCH   6   7
ENDBRANCH   3   6
ENDBRANCH   1   2
BRANCH   1  11
ATOM     11  C   UNL     1       6.252   4.503  15.804  0.00  0.00    +0.000 C 
ATOM     12  O   UNL     1       7.187   4.152  16.523  0.00  0.00    +0.000 OA
BRANCH  11  13
ATOM     13  C   UNL     1       6.466   4.537  14.285  0.00  0.00    +0.000 C 
ATOM     14  O   UNL     1       7.255   5.312  13.774  0.00  0.00    +0.000 OA
ATOM     15  N   UNL     1       5.694   3.612  13.610  0.00  0.00    +0.000 N 
ATOM     16  H   UNL     1       5.168   2.961  14.187  0.00  0.00    +0.000 HD
BRANCH  15  17
ATOM     17  C   UNL     1       5.785   3.396  12.176  0.00  0.00    +0.000 C 
ATOM     18  C   UNL     1       6.462   2.060  11.889  0.00  0.00    +0.000 C 
ATOM     19  C   UNL     1       4.394   3.443  11.549  0.00  0.00    +0.000 C 
ENDBRANCH  15  17
ENDBRANCH  11  13
ENDBRANCH   1  11
BRANCH   1  20
ATOM     20  C   UNL     1       4.757   6.417  16.466  0.00  0.00    +0.000 C 
BRANCH  20  21
ATOM     21  C   UNL     1       3.914   6.892  17.657  0.00  0.00    +0.000 C 
BRANCH  21  23
ATOM     22  C   UNL     1       1.833   8.254  17.905  0.00  0.00    +0.000 C 
ATOM     23  C   UNL     1       3.301   8.282  17.498  0.00  0.00    +0.000 C 
ENDBRANCH  21  23
ENDBRANCH  20  21
ENDBRANCH   1  20
TORSDOF 9
ENDMDL
MODEL 5
REMARK VINA RESULT:      -6.3      2.239      3.328
REMARK  Name = 
REMARK  15 active torsions:
REMARK  status: ('A' for Active; 'I' for Inactive)
REMARK    1  A    between atoms: C_1  and  C_2
REMARK    2  A    between atoms: C_2  and  C_3
REMARK    3  A    between atoms: C_3  and  C_4
REMARK    4  A    between atoms: C_4  and  C_5
REMARK    5  A    between atoms: C_5  and  N_6
REMARK    6  A    between atoms: C_5  and  C_14
REMARK    7  A    between atoms: C_7  and  O_9
REMARK    8  A    between atoms: O_9  and  C_10
REMARK    9  A    between atoms: C_10  and  C_11
REMARK   10  A    between atoms: C_10  and  C_12
REMARK   11  A    between atoms: C_10  and  C_13
REMARK   12  A    between atoms: C_14  and  C_16
REMARK   13  A    between atoms: N_18  and  C_19
REMARK   14  A    between atoms: C_19  and  C_20
REMARK   15  A    between atoms: C_19  and  C_21
REMARK                            x       y       z     vdW  Elec       q    Type
REMARK                         _______ _______ _______ _____ _____    ______ ____
ROOT
ATOM      1  C   UNL     1       6.598   6.267  17.580  0.00  0.00    +0.000 C 
ENDROOT
BRANCH   1   2
ATOM      2  N   UNL     1       5.808   5.640  18.644  0.00  0.00    +0.000 N 
ATOM      3  C   UNL     1       4.453   5.823  18.674  0.00  0.00    +0.000 C 
ATOM      4  O   UNL     1       3.864   6.513  17.853  0.00  0.00    +0.000 OA
ATOM      5  H   UNL     1       6.246   5.180  19.432  0.00  0.00    +0.000 HD
BRANCH   3   6
ATOM      6  O   UNL     1       3.877   5.168  19.711  0.00  0.00    +0.000 OA
BRANCH   6   7
ATOM      7  C   UNL     1       3.084   3.978  19.442  0.00  0.00    +0.000 C 
ATOM      8  C   UNL     1       3.908   2.875  18.758  0.00  0.00    +0.000 C 
ATOM      9  C   UNL     1       2.596   3.443  20.801  0.00  0.00    +0.000 C 
ATOM     10  C   UNL     1       1.844   4.336  18.609  0.00  0.00    +0.000 C 
ENDBRANCH   6   7
ENDBRANCH   3   6
ENDBRANCH   1   2
BRANCH   1  11
ATOM     11  C   UNL     1       7.009   5.229  16.545  0.00  0.00    +0.000 C 
ATOM     12  O   UNL     1       7.851   4.352  16.730  0.00  0.00    +0.000 OA
BRANCH  11  13
ATOM     13  C   UNL     1       6.287   5.284  15.192  0.00  0.00    +0.000 C 
ATOM     14  O   UNL     1       5.437   6.126  14.962  0.00  0.00    +0.000 OA
ATOM     15  N   UNL     1       6.716   4.311  14.312  0.00  0.00    +0.000 N 
ATOM     16  H   UNL     1       7.511   3.754  14.612  0.00  0.00    +0.000 HD
BRANCH  15  17
ATOM     17  C   UNL     1       6.244   4.215  12.941  0.00  0.00    +0.000 C 
ATOM     18  C   UNL     1       7.295   3.534  12.071  0.00  0.00    +0.000 C 
ATOM     19  C   UNL     1       4.924   3.451  12.893  0.00  0.00    +0.000 C 
ENDBRANCH  15  17
ENDBRANCH  11  13
ENDBRANCH   1  11
BRANCH   1  20
ATOM     20  C   UNL     1       7.841   6.953  18.180  0.00  0.00    +0.000 C 
BRANCH  20  21
ATOM     21  C   UNL     1       8.008   8.435  17.822  0.00  0.00    +0.000 C 
BRANCH  21  23
ATOM     22  C   UNL     1       9.153  10.615  18.256  0.00  0.00    +0.000 C 
ATOM     23  C   UNL     1       8.774   9.265  18.851  0.00  0.00    +0.000 C 
ENDBRANCH  21  23
ENDBRANCH  20  21
ENDBRANCH   1  20
TORSDOF 9
ENDMDL
MODEL 6
REMARK VINA RESULT:      -6.3      1.364      2.132
REMARK  Name = 
REMARK  15 active torsions:
REMARK  status: ('A' for Active; 'I' for Inactive)
REMARK    1  A    between atoms: C_1  and  C_2
REMARK    2  A    between atoms: C_2  and  C_3
REMARK    3  A    between atoms: C_3  and  C_4
REMARK    4  A    between atoms: C_4  and  C_5
REMARK    5  A    between atoms: C_5  and  N_6
REMARK    6  A    between atoms: C_5  and  C_14
REMARK    7  A    between atoms: C_7  and  O_9
REMARK    8  A    between atoms: O_9  and  C_10
REMARK    9  A    between atoms: C_10  and  C_11
REMARK   10  A    between atoms: C_10  and  C_12
REMARK   11  A    between atoms: C_10  and  C_13
REMARK   12  A    between atoms: C_14  and  C_16
REMARK   13  A    between atoms: N_18  and  C_19
REMARK   14  A    between atoms: C_19  and  C_20
REMARK   15  A    between atoms: C_19  and  C_21
REMARK                            x       y       z     vdW  Elec       q    Type
REMARK                         _______ _______ _______ _____ _____    ______ ____
ROOT
ATOM      1  C   UNL     1       5.142   4.926  16.510  0.00  0.00    +0.000 C 
ENDROOT
BRANCH   1   2
ATOM      2  N   UNL     1       4.838   4.085  17.672  0.00  0.00    +0.000 N 
ATOM      3  C   UNL     1       3.582   3.564  17.815  0.00  0.00    +0.000 C 
ATOM      4  O   UNL     1       2.681   3.788  17.018  0.00  0.00    +0.000 OA
ATOM      5  H   UNL     1       5.491   3.979  18.438  0.00  0.00    +0.000 HD
BRANCH   3   6
ATOM      6  O   UNL     1       3.476   2.803  18.932  0.00  0.00    +0.000 OA
BRANCH   6   7
ATOM      7  C   UNL     1       2.501   3.171  19.947  0.00  0.00    +0.000 C 
ATOM      8  C   UNL     1       1.080   2.711  19.579  0.00  0.00    +0.000 C 
ATOM      9  C   UNL     1       2.915   2.462  21.250  0.00  0.00    +0.000 C 
ATOM     10  C   UNL     1       2.540   4.684  20.206  0.00  0.00    +0.000 C 
ENDBRANCH   6   7
ENDBRANCH   3   6
ENDBRANCH   1   2
BRANCH   1  11
ATOM     11  C   UNL     1       6.456   4.495  15.874  0.00  0.00    +0.000 C 
ATOM     12  O   UNL     1       7.412   4.027  16.491  0.00  0.00    +0.000 OA
BRANCH  11  13
ATOM     13  C   UNL     1       6.562   4.637  14.350  0.00  0.00    +0.000 C 
ATOM     14  O   UNL     1       7.191   5.549  13.842  0.00  0.00    +0.000 OA
ATOM     15  N   UNL     1       5.896   3.641  13.666  0.00  0.00    +0.000 N 
ATOM     16  H   UNL     1       5.513   2.888  14.232  0.00  0.00    +0.000 HD
BRANCH  15  17
ATOM     17  C   UNL     1       5.924   3.513  12.219  0.00  0.00    +0.000 C 
ATOM     18  C   UNL     1       6.885   2.402  11.809  0.00  0.00    +0.000 C 
ATOM     19  C   UNL     1       4.520   3.238  11.689  0.00  0.00    +0.000 C 
ENDBRANCH  15  17
ENDBRANCH  11  13
ENDBRANCH   1  11
BRANCH   1  20
ATOM     20  C   UNL     1       5.206   6.407  16.933  0.00  0.00    +0.000 C 
BRANCH  20  21
ATOM     21  C   UNL     1       3.911   7.203  16.730  0.00  0.00    +0.000 C 
BRANCH  21  23
ATOM     22  C   UNL     1       2.192   8.677  17.790  0.00  0.00    +0.000 C 
ATOM     23  C   UNL     1       3.126   7.493  18.008  0.00  0.00    +0.000 C 
ENDBRANCH  21  23
ENDBRANCH  20  21
ENDBRANCH   1  20
TORSDOF 9
ENDMDL
MODEL 7
REMARK VINA RESULT:      -6.3      1.566      5.611
REMARK  Name = 
REMARK  15 active torsions:
REMARK  status: ('A' for Active; 'I' for Inactive)
REMARK    1  A    between atoms: C_1  and  C_2
REMARK    2  A    between atoms: C_2  and  C_3
REMARK    3  A    between atoms: C_3  and  C_4
REMARK    4  A    between atoms: C_4  and  C_5
REMARK    5  A    between atoms: C_5  and  N_6
REMARK    6  A    between atoms: C_5  and  C_14
REMARK    7  A    between atoms: C_7  and  O_9
REMARK    8  A    between atoms: O_9  and  C_10
REMARK    9  A    between atoms: C_10  and  C_11
REMARK   10  A    between atoms: C_10  and  C_12
REMARK   11  A    between atoms: C_10  and  C_13
REMARK   12  A    between atoms: C_14  and  C_16
REMARK   13  A    between atoms: N_18  and  C_19
REMARK   14  A    between atoms: C_19  and  C_20
REMARK   15  A    between atoms: C_19  and  C_21
REMARK                            x       y       z     vdW  Elec       q    Type
REMARK                         _______ _______ _______ _____ _____    ______ ____
ROOT
ATOM      1  C   UNL     1       4.448   6.237  18.198  0.00  0.00    +0.000 C 
ENDROOT
BRANCH   1   2
ATOM      2  N   UNL     1       4.489   5.868  16.779  0.00  0.00    +0.000 N 
ATOM      3  C   UNL     1       5.551   6.261  16.012  0.00  0.00    +0.000 C 
ATOM      4  O   UNL     1       6.471   6.935  16.456  0.00  0.00    +0.000 OA
ATOM      5  H   UNL     1       3.697   5.439  16.318  0.00  0.00    +0.000 HD
BRANCH   3   6
ATOM      6  O   UNL     1       5.437   5.827  14.733  0.00  0.00    +0.000 OA
BRANCH   6   7
ATOM      7  C   UNL     1       6.169   4.638  14.323  0.00  0.00    +0.000 C 
ATOM      8  C   UNL     1       6.370   3.652  15.486  0.00  0.00    +0.000 C 
ATOM      9  C   UNL     1       5.327   3.941  13.238  0.00  0.00    +0.000 C 
ATOM     10  C   UNL     1       7.514   5.027  13.692  0.00  0.00    +0.000 C 
ENDBRANCH   6   7
ENDBRANCH   3   6
ENDBRANCH   1   2
BRANCH   1  11
ATOM     11  C   UNL     1       4.830   5.047  19.066  0.00  0.00    +0.000 C 
ATOM     12  O   UNL     1       5.801   5.014  19.820  0.00  0.00    +0.000 OA
BRANCH  11  13
ATOM     13  C   UNL     1       3.908   3.822  18.998  0.00  0.00    +0.000 C 
ATOM     14  O   UNL     1       4.000   3.011  18.095  0.00  0.00    +0.000 OA
ATOM     15  N   UNL     1       3.017   3.759  20.050  0.00  0.00    +0.000 N 
ATOM     16  H   UNL     1       3.139   4.451  20.784  0.00  0.00    +0.000 HD
BRANCH  15  17
ATOM     17  C   UNL     1       2.102   2.648  20.251  0.00  0.00    +0.000 C 
ATOM     18  C   UNL     1       1.659   2.591  21.709  0.00  0.00    +0.000 C 
ATOM     19  C   UNL     1       0.896   2.786  19.325  0.00  0.00    +0.000 C 
ENDBRANCH  15  17
ENDBRANCH  11  13
ENDBRANCH   1  11
BRANCH   1  20
ATOM     20  C   UNL     1       3.041   6.748  18.569  0.00  0.00    +0.000 C 
BRANCH  20  21
ATOM     21  C   UNL     1       2.419   7.735  17.573  0.00  0.00    +0.000 C 
BRANCH  21  23
ATOM     22  C   UNL     1       0.776   9.575  17.983  0.00  0.00    +0.000 C 
ATOM     23  C   UNL     1       2.237   9.156  18.104  0.00  0.00    +0.000 C 
ENDBRANCH  21  23
ENDBRANCH  20  21
ENDBRANCH   1  20
TORSDOF 9
ENDMDL
MODEL 8
REMARK VINA RESULT:      -6.3      1.663      5.752
REMARK  Name = 
REMARK  15 active torsions:
REMARK  status: ('A' for Active; 'I' for Inactive)
REMARK    1  A    between atoms: C_1  and  C_2
REMARK    2  A    between atoms: C_2  and  C_3
REMARK    3  A    between atoms: C_3  and  C_4
REMARK    4  A    between atoms: C_4  and  C_5
REMARK    5  A    between atoms: C_5  and  N_6
REMARK    6  A    between atoms: C_5  and  C_14
REMARK    7  A    between atoms: C_7  and  O_9
REMARK    8  A    between atoms: O_9  and  C_10
REMARK    9  A    between atoms: C_10  and  C_11
REMARK   10  A    between atoms: C_10  and  C_12
REMARK   11  A    between atoms: C_10  and  C_13
REMARK   12  A    between atoms: C_14  and  C_16
REMARK   13  A    between atoms: N_18  and  C_19
REMARK   14  A    between atoms: C_19  and  C_20
REMARK   15  A    between atoms: C_19  and  C_21
REMARK                            x       y       z     vdW  Elec       q    Type
REMARK                         _______ _______ _______ _____ _____    ______ ____
ROOT
ATOM      1  C   UNL     1       4.090   6.451  18.073  0.00  0.00    +0.000 C 
ENDROOT
BRANCH   1   2
ATOM      2  N   UNL     1       4.452   6.145  16.686  0.00  0.00    +0.000 N 
ATOM      3  C   UNL     1       5.658   6.564  16.197  0.00  0.00    +0.000 C 
ATOM      4  O   UNL     1       6.452   7.210  16.867  0.00  0.00    +0.000 OA
ATOM      5  H   UNL     1       3.787   5.742  16.038  0.00  0.00    +0.000 HD
BRANCH   3   6
ATOM      6  O   UNL     1       5.839   6.188  14.908  0.00  0.00    +0.000 OA
BRANCH   6   7
ATOM      7  C   UNL     1       6.450   4.898  14.627  0.00  0.00    +0.000 C 
ATOM      8  C   UNL     1       5.479   3.937  13.923  0.00  0.00    +0.000 C 
ATOM      9  C   UNL     1       7.640   5.158  13.684  0.00  0.00    +0.000 C 
ATOM     10  C   UNL     1       7.004   4.274  15.916  0.00  0.00    +0.000 C 
ENDBRANCH   6   7
ENDBRANCH   3   6
ENDBRANCH   1   2
BRANCH   1  11
ATOM     11  C   UNL     1       4.487   5.303  18.990  0.00  0.00    +0.000 C 
ATOM     12  O   UNL     1       5.423   5.336  19.788  0.00  0.00    +0.000 OA
BRANCH  11  13
ATOM     13  C   UNL     1       3.629   4.033  18.915  0.00  0.00    +0.000 C 
ATOM     14  O   UNL     1       3.686   3.287  17.953  0.00  0.00    +0.000 OA
ATOM     15  N   UNL     1       2.834   3.852  20.028  0.00  0.00    +0.000 N 
ATOM     16  H   UNL     1       2.982   4.503  20.795  0.00  0.00    +0.000 HD
BRANCH  15  17
ATOM     17  C   UNL     1       1.999   2.680  20.227  0.00  0.00    +0.000 C 
ATOM     18  C   UNL     1       1.627   2.545  21.700  0.00  0.00    +0.000 C 
ATOM     19  C   UNL     1       0.747   2.774  19.360  0.00  0.00    +0.000 C 
ENDBRANCH  15  17
ENDBRANCH  11  13
ENDBRANCH   1  11
BRANCH   1  20
ATOM     20  C   UNL     1       2.576   6.725  18.175  0.00  0.00    +0.000 C 
BRANCH  20  21
ATOM     21  C   UNL     1       2.174   7.825  19.165  0.00  0.00    +0.000 C 
BRANCH  21  23
ATOM     22  C   UNL     1       1.070   8.442  21.321  0.00  0.00    +0.000 C 
ATOM     23  C   UNL     1       1.768   7.328  20.551  0.00  0.00    +0.000 C 
ENDBRANCH  21  23
ENDBRANCH  20  21
ENDBRANCH   1  20
TORSDOF 9
ENDMDL
MODEL 9
REMARK VINA RESULT:      -6.2      2.046      3.147
REMARK  Name = 
REMARK  15 active torsions:
REMARK  status: ('A' for Active; 'I' for Inactive)
REMARK    1  A    between atoms: C_1  and  C_2
REMARK    2  A    between atoms: C_2  and  C_3
REMARK    3  A    between atoms: C_3  and  C_4
REMARK    4  A    between atoms: C_4  and  C_5
REMARK    5  A    between atoms: C_5  and  N_6
REMARK    6  A    between atoms: C_5  and  C_14
REMARK    7  A    between atoms: C_7  and  O_9
REMARK    8  A    between atoms: O_9  and  C_10
REMARK    9  A    between atoms: C_10  and  C_11
REMARK   10  A    between atoms: C_10  and  C_12
REMARK   11  A    between atoms: C_10  and  C_13
REMARK   12  A    between atoms: C_14  and  C_16
REMARK   13  A    between atoms: N_18  and  C_19
REMARK   14  A    between atoms: C_19  and  C_20
REMARK   15  A    between atoms: C_19  and  C_21
REMARK                            x       y       z     vdW  Elec       q    Type
REMARK                         _______ _______ _______ _____ _____    ______ ____
ROOT
ATOM      1  C   UNL     1       5.628   5.337  16.405  0.00  0.00    +0.000 C 
ENDROOT
BRANCH   1   2
ATOM      2  N   UNL     1       5.076   4.478  17.457  0.00  0.00    +0.000 N 
ATOM      3  C   UNL     1       4.078   4.954  18.261  0.00  0.00    +0.000 C 
ATOM      4  O   UNL     1       3.633   6.089  18.156  0.00  0.00    +0.000 OA
ATOM      5  H   UNL     1       5.494   3.586  17.690  0.00  0.00    +0.000 HD
BRANCH   3   6
ATOM      6  O   UNL     1       3.676   4.031  19.168  0.00  0.00    +0.000 OA
BRANCH   6   7
ATOM      7  C   UNL     1       2.252   3.842  19.400  0.00  0.00    +0.000 C 
ATOM      8  C   UNL     1       1.662   4.936  20.304  0.00  0.00    +0.000 C 
ATOM      9  C   UNL     1       1.556   3.922  18.028  0.00  0.00    +0.000 C 
ATOM     10  C   UNL     1       1.984   2.445  19.979  0.00  0.00    +0.000 C 
ENDBRANCH   6   7
ENDBRANCH   3   6
ENDBRANCH   1   2
BRANCH   1  11
ATOM     11  C   UNL     1       6.824   4.665  15.747  0.00  0.00    +0.000 C 
ATOM     12  O   UNL     1       7.723   4.086  16.354  0.00  0.00    +0.000 OA
BRANCH  11  13
ATOM     13  C   UNL     1       6.878   4.704  14.214  0.00  0.00    +0.000 C 
ATOM     14  O   UNL     1       7.578   5.508  13.625  0.00  0.00    +0.000 OA
ATOM     15  N   UNL     1       6.078   3.748  13.621  0.00  0.00    +0.000 N 
ATOM     16  H   UNL     1       5.640   3.078  14.249  0.00  0.00    +0.000 HD
BRANCH  15  17
ATOM     17  C   UNL     1       6.027   3.532  12.186  0.00  0.00    +0.000 C 
ATOM     18  C   UNL     1       6.875   2.321  11.808  0.00  0.00    +0.000 C 
ATOM     19  C   UNL     1       4.582   3.343  11.733  0.00  0.00    +0.000 C 
ENDBRANCH  15  17
ENDBRANCH  11  13
ENDBRANCH   1  11
BRANCH   1  20
ATOM     20  C   UNL     1       6.031   6.702  16.996  0.00  0.00    +0.000 C 
BRANCH  20  21
ATOM     21  C   UNL     1       7.542   6.941  17.122  0.00  0.00    +0.000 C 
BRANCH  21  23
ATOM     22  C   UNL     1       7.871   5.854  19.349  0.00  0.00    +0.000 C 
ATOM     23  C   UNL     1       8.046   7.140  18.550  0.00  0.00    +0.000 C 
ENDBRANCH  21  23
ENDBRANCH  20  21
ENDBRANCH   1  20
TORSDOF 9
ENDMDL
