MODEL 1
REMARK VINA RESULT:      -8.2      0.000      0.000
REMARK  Name = 
REMARK  7 active torsions:
REMARK  status: ('A' for Active; 'I' for Inactive)
REMARK    1  A    between atoms: C_1  and  C_2
REMARK    2  A    between atoms: C_5  and  O_6
REMARK    3  A    between atoms: O_6  and  C_7
REMARK    4  A    between atoms: N_12  and  C_13
REMARK    5  A    between atoms: C_16  and  S_17
REMARK    6  A    between atoms: S_17  and  N_18
REMARK    7  A    between atoms: C_24  and  C_25
REMARK                            x       y       z     vdW  Elec       q    Type
REMARK                         _______ _______ _______ _____ _____    ______ ____
ROOT
ATOM      1  C   UNL     1       3.882   4.291  17.674  0.00  0.00    +0.000 A 
ATOM      2  C   UNL     1       2.660   3.663  17.458  0.00  0.00    +0.000 A 
ATOM      3  C   UNL     1       1.514   4.369  17.760  0.00  0.00    +0.000 A 
ATOM      4  N   UNL     1       1.513   5.606  18.296  0.00  0.00    +0.000 NA
ATOM      5  C   UNL     1       2.701   6.173  18.592  0.00  0.00    +0.000 A 
ATOM      6  N   UNL     1       2.751   7.451  19.183  0.00  0.00    +0.000 N 
ATOM      7  C   UNL     1       3.903   5.535  18.300  0.00  0.00    +0.000 A 
ATOM      8  H   UNL     1       3.294   7.441  20.037  0.00  0.00    +0.000 HD
ENDROOT
BRANCH   6   9
ATOM      9  C   UNL     1       1.764   8.452  19.133  0.00  0.00    +0.000 A 
ATOM     10  C   UNL     1       1.448   9.065  17.913  0.00  0.00    +0.000 A 
ATOM     11  C   UNL     1       0.390   9.974  17.822  0.00  0.00    +0.000 A 
ATOM     12  C   UNL     1      -0.371  10.260  18.958  0.00  0.00    +0.000 A 
ATOM     13  C   UNL     1      -0.041   9.702  20.193  0.00  0.00    +0.000 A 
ATOM     14  C   UNL     1       1.029   8.808  20.275  0.00  0.00    +0.000 A 
BRANCH  12  15
ATOM     15  S   UNL     1      -1.771  11.328  18.823  0.00  0.00    +0.000 S 
ATOM     16  O   UNL     1      -2.865  10.622  18.206  0.00  0.00    +0.000 OA
ATOM     17  O   UNL     1      -1.919  12.079  20.050  0.00  0.00    +0.000 OA
BRANCH  15  18
ATOM     18  N   UNL     1      -1.222  12.426  17.673  0.00  0.00    +0.000 NA
ATOM     19  H   UNL     1      -1.689  12.261  16.784  0.00  0.00    +0.000 HD
ATOM     20  H   UNL     1      -1.306  13.379  18.027  0.00  0.00    +0.000 HD
ENDBRANCH  15  18
ENDBRANCH  12  15
ENDBRANCH   6   9
BRANCH   1  21
ATOM     21  O   UNL     1       5.112   3.762  17.345  0.00  0.00    +0.000 OA
BRANCH  21  26
ATOM     22  C   UNL     1       8.014   5.287  12.773  0.00  0.00    +0.000 C 
ATOM     23  C   UNL     1       7.174   4.900  13.952  0.00  0.00    +0.000 A 
ATOM     24  C   UNL     1       5.978   4.221  13.780  0.00  0.00    +0.000 A 
ATOM     25  C   UNL     1       5.243   3.863  14.908  0.00  0.00    +0.000 A 
ATOM     26  C   UNL     1       5.744   4.138  16.182  0.00  0.00    +0.000 A 
ATOM     27  C   UNL     1       6.919   4.887  16.270  0.00  0.00    +0.000 A 
ATOM     28  C   UNL     1       7.473   5.364  17.582  0.00  0.00    +0.000 C 
ATOM     29  N   UNL     1       7.637   5.254  15.174  0.00  0.00    +0.000 NA
ENDBRANCH  21  26
ENDBRANCH   1  21
TORSDOF 5
ENDMDL
MODEL 2
REMARK VINA RESULT:      -8.2      0.379      1.021
REMARK  Name = 
REMARK  7 active torsions:
REMARK  status: ('A' for Active; 'I' for Inactive)
REMARK    1  A    between atoms: C_1  and  C_2
REMARK    2  A    between atoms: C_5  and  O_6
REMARK    3  A    between atoms: O_6  and  C_7
REMARK    4  A    between atoms: N_12  and  C_13
REMARK    5  A    between atoms: C_16  and  S_17
REMARK    6  A    between atoms: S_17  and  N_18
REMARK    7  A    between atoms: C_24  and  C_25
REMARK                            x       y       z     vdW  Elec       q    Type
REMARK                         _______ _______ _______ _____ _____    ______ ____
ROOT
ATOM      1  C   UNL     1       4.054   4.471  17.923  0.00  0.00    +0.000 A 
ATOM      2  C   UNL     1       2.892   3.727  17.750  0.00  0.00    +0.000 A 
ATOM      3  C   UNL     1       1.689   4.346  18.021  0.00  0.00    +0.000 A 
ATOM      4  N   UNL     1       1.580   5.607  18.488  0.00  0.00    +0.000 NA
ATOM      5  C   UNL     1       2.715   6.290  18.743  0.00  0.00    +0.000 A 
ATOM      6  N   UNL     1       2.655   7.599  19.262  0.00  0.00    +0.000 N 
ATOM      7  C   UNL     1       3.968   5.744  18.479  0.00  0.00    +0.000 A 
ATOM      8  H   UNL     1       3.198   7.685  20.111  0.00  0.00    +0.000 HD
ENDROOT
BRANCH   6   9
ATOM      9  C   UNL     1       1.584   8.506  19.163  0.00  0.00    +0.000 A 
ATOM     10  C   UNL     1       0.897   8.911  20.315  0.00  0.00    +0.000 A 
ATOM     11  C   UNL     1      -0.089   9.898  20.251  0.00  0.00    +0.000 A 
ATOM     12  C   UNL     1      -0.381  10.501  19.025  0.00  0.00    +0.000 A 
ATOM     13  C   UNL     1       0.253  10.076  17.856  0.00  0.00    +0.000 A 
ATOM     14  C   UNL     1       1.225   9.076  17.931  0.00  0.00    +0.000 A 
BRANCH  12  15
ATOM     15  S   UNL     1      -1.552  11.820  18.958  0.00  0.00    +0.000 S 
ATOM     16  O   UNL     1      -2.863  11.295  18.672  0.00  0.00    +0.000 OA
ATOM     17  O   UNL     1      -1.300  12.738  20.047  0.00  0.00    +0.000 OA
BRANCH  15  18
ATOM     18  N   UNL     1      -1.056  12.614  17.561  0.00  0.00    +0.000 NA
ATOM     19  H   UNL     1      -0.835  11.935  16.835  0.00  0.00    +0.000 HD
ATOM     20  H   UNL     1      -1.745  13.316  17.290  0.00  0.00    +0.000 HD
ENDBRANCH  15  18
ENDBRANCH  12  15
ENDBRANCH   6   9
BRANCH   1  21
ATOM     21  O   UNL     1       5.325   4.033  17.615  0.00  0.00    +0.000 OA
BRANCH  21  26
ATOM     22  C   UNL     1       7.950   5.309  12.805  0.00  0.00    +0.000 C 
ATOM     23  C   UNL     1       7.181   4.974  14.048  0.00  0.00    +0.000 A 
ATOM     24  C   UNL     1       6.086   4.126  13.998  0.00  0.00    +0.000 A 
ATOM     25  C   UNL     1       5.418   3.827  15.184  0.00  0.00    +0.000 A 
ATOM     26  C   UNL     1       5.890   4.332  16.396  0.00  0.00    +0.000 A 
ATOM     27  C   UNL     1       6.954   5.236  16.354  0.00  0.00    +0.000 A 
ATOM     28  C   UNL     1       7.450   5.951  17.577  0.00  0.00    +0.000 C 
ATOM     29  N   UNL     1       7.604   5.545  15.200  0.00  0.00    +0.000 NA
ENDBRANCH  21  26
ENDBRANCH   1  21
TORSDOF 5
ENDMDL
MODEL 3
REMARK VINA RESULT:      -8.0      0.955      1.413
REMARK  Name = 
REMARK  7 active torsions:
REMARK  status: ('A' for Active; 'I' for Inactive)
REMARK    1  A    between atoms: C_1  and  C_2
REMARK    2  A    between atoms: C_5  and  O_6
REMARK    3  A    between atoms: O_6  and  C_7
REMARK    4  A    between atoms: N_12  and  C_13
REMARK    5  A    between atoms: C_16  and  S_17
REMARK    6  A    between atoms: S_17  and  N_18
REMARK    7  A    between atoms: C_24  and  C_25
REMARK                            x       y       z     vdW  Elec       q    Type
REMARK                         _______ _______ _______ _____ _____    ______ ____
ROOT
ATOM      1  C   UNL     1       4.002   4.114  17.897  0.00  0.00    +0.000 A 
ATOM      2  C   UNL     1       2.791   3.533  17.539  0.00  0.00    +0.000 A 
ATOM      3  C   UNL     1       1.632   4.178  17.921  0.00  0.00    +0.000 A 
ATOM      4  N   UNL     1       1.609   5.307  18.659  0.00  0.00    +0.000 NA
ATOM      5  C   UNL     1       2.785   5.813  19.083  0.00  0.00    +0.000 A 
ATOM      6  N   UNL     1       2.812   6.973  19.884  0.00  0.00    +0.000 N 
ATOM      7  C   UNL     1       3.998   5.233  18.725  0.00  0.00    +0.000 A 
ATOM      8  H   UNL     1       3.328   6.818  20.740  0.00  0.00    +0.000 HD
ENDROOT
BRANCH   6   9
ATOM      9  C   UNL     1       1.822   7.969  19.973  0.00  0.00    +0.000 A 
ATOM     10  C   UNL     1       1.093   8.130  21.158  0.00  0.00    +0.000 A 
ATOM     11  C   UNL     1       0.191   9.188  21.305  0.00  0.00    +0.000 A 
ATOM     12  C   UNL     1       0.029  10.105  20.264  0.00  0.00    +0.000 A 
ATOM     13  C   UNL     1       0.705   9.933  19.055  0.00  0.00    +0.000 A 
ATOM     14  C   UNL     1       1.591   8.862  18.914  0.00  0.00    +0.000 A 
BRANCH  12  15
ATOM     15  S   UNL     1      -1.031  11.499  20.486  0.00  0.00    +0.000 S 
ATOM     16  O   UNL     1      -1.976  11.570  19.402  0.00  0.00    +0.000 OA
ATOM     17  O   UNL     1      -1.427  11.581  21.875  0.00  0.00    +0.000 OA
BRANCH  15  18
ATOM     18  N   UNL     1       0.052  12.762  20.240  0.00  0.00    +0.000 NA
ATOM     19  H   UNL     1       0.471  13.039  21.126  0.00  0.00    +0.000 HD
ATOM     20  H   UNL     1       0.722  12.516  19.512  0.00  0.00    +0.000 HD
ENDBRANCH  15  18
ENDBRANCH  12  15
ENDBRANCH   6   9
BRANCH   1  21
ATOM     21  O   UNL     1       5.244   3.647  17.521  0.00  0.00    +0.000 OA
BRANCH  21  26
ATOM     22  C   UNL     1       7.919   5.368  12.881  0.00  0.00    +0.000 C 
ATOM     23  C   UNL     1       7.137   4.924  14.080  0.00  0.00    +0.000 A 
ATOM     24  C   UNL     1       5.985   4.167  13.936  0.00  0.00    +0.000 A 
ATOM     25  C   UNL     1       5.305   3.760  15.082  0.00  0.00    +0.000 A 
ATOM     26  C   UNL     1       5.820   4.066  16.344  0.00  0.00    +0.000 A 
ATOM     27  C   UNL     1       6.944   4.892  16.404  0.00  0.00    +0.000 A 
ATOM     28  C   UNL     1       7.498   5.402  17.702  0.00  0.00    +0.000 C 
ATOM     29  N   UNL     1       7.607   5.307  15.291  0.00  0.00    +0.000 NA
ENDBRANCH  21  26
ENDBRANCH   1  21
TORSDOF 5
ENDMDL
MODEL 4
REMARK VINA RESULT:      -7.8      3.074      4.496
REMARK  Name = 
REMARK  7 active torsions:
REMARK  status: ('A' for Active; 'I' for Inactive)
REMARK    1  A    between atoms: C_1  and  C_2
REMARK    2  A    between atoms: C_5  and  O_6
REMARK    3  A    between atoms: O_6  and  C_7
REMARK    4  A    between atoms: N_12  and  C_13
REMARK    5  A    between atoms: C_16  and  S_17
REMARK    6  A    between atoms: S_17  and  N_18
REMARK    7  A    between atoms: C_24  and  C_25
REMARK                            x       y       z     vdW  Elec       q    Type
REMARK                         _______ _______ _______ _____ _____    ______ ____
ROOT
ATOM      1  C   UNL     1       2.369   7.809  18.759  0.00  0.00    +0.000 A 
ATOM      2  C   UNL     1       2.104   7.730  20.122  0.00  0.00    +0.000 A 
ATOM      3  C   UNL     1       1.049   8.471  20.614  0.00  0.00    +0.000 A 
ATOM      4  N   UNL     1       0.297   9.300  19.861  0.00  0.00    +0.000 NA
ATOM      5  C   UNL     1       0.619   9.444  18.559  0.00  0.00    +0.000 A 
ATOM      6  N   UNL     1      -0.116  10.324  17.738  0.00  0.00    +0.000 N 
ATOM      7  C   UNL     1       1.657   8.718  17.982  0.00  0.00    +0.000 A 
ATOM      8  H   UNL     1       0.489  10.990  17.277  0.00  0.00    +0.000 HD
ENDROOT
BRANCH   6   9
ATOM      9  C   UNL     1      -1.433  10.775  17.940  0.00  0.00    +0.000 A 
ATOM     10  C   UNL     1      -2.508  10.085  17.365  0.00  0.00    +0.000 A 
ATOM     11  C   UNL     1      -3.827  10.447  17.652  0.00  0.00    +0.000 A 
ATOM     12  C   UNL     1      -4.075  11.500  18.535  0.00  0.00    +0.000 A 
ATOM     13  C   UNL     1      -3.020  12.236  19.078  0.00  0.00    +0.000 A 
ATOM     14  C   UNL     1      -1.707  11.874  18.771  0.00  0.00    +0.000 A 
BRANCH  12  15
ATOM     15  S   UNL     1      -5.738  11.893  18.978  0.00  0.00    +0.000 S 
ATOM     16  O   UNL     1      -6.652  11.119  18.178  0.00  0.00    +0.000 OA
ATOM     17  O   UNL     1      -5.841  11.980  20.418  0.00  0.00    +0.000 OA
BRANCH  15  18
ATOM     18  N   UNL     1      -5.851  13.473  18.411  0.00  0.00    +0.000 NA
ATOM     19  H   UNL     1      -6.053  14.106  19.183  0.00  0.00    +0.000 HD
ATOM     20  H   UNL     1      -5.021  13.714  17.870  0.00  0.00    +0.000 HD
ENDBRANCH  15  18
ENDBRANCH  12  15
ENDBRANCH   6   9
BRANCH   1  21
ATOM     21  O   UNL     1       3.325   7.069  18.096  0.00  0.00    +0.000 OA
BRANCH  21  26
ATOM     22  C   UNL     1       3.418   1.455  18.441  0.00  0.00    +0.000 C 
ATOM     23  C   UNL     1       3.348   2.943  18.284  0.00  0.00    +0.000 A 
ATOM     24  C   UNL     1       2.167   3.563  17.907  0.00  0.00    +0.000 A 
ATOM     25  C   UNL     1       2.146   4.952  17.796  0.00  0.00    +0.000 A 
ATOM     26  C   UNL     1       3.283   5.694  18.119  0.00  0.00    +0.000 A 
ATOM     27  C   UNL     1       4.453   4.993  18.420  0.00  0.00    +0.000 A 
ATOM     28  C   UNL     1       5.768   5.681  18.642  0.00  0.00    +0.000 C 
ATOM     29  N   UNL     1       4.488   3.636  18.517  0.00  0.00    +0.000 NA
ENDBRANCH  21  26
ENDBRANCH   1  21
TORSDOF 5
ENDMDL
MODEL 5
REMARK VINA RESULT:      -7.7      1.074      1.155
REMARK  Name = 
REMARK  7 active torsions:
REMARK  status: ('A' for Active; 'I' for Inactive)
REMARK    1  A    between atoms: C_1  and  C_2
REMARK    2  A    between atoms: C_5  and  O_6
REMARK    3  A    between atoms: O_6  and  C_7
REMARK    4  A    between atoms: N_12  and  C_13
REMARK    5  A    between atoms: C_16  and  S_17
REMARK    6  A    between atoms: S_17  and  N_18
REMARK    7  A    between atoms: C_24  and  C_25
REMARK                            x       y       z     vdW  Elec       q    Type
REMARK                         _______ _______ _______ _____ _____    ______ ____
ROOT
ATOM      1  C   UNL     1       3.902   4.573  19.177  0.00  0.00    +0.000 A 
ATOM      2  C   UNL     1       2.781   3.871  19.604  0.00  0.00    +0.000 A 
ATOM      3  C   UNL     1       1.638   4.593  19.878  0.00  0.00    +0.000 A 
ATOM      4  N   UNL     1       1.561   5.937  19.801  0.00  0.00    +0.000 NA
ATOM      5  C   UNL     1       2.679   6.620  19.478  0.00  0.00    +0.000 A 
ATOM      6  N   UNL     1       2.659   8.028  19.417  0.00  0.00    +0.000 N 
ATOM      7  C   UNL     1       3.868   5.965  19.169  0.00  0.00    +0.000 A 
ATOM      8  H   UNL     1       3.379   8.433  20.001  0.00  0.00    +0.000 HD
ENDROOT
BRANCH   6   9
ATOM      9  C   UNL     1       1.539   8.855  19.215  0.00  0.00    +0.000 A 
ATOM     10  C   UNL     1       1.152   9.209  17.916  0.00  0.00    +0.000 A 
ATOM     11  C   UNL     1      -0.024   9.929  17.690  0.00  0.00    +0.000 A 
ATOM     12  C   UNL     1      -0.831  10.286  18.773  0.00  0.00    +0.000 A 
ATOM     13  C   UNL     1      -0.438   9.991  20.079  0.00  0.00    +0.000 A 
ATOM     14  C   UNL     1       0.748   9.285  20.293  0.00  0.00    +0.000 A 
BRANCH  12  15
ATOM     15  S   UNL     1      -2.367  11.105  18.483  0.00  0.00    +0.000 S 
ATOM     16  O   UNL     1      -3.337  10.162  17.988  0.00  0.00    +0.000 OA
ATOM     17  O   UNL     1      -2.643  12.006  19.581  0.00  0.00    +0.000 OA
BRANCH  15  18
ATOM     18  N   UNL     1      -1.962  12.083  17.175  0.00  0.00    +0.000 NA
ATOM     19  H   UNL     1      -1.986  11.539  16.314  0.00  0.00    +0.000 HD
ATOM     20  H   UNL     1      -2.546  12.919  17.166  0.00  0.00    +0.000 HD
ENDBRANCH  15  18
ENDBRANCH  12  15
ENDBRANCH   6   9
BRANCH   1  21
ATOM     21  O   UNL     1       5.091   3.998  18.781  0.00  0.00    +0.000 OA
BRANCH  21  26
ATOM     22  C   UNL     1       7.476   4.910  13.768  0.00  0.00    +0.000 C 
ATOM     23  C   UNL     1       6.771   4.691  15.072  0.00  0.00    +0.000 A 
ATOM     24  C   UNL     1       5.502   4.135  15.109  0.00  0.00    +0.000 A 
ATOM     25  C   UNL     1       4.897   3.931  16.348  0.00  0.00    +0.000 A 
ATOM     26  C   UNL     1       5.593   4.230  17.521  0.00  0.00    +0.000 A 
ATOM     27  C   UNL     1       6.836   4.853  17.398  0.00  0.00    +0.000 A 
ATOM     28  C   UNL     1       7.608   5.348  18.586  0.00  0.00    +0.000 C 
ATOM     29  N   UNL     1       7.430   5.070  16.193  0.00  0.00    +0.000 NA
ENDBRANCH  21  26
ENDBRANCH   1  21
TORSDOF 5
ENDMDL
MODEL 6
REMARK VINA RESULT:      -7.6      2.949      4.412
REMARK  Name = 
REMARK  7 active torsions:
REMARK  status: ('A' for Active; 'I' for Inactive)
REMARK    1  A    between atoms: C_1  and  C_2
REMARK    2  A    between atoms: C_5  and  O_6
REMARK    3  A    between atoms: O_6  and  C_7
REMARK    4  A    between atoms: N_12  and  C_13
REMARK    5  A    between atoms: C_16  and  S_17
REMARK    6  A    between atoms: S_17  and  N_18
REMARK    7  A    between atoms: C_24  and  C_25
REMARK                            x       y       z     vdW  Elec       q    Type
REMARK                         _______ _______ _______ _____ _____    ______ ____
ROOT
ATOM      1  C   UNL     1       2.357   7.711  18.646  0.00  0.00    +0.000 A 
ATOM      2  C   UNL     1       2.169   7.416  19.991  0.00  0.00    +0.000 A 
ATOM      3  C   UNL     1       1.329   8.235  20.717  0.00  0.00    +0.000 A 
ATOM      4  N   UNL     1       0.723   9.328  20.210  0.00  0.00    +0.000 NA
ATOM      5  C   UNL     1       0.983   9.663  18.929  0.00  0.00    +0.000 A 
ATOM      6  N   UNL     1       0.400  10.814  18.363  0.00  0.00    +0.000 N 
ATOM      7  C   UNL     1       1.805   8.878  18.125  0.00  0.00    +0.000 A 
ATOM      8  H   UNL     1       1.101  11.428  17.970  0.00  0.00    +0.000 HD
ENDROOT
BRANCH   6   9
ATOM      9  C   UNL     1      -0.777  11.465  18.779  0.00  0.00    +0.000 A 
ATOM     10  C   UNL     1      -2.018  11.070  18.262  0.00  0.00    +0.000 A 
ATOM     11  C   UNL     1      -3.205  11.621  18.751  0.00  0.00    +0.000 A 
ATOM     12  C   UNL     1      -3.153  12.566  19.779  0.00  0.00    +0.000 A 
ATOM     13  C   UNL     1      -1.926  13.012  20.272  0.00  0.00    +0.000 A 
ATOM     14  C   UNL     1      -0.746  12.465  19.763  0.00  0.00    +0.000 A 
BRANCH  12  15
ATOM     15  S   UNL     1      -4.654  13.187  20.469  0.00  0.00    +0.000 S 
ATOM     16  O   UNL     1      -5.316  12.148  21.214  0.00  0.00    +0.000 OA
ATOM     17  O   UNL     1      -4.420  14.509  21.009  0.00  0.00    +0.000 OA
BRANCH  15  18
ATOM     18  N   UNL     1      -5.571  13.414  19.077  0.00  0.00    +0.000 NA
ATOM     19  H   UNL     1      -5.836  12.513  18.683  0.00  0.00    +0.000 HD
ATOM     20  H   UNL     1      -6.354  14.040  19.268  0.00  0.00    +0.000 HD
ENDBRANCH  15  18
ENDBRANCH  12  15
ENDBRANCH   6   9
BRANCH   1  21
ATOM     21  O   UNL     1       3.091   6.947  17.764  0.00  0.00    +0.000 OA
BRANCH  21  26
ATOM     22  C   UNL     1       3.546   1.391  18.521  0.00  0.00    +0.000 C 
ATOM     23  C   UNL     1       3.374   2.856  18.260  0.00  0.00    +0.000 A 
ATOM     24  C   UNL     1       2.128   3.383  17.955  0.00  0.00    +0.000 A 
ATOM     25  C   UNL     1       2.015   4.755  17.742  0.00  0.00    +0.000 A 
ATOM     26  C   UNL     1       3.133   5.578  17.894  0.00  0.00    +0.000 A 
ATOM     27  C   UNL     1       4.364   4.964  18.131  0.00  0.00    +0.000 A 
ATOM     28  C   UNL     1       5.652   5.735  18.170  0.00  0.00    +0.000 C 
ATOM     29  N   UNL     1       4.488   3.623  18.327  0.00  0.00    +0.000 NA
ENDBRANCH  21  26
ENDBRANCH   1  21
TORSDOF 5
ENDMDL
MODEL 7
REMARK VINA RESULT:      -7.6      3.071      4.611
REMARK  Name = 
REMARK  7 active torsions:
REMARK  status: ('A' for Active; 'I' for Inactive)
REMARK    1  A    between atoms: C_1  and  C_2
REMARK    2  A    between atoms: C_5  and  O_6
REMARK    3  A    between atoms: O_6  and  C_7
REMARK    4  A    between atoms: N_12  and  C_13
REMARK    5  A    between atoms: C_16  and  S_17
REMARK    6  A    between atoms: S_17  and  N_18
REMARK    7  A    between atoms: C_24  and  C_25
REMARK                            x       y       z     vdW  Elec       q    Type
REMARK                         _______ _______ _______ _____ _____    ______ ____
ROOT
ATOM      1  C   UNL     1       2.427   7.780  18.725  0.00  0.00    +0.000 A 
ATOM      2  C   UNL     1       2.203   7.750  20.096  0.00  0.00    +0.000 A 
ATOM      3  C   UNL     1       1.135   8.472  20.587  0.00  0.00    +0.000 A 
ATOM      4  N   UNL     1       0.332   9.240  19.823  0.00  0.00    +0.000 NA
ATOM      5  C   UNL     1       0.612   9.339  18.507  0.00  0.00    +0.000 A 
ATOM      6  N   UNL     1      -0.178  10.155  17.671  0.00  0.00    +0.000 N 
ATOM      7  C   UNL     1       1.660   8.627  17.930  0.00  0.00    +0.000 A 
ATOM      8  H   UNL     1       0.388  10.822  17.165  0.00  0.00    +0.000 HD
ENDROOT
BRANCH   6   9
ATOM      9  C   UNL     1      -1.506  10.566  17.892  0.00  0.00    +0.000 A 
ATOM     10  C   UNL     1      -1.784  11.563  18.837  0.00  0.00    +0.000 A 
ATOM     11  C   UNL     1      -3.079  12.067  18.984  0.00  0.00    +0.000 A 
ATOM     12  C   UNL     1      -4.104  11.582  18.168  0.00  0.00    +0.000 A 
ATOM     13  C   UNL     1      -3.860  10.553  17.258  0.00  0.00    +0.000 A 
ATOM     14  C   UNL     1      -2.565  10.046  17.132  0.00  0.00    +0.000 A 
BRANCH  12  15
ATOM     15  S   UNL     1      -5.717  12.290  18.282  0.00  0.00    +0.000 S 
ATOM     16  O   UNL     1      -5.872  12.951  19.552  0.00  0.00    +0.000 OA
ATOM     17  O   UNL     1      -6.049  12.925  17.025  0.00  0.00    +0.000 OA
BRANCH  15  18
ATOM     18  N   UNL     1      -6.666  10.903  18.363  0.00  0.00    +0.000 NA
ATOM     19  H   UNL     1      -7.603  11.102  18.017  0.00  0.00    +0.000 HD
ATOM     20  H   UNL     1      -6.196  10.127  17.896  0.00  0.00    +0.000 HD
ENDBRANCH  15  18
ENDBRANCH  12  15
ENDBRANCH   6   9
BRANCH   1  21
ATOM     21  O   UNL     1       3.392   7.048  18.066  0.00  0.00    +0.000 OA
BRANCH  21  26
ATOM     22  C   UNL     1       3.550   1.436  18.430  0.00  0.00    +0.000 C 
ATOM     23  C   UNL     1       3.462   2.923  18.268  0.00  0.00    +0.000 A 
ATOM     24  C   UNL     1       2.269   3.529  17.904  0.00  0.00    +0.000 A 
ATOM     25  C   UNL     1       2.232   4.917  17.788  0.00  0.00    +0.000 A 
ATOM     26  C   UNL     1       3.366   5.672  18.094  0.00  0.00    +0.000 A 
ATOM     27  C   UNL     1       4.546   4.985  18.383  0.00  0.00    +0.000 A 
ATOM     28  C   UNL     1       5.857   5.688  18.585  0.00  0.00    +0.000 C 
ATOM     29  N   UNL     1       4.597   3.629  18.485  0.00  0.00    +0.000 NA
ENDBRANCH  21  26
ENDBRANCH   1  21
TORSDOF 5
ENDMDL
MODEL 8
REMARK VINA RESULT:      -7.6      2.904      4.640
REMARK  Name = 
REMARK  7 active torsions:
REMARK  status: ('A' for Active; 'I' for Inactive)
REMARK    1  A    between atoms: C_1  and  C_2
REMARK    2  A    between atoms: C_5  and  O_6
REMARK    3  A    between atoms: O_6  and  C_7
REMARK    4  A    between atoms: N_12  and  C_13
REMARK    5  A    between atoms: C_16  and  S_17
REMARK    6  A    between atoms: S_17  and  N_18
REMARK    7  A    between atoms: C_24  and  C_25
REMARK                            x       y       z     vdW  Elec       q    Type
REMARK                         _______ _______ _______ _____ _____    ______ ____
ROOT
ATOM      1  C   UNL     1       2.269   8.042  18.646  0.00  0.00    +0.000 A 
ATOM      2  C   UNL     1       2.100   7.877  20.016  0.00  0.00    +0.000 A 
ATOM      3  C   UNL     1       1.118   8.622  20.636  0.00  0.00    +0.000 A 
ATOM      4  N   UNL     1       0.351   9.531  20.000  0.00  0.00    +0.000 NA
ATOM      5  C   UNL     1       0.584   9.755  18.691  0.00  0.00    +0.000 A 
ATOM      6  N   UNL     1      -0.169  10.719  17.989  0.00  0.00    +0.000 N 
ATOM      7  C   UNL     1       1.543   9.032  17.988  0.00  0.00    +0.000 A 
ATOM      8  H   UNL     1       0.430  11.392  17.530  0.00  0.00    +0.000 HD
ENDROOT
BRANCH   6   9
ATOM      9  C   UNL     1      -1.447  11.206  18.320  0.00  0.00    +0.000 A 
ATOM     10  C   UNL     1      -2.576  10.738  17.636  0.00  0.00    +0.000 A 
ATOM     11  C   UNL     1      -3.861  11.120  18.030  0.00  0.00    +0.000 A 
ATOM     12  C   UNL     1      -4.021  11.966  19.130  0.00  0.00    +0.000 A 
ATOM     13  C   UNL     1      -2.909  12.487  19.793  0.00  0.00    +0.000 A 
ATOM     14  C   UNL     1      -1.629  12.110  19.379  0.00  0.00    +0.000 A 
BRANCH  12  15
ATOM     15  S   UNL     1      -5.645  12.367  19.692  0.00  0.00    +0.000 S 
ATOM     16  O   UNL     1      -5.933  13.749  19.406  0.00  0.00    +0.000 OA
ATOM     17  O   UNL     1      -6.550  11.293  19.345  0.00  0.00    +0.000 OA
BRANCH  15  18
ATOM     18  N   UNL     1      -5.436  12.274  21.358  0.00  0.00    +0.000 NA
ATOM     19  H   UNL     1      -5.554  13.195  21.776  0.00  0.00    +0.000 HD
ATOM     20  H   UNL     1      -6.038  11.549  21.750  0.00  0.00    +0.000 HD
ENDBRANCH  15  18
ENDBRANCH  12  15
ENDBRANCH   6   9
BRANCH   1  21
ATOM     21  O   UNL     1       3.141   7.315  17.864  0.00  0.00    +0.000 OA
BRANCH  21  26
ATOM     22  C   UNL     1       3.422   1.706  18.203  0.00  0.00    +0.000 C 
ATOM     23  C   UNL     1       3.287   3.192  18.061  0.00  0.00    +0.000 A 
ATOM     24  C   UNL     1       2.038   3.788  17.983  0.00  0.00    +0.000 A 
ATOM     25  C   UNL     1       1.964   5.175  17.873  0.00  0.00    +0.000 A 
ATOM     26  C   UNL     1       3.132   5.939  17.903  0.00  0.00    +0.000 A 
ATOM     27  C   UNL     1       4.353   5.261  17.911  0.00  0.00    +0.000 A 
ATOM     28  C   UNL     1       5.669   5.974  17.800  0.00  0.00    +0.000 C 
ATOM     29  N   UNL     1       4.436   3.906  18.004  0.00  0.00    +0.000 NA
ENDBRANCH  21  26
ENDBRANCH   1  21
TORSDOF 5
ENDMDL
MODEL 9
REMARK VINA RESULT:      -7.6      2.988      4.557
REMARK  Name = 
REMARK  7 active torsions:
REMARK  status: ('A' for Active; 'I' for Inactive)
REMARK    1  A    between atoms: C_1  and  C_2
REMARK    2  A    between atoms: C_5  and  O_6
REMARK    3  A    between atoms: O_6  and  C_7
REMARK    4  A    between atoms: N_12  and  C_13
REMARK    5  A    between atoms: C_16  and  S_17
REMARK    6  A    between atoms: S_17  and  N_18
REMARK    7  A    between atoms: C_24  and  C_25
REMARK                            x       y       z     vdW  Elec       q    Type
REMARK                         _______ _______ _______ _____ _____    ______ ____
ROOT
ATOM      1  C   UNL     1       2.356   7.844  18.665  0.00  0.00    +0.000 A 
ATOM      2  C   UNL     1       2.213   7.778  20.046  0.00  0.00    +0.000 A 
ATOM      3  C   UNL     1       1.188   8.502  20.620  0.00  0.00    +0.000 A 
ATOM      4  N   UNL     1       0.353   9.302  19.926  0.00  0.00    +0.000 NA
ATOM      5  C   UNL     1       0.556   9.435  18.599  0.00  0.00    +0.000 A 
ATOM      6  N   UNL     1      -0.269  10.285  17.835  0.00  0.00    +0.000 N 
ATOM      7  C   UNL     1       1.557   8.725  17.942  0.00  0.00    +0.000 A 
ATOM      8  H   UNL     1       0.277  10.959  17.314  0.00  0.00    +0.000 HD
ENDROOT
BRANCH   6   9
ATOM      9  C   UNL     1      -1.575  10.708  18.146  0.00  0.00    +0.000 A 
ATOM     10  C   UNL     1      -1.775  11.769  19.039  0.00  0.00    +0.000 A 
ATOM     11  C   UNL     1      -3.055  12.280  19.268  0.00  0.00    +0.000 A 
ATOM     12  C   UNL     1      -4.145  11.737  18.584  0.00  0.00    +0.000 A 
ATOM     13  C   UNL     1      -3.977  10.646  17.731  0.00  0.00    +0.000 A 
ATOM     14  C   UNL     1      -2.694  10.134  17.523  0.00  0.00    +0.000 A 
BRANCH  12  15
ATOM     15  S   UNL     1      -5.747  12.448  18.794  0.00  0.00    +0.000 S 
ATOM     16  O   UNL     1      -6.364  12.649  17.508  0.00  0.00    +0.000 OA
ATOM     17  O   UNL     1      -6.423  11.788  19.890  0.00  0.00    +0.000 OA
BRANCH  15  18
ATOM     18  N   UNL     1      -5.342  13.980  19.357  0.00  0.00    +0.000 NA
ATOM     19  H   UNL     1      -5.404  14.658  18.600  0.00  0.00    +0.000 HD
ATOM     20  H   UNL     1      -5.898  14.212  20.181  0.00  0.00    +0.000 HD
ENDBRANCH  15  18
ENDBRANCH  12  15
ENDBRANCH   6   9
BRANCH   1  21
ATOM     21  O   UNL     1       3.269   7.118  17.929  0.00  0.00    +0.000 OA
BRANCH  21  26
ATOM     22  C   UNL     1       3.544   1.512  18.319  0.00  0.00    +0.000 C 
ATOM     23  C   UNL     1       3.417   2.997  18.158  0.00  0.00    +0.000 A 
ATOM     24  C   UNL     1       2.179   3.585  17.947  0.00  0.00    +0.000 A 
ATOM     25  C   UNL     1       2.110   4.971  17.825  0.00  0.00    +0.000 A 
ATOM     26  C   UNL     1       3.264   5.742  17.973  0.00  0.00    +0.000 A 
ATOM     27  C   UNL     1       4.481   5.072  18.111  0.00  0.00    +0.000 A 
ATOM     28  C   UNL     1       5.797   5.792  18.134  0.00  0.00    +0.000 C 
ATOM     29  N   UNL     1       4.561   3.718  18.218  0.00  0.00    +0.000 NA
ENDBRANCH  21  26
ENDBRANCH   1  21
TORSDOF 5
ENDMDL
