MODEL 1
REMARK VINA RESULT:      -6.5      0.000      0.000
REMARK  Name = 
REMARK  7 active torsions:
REMARK  status: ('A' for Active; 'I' for Inactive)
REMARK    1  A    between atoms: C_1  and  C_2
REMARK    2  A    between atoms: C_2  and  N_3
REMARK    3  A    between atoms: N_6  and  C_7
REMARK    4  A    between atoms: C_7  and  C_9
REMARK    5  A    between atoms: C_12  and  O_13
REMARK    6  A    between atoms: C_14  and  O_15
REMARK    7  A    between atoms: O_15  and  C_16
REMARK                            x       y       z     vdW  Elec       q    Type
REMARK                         _______ _______ _______ _____ _____    ______ ____
ROOT
ATOM      1  C   UNL     1       3.189   6.731  18.002  0.00  0.00    +0.000 C 
ATOM      2  S   UNL     1       2.627   8.324  17.889  0.00  0.00    +0.000 S 
ENDROOT
BRANCH   1   6
ATOM      3  N   UNL     1       2.535   2.891  19.518  0.00  0.00    +0.000 NA
ATOM      4  C   UNL     1       2.321   3.239  18.089  0.00  0.00    +0.000 C 
ATOM      5  C   UNL     1       1.784   4.666  17.760  0.00  0.00    +0.000 C 
ATOM      6  N   UNL     1       2.418   5.711  18.579  0.00  0.00    +0.000 N 
ATOM      7  C   UNL     1       2.523   5.366  19.997  0.00  0.00    +0.000 C 
ATOM      8  C   UNL     1       3.228   4.016  20.193  0.00  0.00    +0.000 C 
BRANCH   3  10
ATOM      9  C   UNL     1       1.483   2.572  21.760  0.00  0.00    +0.000 C 
ATOM     10  C   UNL     1       1.317   2.515  20.246  0.00  0.00    +0.000 C 
ENDBRANCH   3  10
ENDBRANCH   1   6
BRANCH   1  11
ATOM     11  C   UNL     1       4.483   6.308  17.354  0.00  0.00    +0.000 A 
ATOM     12  C   UNL     1       4.629   6.263  15.962  0.00  0.00    +0.000 A 
ATOM     13  C   UNL     1       5.769   5.691  15.386  0.00  0.00    +0.000 A 
ATOM     14  C   UNL     1       6.782   5.164  16.195  0.00  0.00    +0.000 A 
ATOM     15  C   UNL     1       6.673   5.226  17.588  0.00  0.00    +0.000 A 
ATOM     16  C   UNL     1       5.520   5.798  18.149  0.00  0.00    +0.000 A 
BRANCH  14  17
ATOM     17  O   UNL     1       7.854   4.572  15.586  0.00  0.00    +0.000 OA
ATOM     18  H   UNL     1       8.670   4.845  16.037  0.00  0.00    +0.000 HD
ENDBRANCH  14  17
BRANCH  15  19
ATOM     19  O   UNL     1       7.553   4.770  18.533  0.00  0.00    +0.000 OA
ATOM     20  C   UNL     1       7.868   5.617  19.628  0.00  0.00    +0.000 C 
ENDBRANCH  15  19
ENDBRANCH   1  11
TORSDOF 5
ENDMDL
MODEL 2
REMARK VINA RESULT:      -6.4      1.186      1.251
REMARK  Name = 
REMARK  7 active torsions:
REMARK  status: ('A' for Active; 'I' for Inactive)
REMARK    1  A    between atoms: C_1  and  C_2
REMARK    2  A    between atoms: C_2  and  N_3
REMARK    3  A    between atoms: N_6  and  C_7
REMARK    4  A    between atoms: C_7  and  C_9
REMARK    5  A    between atoms: C_12  and  O_13
REMARK    6  A    between atoms: C_14  and  O_15
REMARK    7  A    between atoms: O_15  and  C_16
REMARK                            x       y       z     vdW  Elec       q    Type
REMARK                         _______ _______ _______ _____ _____    ______ ____
ROOT
ATOM      1  C   UNL     1       3.145   6.586  17.955  0.00  0.00    +0.000 C 
ATOM      2  S   UNL     1       2.661   8.202  17.812  0.00  0.00    +0.000 S 
ENDROOT
BRANCH   1   6
ATOM      3  N   UNL     1       2.305   2.781  19.466  0.00  0.00    +0.000 NA
ATOM      4  C   UNL     1       1.852   3.231  18.125  0.00  0.00    +0.000 C 
ATOM      5  C   UNL     1       1.456   4.730  17.956  0.00  0.00    +0.000 C 
ATOM      6  N   UNL     1       2.378   5.640  18.652  0.00  0.00    +0.000 N 
ATOM      7  C   UNL     1       2.723   5.207  20.007  0.00  0.00    +0.000 C 
ATOM      8  C   UNL     1       3.266   3.770  20.013  0.00  0.00    +0.000 C 
BRANCH   3  10
ATOM      9  C   UNL     1       1.693   2.519  21.873  0.00  0.00    +0.000 C 
ATOM     10  C   UNL     1       1.223   2.521  20.423  0.00  0.00    +0.000 C 
ENDBRANCH   3  10
ENDBRANCH   1   6
BRANCH   1  11
ATOM     11  C   UNL     1       4.347   6.059  17.214  0.00  0.00    +0.000 A 
ATOM     12  C   UNL     1       4.388   4.752  16.713  0.00  0.00    +0.000 A 
ATOM     13  C   UNL     1       5.578   4.227  16.196  0.00  0.00    +0.000 A 
ATOM     14  C   UNL     1       6.741   5.004  16.168  0.00  0.00    +0.000 A 
ATOM     15  C   UNL     1       6.717   6.323  16.635  0.00  0.00    +0.000 A 
ATOM     16  C   UNL     1       5.516   6.831  17.154  0.00  0.00    +0.000 A 
BRANCH  14  17
ATOM     17  O   UNL     1       7.891   4.431  15.700  0.00  0.00    +0.000 OA
ATOM     18  H   UNL     1       7.666   3.721  15.076  0.00  0.00    +0.000 HD
ENDBRANCH  14  17
BRANCH  15  19
ATOM     19  O   UNL     1       7.743   7.227  16.686  0.00  0.00    +0.000 OA
ATOM     20  C   UNL     1       7.827   8.092  17.809  0.00  0.00    +0.000 C 
ENDBRANCH  15  19
ENDBRANCH   1  11
TORSDOF 5
ENDMDL
MODEL 3
REMARK VINA RESULT:      -6.3      2.809      5.608
REMARK  Name = 
REMARK  7 active torsions:
REMARK  status: ('A' for Active; 'I' for Inactive)
REMARK    1  A    between atoms: C_1  and  C_2
REMARK    2  A    between atoms: C_2  and  N_3
REMARK    3  A    between atoms: N_6  and  C_7
REMARK    4  A    between atoms: C_7  and  C_9
REMARK    5  A    between atoms: C_12  and  O_13
REMARK    6  A    between atoms: C_14  and  O_15
REMARK    7  A    between atoms: O_15  and  C_16
REMARK                            x       y       z     vdW  Elec       q    Type
REMARK                         _______ _______ _______ _____ _____    ______ ____
ROOT
ATOM      1  C   UNL     1       3.143   6.992  18.015  0.00  0.00    +0.000 C 
ATOM      2  S   UNL     1       2.570   8.574  17.830  0.00  0.00    +0.000 S 
ENDROOT
BRANCH   1   6
ATOM      3  N   UNL     1       5.990   4.280  16.597  0.00  0.00    +0.000 NA
ATOM      4  C   UNL     1       5.767   4.528  18.045  0.00  0.00    +0.000 C 
ATOM      5  C   UNL     1       5.389   5.975  18.486  0.00  0.00    +0.000 C 
ATOM      6  N   UNL     1       4.419   6.607  17.577  0.00  0.00    +0.000 N 
ATOM      7  C   UNL     1       4.729   6.419  16.159  0.00  0.00    +0.000 C 
ATOM      8  C   UNL     1       4.907   4.931  15.820  0.00  0.00    +0.000 C 
BRANCH   3  10
ATOM      9  C   UNL     1       7.357   4.844  14.585  0.00  0.00    +0.000 C 
ATOM     10  C   UNL     1       7.309   4.691  16.101  0.00  0.00    +0.000 C 
ENDBRANCH   3  10
ENDBRANCH   1   6
BRANCH   1  11
ATOM     11  C   UNL     1       2.364   5.962  18.792  0.00  0.00    +0.000 A 
ATOM     12  C   UNL     1       2.055   6.140  20.146  0.00  0.00    +0.000 A 
ATOM     13  C   UNL     1       1.497   5.094  20.891  0.00  0.00    +0.000 A 
ATOM     14  C   UNL     1       1.234   3.858  20.289  0.00  0.00    +0.000 A 
ATOM     15  C   UNL     1       1.505   3.667  18.930  0.00  0.00    +0.000 A 
ATOM     16  C   UNL     1       2.069   4.725  18.200  0.00  0.00    +0.000 A 
BRANCH  14  17
ATOM     17  O   UNL     1       0.736   2.851  21.069  0.00  0.00    +0.000 OA
ATOM     18  H   UNL     1      -0.211   2.741  20.883  0.00  0.00    +0.000 HD
ENDBRANCH  14  17
BRANCH  15  19
ATOM     19  O   UNL     1       1.316   2.541  18.175  0.00  0.00    +0.000 OA
ATOM     20  C   UNL     1       2.459   1.829  17.724  0.00  0.00    +0.000 C 
ENDBRANCH  15  19
ENDBRANCH   1  11
TORSDOF 5
ENDMDL
MODEL 4
REMARK VINA RESULT:      -5.9      2.210      2.951
REMARK  Name = 
REMARK  7 active torsions:
REMARK  status: ('A' for Active; 'I' for Inactive)
REMARK    1  A    between atoms: C_1  and  C_2
REMARK    2  A    between atoms: C_2  and  N_3
REMARK    3  A    between atoms: N_6  and  C_7
REMARK    4  A    between atoms: C_7  and  C_9
REMARK    5  A    between atoms: C_12  and  O_13
REMARK    6  A    between atoms: C_14  and  O_15
REMARK    7  A    between atoms: O_15  and  C_16
REMARK                            x       y       z     vdW  Elec       q    Type
REMARK                         _______ _______ _______ _____ _____    ______ ____
ROOT
ATOM      1  C   UNL     1       3.430   3.401  17.892  0.00  0.00    +0.000 C 
ATOM      2  S   UNL     1       3.404   1.726  18.135  0.00  0.00    +0.000 S 
ENDROOT
BRANCH   1   6
ATOM      3  N   UNL     1       2.243   6.207  20.753  0.00  0.00    +0.000 NA
ATOM      4  C   UNL     1       2.127   4.741  20.968  0.00  0.00    +0.000 C 
ATOM      5  C   UNL     1       1.787   3.849  19.735  0.00  0.00    +0.000 C 
ATOM      6  N   UNL     1       2.516   4.258  18.524  0.00  0.00    +0.000 N 
ATOM      7  C   UNL     1       2.524   5.704  18.299  0.00  0.00    +0.000 C 
ATOM      8  C   UNL     1       3.046   6.457  19.532  0.00  0.00    +0.000 C 
BRANCH   3  10
ATOM      9  C   UNL     1       1.084   8.402  21.021  0.00  0.00    +0.000 C 
ATOM     10  C   UNL     1       0.961   6.920  20.691  0.00  0.00    +0.000 C 
ENDBRANCH   3  10
ENDBRANCH   1   6
BRANCH   1  11
ATOM     11  C   UNL     1       4.530   4.062  17.100  0.00  0.00    +0.000 A 
ATOM     12  C   UNL     1       4.436   4.236  15.714  0.00  0.00    +0.000 A 
ATOM     13  C   UNL     1       5.541   4.678  14.978  0.00  0.00    +0.000 A 
ATOM     14  C   UNL     1       6.753   4.960  15.619  0.00  0.00    +0.000 A 
ATOM     15  C   UNL     1       6.861   4.823  17.008  0.00  0.00    +0.000 A 
ATOM     16  C   UNL     1       5.744   4.373  17.729  0.00  0.00    +0.000 A 
BRANCH  14  17
ATOM     17  O   UNL     1       7.819   5.341  14.852  0.00  0.00    +0.000 OA
ATOM     18  H   UNL     1       7.838   4.807  14.041  0.00  0.00    +0.000 HD
ENDBRANCH  14  17
BRANCH  15  19
ATOM     19  O   UNL     1       7.952   5.051  17.803  0.00  0.00    +0.000 OA
ATOM     20  C   UNL     1       7.827   5.980  18.870  0.00  0.00    +0.000 C 
ENDBRANCH  15  19
ENDBRANCH   1  11
TORSDOF 5
ENDMDL
MODEL 5
REMARK VINA RESULT:      -5.9      3.934      6.140
REMARK  Name = 
REMARK  7 active torsions:
REMARK  status: ('A' for Active; 'I' for Inactive)
REMARK    1  A    between atoms: C_1  and  C_2
REMARK    2  A    between atoms: C_2  and  N_3
REMARK    3  A    between atoms: N_6  and  C_7
REMARK    4  A    between atoms: C_7  and  C_9
REMARK    5  A    between atoms: C_12  and  O_13
REMARK    6  A    between atoms: C_14  and  O_15
REMARK    7  A    between atoms: O_15  and  C_16
REMARK                            x       y       z     vdW  Elec       q    Type
REMARK                         _______ _______ _______ _____ _____    ______ ____
ROOT
ATOM      1  C   UNL     1       3.690   5.903  18.599  0.00  0.00    +0.000 C 
ATOM      2  S   UNL     1       3.662   4.618  19.700  0.00  0.00    +0.000 S 
ENDROOT
BRANCH   1   6
ATOM      3  N   UNL     1       6.806   4.498  16.194  0.00  0.00    +0.000 NA
ATOM      4  C   UNL     1       6.976   5.614  17.158  0.00  0.00    +0.000 C 
ATOM      5  C   UNL     1       5.771   6.581  17.372  0.00  0.00    +0.000 C 
ATOM      6  N   UNL     1       4.484   5.873  17.442  0.00  0.00    +0.000 N 
ATOM      7  C   UNL     1       4.319   4.846  16.413  0.00  0.00    +0.000 C 
ATOM      8  C   UNL     1       5.490   3.852  16.424  0.00  0.00    +0.000 C 
BRANCH   3  10
ATOM      9  C   UNL     1       6.326   3.880  13.822  0.00  0.00    +0.000 C 
ATOM     10  C   UNL     1       6.962   4.877  14.784  0.00  0.00    +0.000 C 
ENDBRANCH   3  10
ENDBRANCH   1   6
BRANCH   1  11
ATOM     11  C   UNL     1       2.751   7.074  18.736  0.00  0.00    +0.000 A 
ATOM     12  C   UNL     1       2.552   7.985  17.692  0.00  0.00    +0.000 A 
ATOM     13  C   UNL     1       1.824   9.161  17.904  0.00  0.00    +0.000 A 
ATOM     14  C   UNL     1       1.281   9.440  19.163  0.00  0.00    +0.000 A 
ATOM     15  C   UNL     1       1.440   8.530  20.214  0.00  0.00    +0.000 A 
ATOM     16  C   UNL     1       2.176   7.358  19.984  0.00  0.00    +0.000 A 
BRANCH  14  17
ATOM     17  O   UNL     1       0.621  10.625  19.336  0.00  0.00    +0.000 OA
ATOM     18  H   UNL     1       1.186  11.237  19.836  0.00  0.00    +0.000 HD
ENDBRANCH  14  17
BRANCH  15  19
ATOM     19  O   UNL     1       0.984   8.627  21.501  0.00  0.00    +0.000 OA
ATOM     20  C   UNL     1      -0.410   8.489  21.736  0.00  0.00    +0.000 C 
ENDBRANCH  15  19
ENDBRANCH   1  11
TORSDOF 5
ENDMDL
MODEL 6
REMARK VINA RESULT:      -5.9      1.449      1.841
REMARK  Name = 
REMARK  7 active torsions:
REMARK  status: ('A' for Active; 'I' for Inactive)
REMARK    1  A    between atoms: C_1  and  C_2
REMARK    2  A    between atoms: C_2  and  N_3
REMARK    3  A    between atoms: N_6  and  C_7
REMARK    4  A    between atoms: C_7  and  C_9
REMARK    5  A    between atoms: C_12  and  O_13
REMARK    6  A    between atoms: C_14  and  O_15
REMARK    7  A    between atoms: O_15  and  C_16
REMARK                            x       y       z     vdW  Elec       q    Type
REMARK                         _______ _______ _______ _____ _____    ______ ____
ROOT
ATOM      1  C   UNL     1       3.461   6.234  18.113  0.00  0.00    +0.000 C 
ATOM      2  S   UNL     1       2.587   7.684  18.109  0.00  0.00    +0.000 S 
ENDROOT
BRANCH   1   6
ATOM      3  N   UNL     1       0.794   3.539  19.871  0.00  0.00    +0.000 NA
ATOM      4  C   UNL     1       1.146   4.841  20.492  0.00  0.00    +0.000 C 
ATOM      5  C   UNL     1       2.603   5.366  20.305  0.00  0.00    +0.000 C 
ATOM      6  N   UNL     1       3.109   5.156  18.940  0.00  0.00    +0.000 N 
ATOM      7  C   UNL     1       2.822   3.826  18.402  0.00  0.00    +0.000 C 
ATOM      8  C   UNL     1       1.323   3.501  18.486  0.00  0.00    +0.000 C 
BRANCH   3  10
ATOM      9  C   UNL     1       1.949   2.715  21.926  0.00  0.00    +0.000 C 
ATOM     10  C   UNL     1       1.231   2.360  20.629  0.00  0.00    +0.000 C 
ENDBRANCH   3  10
ENDBRANCH   1   6
BRANCH   1  11
ATOM     11  C   UNL     1       4.567   5.983  17.121  0.00  0.00    +0.000 A 
ATOM     12  C   UNL     1       4.516   4.915  16.216  0.00  0.00    +0.000 A 
ATOM     13  C   UNL     1       5.633   4.591  15.436  0.00  0.00    +0.000 A 
ATOM     14  C   UNL     1       6.813   5.335  15.546  0.00  0.00    +0.000 A 
ATOM     15  C   UNL     1       6.877   6.426  16.421  0.00  0.00    +0.000 A 
ATOM     16  C   UNL     1       5.750   6.733  17.198  0.00  0.00    +0.000 A 
BRANCH  14  17
ATOM     17  O   UNL     1       7.893   4.950  14.801  0.00  0.00    +0.000 OA
ATOM     18  H   UNL     1       7.811   4.007  14.581  0.00  0.00    +0.000 HD
ENDBRANCH  14  17
BRANCH  15  19
ATOM     19  O   UNL     1       7.933   7.263  16.660  0.00  0.00    +0.000 OA
ATOM     20  C   UNL     1       7.814   8.219  17.704  0.00  0.00    +0.000 C 
ENDBRANCH  15  19
ENDBRANCH   1  11
TORSDOF 5
ENDMDL
MODEL 7
REMARK VINA RESULT:      -5.9      3.373      5.976
REMARK  Name = 
REMARK  7 active torsions:
REMARK  status: ('A' for Active; 'I' for Inactive)
REMARK    1  A    between atoms: C_1  and  C_2
REMARK    2  A    between atoms: C_2  and  N_3
REMARK    3  A    between atoms: N_6  and  C_7
REMARK    4  A    between atoms: C_7  and  C_9
REMARK    5  A    between atoms: C_12  and  O_13
REMARK    6  A    between atoms: C_14  and  O_15
REMARK    7  A    between atoms: O_15  and  C_16
REMARK                            x       y       z     vdW  Elec       q    Type
REMARK                         _______ _______ _______ _____ _____    ______ ____
ROOT
ATOM      1  C   UNL     1       5.915   4.752  18.584  0.00  0.00    +0.000 C 
ATOM      2  S   UNL     1       7.157   5.635  19.322  0.00  0.00    +0.000 S 
ENDROOT
BRANCH   1   6
ATOM      3  N   UNL     1       6.061   4.905  14.410  0.00  0.00    +0.000 NA
ATOM      4  C   UNL     1       4.802   4.670  15.162  0.00  0.00    +0.000 C 
ATOM      5  C   UNL     1       4.885   3.846  16.483  0.00  0.00    +0.000 C 
ATOM      6  N   UNL     1       6.055   4.204  17.300  0.00  0.00    +0.000 N 
ATOM      7  C   UNL     1       7.295   4.332  16.532  0.00  0.00    +0.000 C 
ATOM      8  C   UNL     1       7.126   5.309  15.359  0.00  0.00    +0.000 C 
BRANCH   3  10
ATOM      9  C   UNL     1       5.567   3.491  12.411  0.00  0.00    +0.000 C 
ATOM     10  C   UNL     1       6.500   3.774  13.583  0.00  0.00    +0.000 C 
ENDBRANCH   3  10
ENDBRANCH   1   6
BRANCH   1  11
ATOM     11  C   UNL     1       4.658   4.390  19.333  0.00  0.00    +0.000 A 
ATOM     12  C   UNL     1       4.299   3.057  19.567  0.00  0.00    +0.000 A 
ATOM     13  C   UNL     1       3.042   2.743  20.097  0.00  0.00    +0.000 A 
ATOM     14  C   UNL     1       2.130   3.759  20.405  0.00  0.00    +0.000 A 
ATOM     15  C   UNL     1       2.478   5.100  20.208  0.00  0.00    +0.000 A 
ATOM     16  C   UNL     1       3.740   5.396  19.672  0.00  0.00    +0.000 A 
BRANCH  14  17
ATOM     17  O   UNL     1       0.895   3.401  20.873  0.00  0.00    +0.000 OA
ATOM     18  H   UNL     1       0.850   2.433  20.950  0.00  0.00    +0.000 HD
ENDBRANCH  14  17
BRANCH  15  19
ATOM     19  O   UNL     1       1.727   6.218  20.450  0.00  0.00    +0.000 OA
ATOM     20  C   UNL     1       2.117   7.439  19.837  0.00  0.00    +0.000 C 
ENDBRANCH  15  19
ENDBRANCH   1  11
TORSDOF 5
ENDMDL
MODEL 8
REMARK VINA RESULT:      -5.8      3.404      5.973
REMARK  Name = 
REMARK  7 active torsions:
REMARK  status: ('A' for Active; 'I' for Inactive)
REMARK    1  A    between atoms: C_1  and  C_2
REMARK    2  A    between atoms: C_2  and  N_3
REMARK    3  A    between atoms: N_6  and  C_7
REMARK    4  A    between atoms: C_7  and  C_9
REMARK    5  A    between atoms: C_12  and  O_13
REMARK    6  A    between atoms: C_14  and  O_15
REMARK    7  A    between atoms: O_15  and  C_16
REMARK                            x       y       z     vdW  Elec       q    Type
REMARK                         _______ _______ _______ _____ _____    ______ ____
ROOT
ATOM      1  C   UNL     1       5.647   5.156  18.550  0.00  0.00    +0.000 C 
ATOM      2  S   UNL     1       7.124   5.546  19.281  0.00  0.00    +0.000 S 
ENDROOT
BRANCH   1   6
ATOM      3  N   UNL     1       6.443   3.864  14.656  0.00  0.00    +0.000 NA
ATOM      4  C   UNL     1       7.181   4.981  15.298  0.00  0.00    +0.000 C 
ATOM      5  C   UNL     1       6.394   5.908  16.275  0.00  0.00    +0.000 C 
ATOM      6  N   UNL     1       5.485   5.158  17.156  0.00  0.00    +0.000 N 
ATOM      7  C   UNL     1       4.707   4.130  16.464  0.00  0.00    +0.000 C 
ATOM      8  C   UNL     1       5.617   3.175  15.677  0.00  0.00    +0.000 C 
BRANCH   3  10
ATOM      9  C   UNL     1       5.736   3.282  12.332  0.00  0.00    +0.000 C 
ATOM     10  C   UNL     1       5.625   4.255  13.500  0.00  0.00    +0.000 C 
ENDBRANCH   3  10
ENDBRANCH   1   6
BRANCH   1  11
ATOM     11  C   UNL     1       4.482   4.648  19.359  0.00  0.00    +0.000 A 
ATOM     12  C   UNL     1       4.277   3.279  19.574  0.00  0.00    +0.000 A 
ATOM     13  C   UNL     1       3.093   2.823  20.166  0.00  0.00    +0.000 A 
ATOM     14  C   UNL     1       2.102   3.730  20.556  0.00  0.00    +0.000 A 
ATOM     15  C   UNL     1       2.297   5.105  20.379  0.00  0.00    +0.000 A 
ATOM     16  C   UNL     1       3.488   5.543  19.780  0.00  0.00    +0.000 A 
BRANCH  14  17
ATOM     17  O   UNL     1       0.941   3.234  21.084  0.00  0.00    +0.000 OA
ATOM     18  H   UNL     1       0.201   3.807  20.825  0.00  0.00    +0.000 HD
ENDBRANCH  14  17
BRANCH  15  19
ATOM     19  O   UNL     1       1.451   6.133  20.697  0.00  0.00    +0.000 OA
ATOM     20  C   UNL     1       1.801   7.447  20.287  0.00  0.00    +0.000 C 
ENDBRANCH  15  19
ENDBRANCH   1  11
TORSDOF 5
ENDMDL
MODEL 9
REMARK VINA RESULT:      -5.8      0.860      1.409
REMARK  Name = 
REMARK  7 active torsions:
REMARK  status: ('A' for Active; 'I' for Inactive)
REMARK    1  A    between atoms: C_1  and  C_2
REMARK    2  A    between atoms: C_2  and  N_3
REMARK    3  A    between atoms: N_6  and  C_7
REMARK    4  A    between atoms: C_7  and  C_9
REMARK    5  A    between atoms: C_12  and  O_13
REMARK    6  A    between atoms: C_14  and  O_15
REMARK    7  A    between atoms: O_15  and  C_16
REMARK                            x       y       z     vdW  Elec       q    Type
REMARK                         _______ _______ _______ _____ _____    ______ ____
ROOT
ATOM      1  C   UNL     1       3.424   6.417  18.294  0.00  0.00    +0.000 C 
ATOM      2  S   UNL     1       2.462   7.810  18.272  0.00  0.00    +0.000 S 
ENDROOT
BRANCH   1   6
ATOM      3  N   UNL     1       0.778   3.530  19.753  0.00  0.00    +0.000 NA
ATOM      4  C   UNL     1       1.045   4.808  20.463  0.00  0.00    +0.000 C 
ATOM      5  C   UNL     1       2.487   5.396  20.385  0.00  0.00    +0.000 C 
ATOM      6  N   UNL     1       3.073   5.283  19.040  0.00  0.00    +0.000 N 
ATOM      7  C   UNL     1       2.869   3.975  18.416  0.00  0.00    +0.000 C 
ATOM      8  C   UNL     1       1.382   3.590  18.400  0.00  0.00    +0.000 C 
BRANCH   3  10
ATOM      9  C   UNL     1       1.522   2.584  21.942  0.00  0.00    +0.000 C 
ATOM     10  C   UNL     1       1.222   2.328  20.470  0.00  0.00    +0.000 C 
ENDBRANCH   3  10
ENDBRANCH   1   6
BRANCH   1  11
ATOM     11  C   UNL     1       4.627   6.281  17.395  0.00  0.00    +0.000 A 
ATOM     12  C   UNL     1       4.534   6.460  16.009  0.00  0.00    +0.000 A 
ATOM     13  C   UNL     1       5.616   6.147  15.179  0.00  0.00    +0.000 A 
ATOM     14  C   UNL     1       6.808   5.656  15.723  0.00  0.00    +0.000 A 
ATOM     15  C   UNL     1       6.935   5.498  17.108  0.00  0.00    +0.000 A 
ATOM     16  C   UNL     1       5.838   5.813  17.925  0.00  0.00    +0.000 A 
BRANCH  14  17
ATOM     17  O   UNL     1       7.819   5.317  14.868  0.00  0.00    +0.000 OA
ATOM     18  H   UNL     1       8.261   4.516  15.195  0.00  0.00    +0.000 HD
ENDBRANCH  14  17
BRANCH  15  19
ATOM     19  O   UNL     1       8.012   5.038  17.817  0.00  0.00    +0.000 OA
ATOM     20  C   UNL     1       8.168   5.467  19.162  0.00  0.00    +0.000 C 
ENDBRANCH  15  19
ENDBRANCH   1  11
TORSDOF 5
ENDMDL
