MODEL 1
REMARK VINA RESULT:      -8.2      0.000      0.000
REMARK  Name = 
REMARK  13 active torsions:
REMARK  status: ('A' for Active; 'I' for Inactive)
REMARK    1  A    between atoms: C_1  and  C_2
REMARK    2  A    between atoms: C_2  and  C_3
REMARK    3  A    between atoms: C_2  and  C_4
REMARK    4  A    between atoms: C_2  and  O_5
REMARK    5  A    between atoms: O_5  and  C_6
REMARK    6  A    between atoms: N_8  and  C_9
REMARK    7  A    between atoms: C_9  and  C_10
REMARK    8  A    between atoms: C_10  and  N_11
REMARK    9  A    between atoms: N_11  and  C_12
REMARK   10  A    between atoms: C_12  and  C_13
REMARK   11  A    between atoms: C_12  and  C_26
REMARK   12  A    between atoms: C_14  and  O_15
REMARK   13  A    between atoms: C_31  and  O_32
REMARK                            x       y       z     vdW  Elec       q    Type
REMARK                         _______ _______ _______ _____ _____    ______ ____
ROOT
ATOM      1  C   UNL     1       3.176   6.078  19.598  0.00  0.00    +0.000 C 
ENDROOT
BRANCH   1   2
ATOM      2  C   UNL     1       2.409   7.378  19.384  0.00  0.00    +0.000 C 
ATOM      3  C   UNL     1       2.461   8.131  18.266  0.00  0.00    +0.000 C 
ATOM      4  C   UNL     1       1.844   9.490  18.208  0.00  0.00    +0.000 C 
ATOM      5  O   UNL     1       2.025  10.250  17.259  0.00  0.00    +0.000 OA
ATOM      6  C   UNL     1       0.976   9.907  19.316  0.00  0.00    +0.000 A 
ATOM      7  C   UNL     1       0.280  11.123  19.231  0.00  0.00    +0.000 A 
ATOM      8  C   UNL     1      -0.638  11.476  20.221  0.00  0.00    +0.000 A 
ATOM      9  C   UNL     1      -0.856  10.618  21.297  0.00  0.00    +0.000 A 
ATOM     10  C   UNL     1      -0.124   9.433  21.408  0.00  0.00    +0.000 A 
ATOM     11  C   UNL     1       0.809   9.082  20.421  0.00  0.00    +0.000 A 
ATOM     12  C   UNL     1       1.616   7.854  20.556  0.00  0.00    +0.000 C 
ATOM     13  O   UNL     1       1.604   7.237  21.617  0.00  0.00    +0.000 OA
BRANCH   3  14
ATOM     14  O   UNL     1       3.118   7.723  17.116  0.00  0.00    +0.000 OA
ATOM     15  H   UNL     1       2.726   6.877  16.807  0.00  0.00    +0.000 HD
ENDBRANCH   3  14
ENDBRANCH   1   2
BRANCH   1  16
ATOM     16  C   UNL     1       2.287   4.848  19.367  0.00  0.00    +0.000 A 
ATOM     17  C   UNL     1       1.921   4.540  18.041  0.00  0.00    +0.000 A 
ATOM     18  C   UNL     1       1.145   3.417  17.745  0.00  0.00    +0.000 A 
ATOM     19  C   UNL     1       0.714   2.580  18.768  0.00  0.00    +0.000 A 
ATOM     20  C   UNL     1       1.049   2.866  20.088  0.00  0.00    +0.000 A 
ATOM     21  C   UNL     1       1.834   3.984  20.380  0.00  0.00    +0.000 A 
BRANCH  21  22
ATOM     22  O   UNL     1       2.177   4.221  21.682  0.00  0.00    +0.000 OA
ATOM     23  H   UNL     1       3.146   4.195  21.772  0.00  0.00    +0.000 HD
ENDBRANCH  21  22
ENDBRANCH   1  16
BRANCH   1  24
ATOM     24  N   UNL     1       4.431   6.011  18.814  0.00  0.00    +0.000 NA
ATOM     25  H   UNL     1       4.234   5.567  17.919  0.00  0.00    +0.000 HD
BRANCH  24  26
ATOM     26  C   UNL     1       5.541   5.317  19.485  0.00  0.00    +0.000 C 
BRANCH  26  27
ATOM     27  C   UNL     1       6.960   5.805  19.109  0.00  0.00    +0.000 C 
BRANCH  27  30
ATOM     28  C   UNL     1       7.730   4.845  17.014  0.00  0.00    +0.000 C 
ATOM     29  O   UNL     1       8.300   3.902  17.552  0.00  0.00    +0.000 OA
ATOM     30  N   UNL     1       7.215   5.910  17.685  0.00  0.00    +0.000 N 
ATOM     31  H   UNL     1       6.606   6.490  17.122  0.00  0.00    +0.000 HD
BRANCH  28  32
ATOM     32  O   UNL     1       7.476   4.952  15.688  0.00  0.00    +0.000 OA
BRANCH  32  34
ATOM     33  C   UNL     1       5.434   3.648  16.196  0.00  0.00    +0.000 C 
ATOM     34  C   UNL     1       6.155   4.584  15.212  0.00  0.00    +0.000 C 
ATOM     35  C   UNL     1       6.246   3.991  13.799  0.00  0.00    +0.000 C 
ATOM     36  C   UNL     1       5.354   5.892  15.138  0.00  0.00    +0.000 C 
ENDBRANCH  32  34
ENDBRANCH  28  32
ENDBRANCH  27  30
ENDBRANCH  26  27
ENDBRANCH  24  26
ENDBRANCH   1  24
TORSDOF 10
ENDMDL
MODEL 2
REMARK VINA RESULT:      -7.9      3.802      6.720
REMARK  Name = 
REMARK  13 active torsions:
REMARK  status: ('A' for Active; 'I' for Inactive)
REMARK    1  A    between atoms: C_1  and  C_2
REMARK    2  A    between atoms: C_2  and  C_3
REMARK    3  A    between atoms: C_2  and  C_4
REMARK    4  A    between atoms: C_2  and  O_5
REMARK    5  A    between atoms: O_5  and  C_6
REMARK    6  A    between atoms: N_8  and  C_9
REMARK    7  A    between atoms: C_9  and  C_10
REMARK    8  A    between atoms: C_10  and  N_11
REMARK    9  A    between atoms: N_11  and  C_12
REMARK   10  A    between atoms: C_12  and  C_13
REMARK   11  A    between atoms: C_12  and  C_26
REMARK   12  A    between atoms: C_14  and  O_15
REMARK   13  A    between atoms: C_31  and  O_32
REMARK                            x       y       z     vdW  Elec       q    Type
REMARK                         _______ _______ _______ _____ _____    ______ ____
ROOT
ATOM      1  C   UNL     1       6.801   5.404  16.445  0.00  0.00    +0.000 C 
ENDROOT
BRANCH   1   2
ATOM      2  C   UNL     1       5.490   5.611  17.195  0.00  0.00    +0.000 C 
ATOM      3  C   UNL     1       4.599   6.591  16.938  0.00  0.00    +0.000 C 
ATOM      4  C   UNL     1       3.440   6.852  17.845  0.00  0.00    +0.000 C 
ATOM      5  O   UNL     1       2.720   7.840  17.715  0.00  0.00    +0.000 OA
ATOM      6  C   UNL     1       3.151   5.876  18.903  0.00  0.00    +0.000 A 
ATOM      7  C   UNL     1       1.996   6.026  19.686  0.00  0.00    +0.000 A 
ATOM      8  C   UNL     1       1.647   5.045  20.614  0.00  0.00    +0.000 A 
ATOM      9  C   UNL     1       2.452   3.917  20.763  0.00  0.00    +0.000 A 
ATOM     10  C   UNL     1       3.631   3.795  20.020  0.00  0.00    +0.000 A 
ATOM     11  C   UNL     1       3.990   4.787  19.096  0.00  0.00    +0.000 A 
ATOM     12  C   UNL     1       5.255   4.684  18.342  0.00  0.00    +0.000 C 
ATOM     13  O   UNL     1       6.078   3.828  18.655  0.00  0.00    +0.000 OA
BRANCH   3  14
ATOM     14  O   UNL     1       4.713   7.444  15.853  0.00  0.00    +0.000 OA
ATOM     15  H   UNL     1       4.094   8.198  15.972  0.00  0.00    +0.000 HD
ENDBRANCH   3  14
ENDBRANCH   1   2
BRANCH   1  16
ATOM     16  C   UNL     1       6.570   4.805  15.050  0.00  0.00    +0.000 A 
ATOM     17  C   UNL     1       5.422   4.010  14.857  0.00  0.00    +0.000 A 
ATOM     18  C   UNL     1       5.123   3.460  13.609  0.00  0.00    +0.000 A 
ATOM     19  C   UNL     1       5.967   3.688  12.527  0.00  0.00    +0.000 A 
ATOM     20  C   UNL     1       7.114   4.459  12.691  0.00  0.00    +0.000 A 
ATOM     21  C   UNL     1       7.405   5.017  13.939  0.00  0.00    +0.000 A 
BRANCH  21  22
ATOM     22  O   UNL     1       8.520   5.798  14.062  0.00  0.00    +0.000 OA
ATOM     23  H   UNL     1       8.512   6.485  13.373  0.00  0.00    +0.000 HD
ENDBRANCH  21  22
ENDBRANCH   1  16
BRANCH   1  24
ATOM     24  N   UNL     1       7.636   6.626  16.392  0.00  0.00    +0.000 NA
ATOM     25  H   UNL     1       8.535   6.391  15.975  0.00  0.00    +0.000 HD
BRANCH  24  26
ATOM     26  C   UNL     1       7.844   7.288  17.690  0.00  0.00    +0.000 C 
BRANCH  26  27
ATOM     27  C   UNL     1       7.776   8.833  17.671  0.00  0.00    +0.000 C 
BRANCH  27  30
ATOM     28  C   UNL     1       8.919  10.863  18.362  0.00  0.00    +0.000 C 
ATOM     29  O   UNL     1       8.281  11.586  17.604  0.00  0.00    +0.000 OA
ATOM     30  N   UNL     1       8.877   9.504  18.336  0.00  0.00    +0.000 N 
ATOM     31  H   UNL     1       9.295   9.068  19.147  0.00  0.00    +0.000 HD
BRANCH  28  32
ATOM     32  O   UNL     1       9.715  11.293  19.369  0.00  0.00    +0.000 OA
BRANCH  32  34
ATOM     33  C   UNL     1      11.310  11.892  17.573  0.00  0.00    +0.000 C 
ATOM     34  C   UNL     1      10.869  12.107  19.030  0.00  0.00    +0.000 C 
ATOM     35  C   UNL     1      12.007  11.858  20.030  0.00  0.00    +0.000 C 
ATOM     36  C   UNL     1      10.410  13.566  19.170  0.00  0.00    +0.000 C 
ENDBRANCH  32  34
ENDBRANCH  28  32
ENDBRANCH  27  30
ENDBRANCH  26  27
ENDBRANCH  24  26
ENDBRANCH   1  24
TORSDOF 10
ENDMDL
MODEL 3
REMARK VINA RESULT:      -7.9      0.633      1.394
REMARK  Name = 
REMARK  13 active torsions:
REMARK  status: ('A' for Active; 'I' for Inactive)
REMARK    1  A    between atoms: C_1  and  C_2
REMARK    2  A    between atoms: C_2  and  C_3
REMARK    3  A    between atoms: C_2  and  C_4
REMARK    4  A    between atoms: C_2  and  O_5
REMARK    5  A    between atoms: O_5  and  C_6
REMARK    6  A    between atoms: N_8  and  C_9
REMARK    7  A    between atoms: C_9  and  C_10
REMARK    8  A    between atoms: C_10  and  N_11
REMARK    9  A    between atoms: N_11  and  C_12
REMARK   10  A    between atoms: C_12  and  C_13
REMARK   11  A    between atoms: C_12  and  C_26
REMARK   12  A    between atoms: C_14  and  O_15
REMARK   13  A    between atoms: C_31  and  O_32
REMARK                            x       y       z     vdW  Elec       q    Type
REMARK                         _______ _______ _______ _____ _____    ______ ____
ROOT
ATOM      1  C   UNL     1       3.158   6.141  19.755  0.00  0.00    +0.000 C 
ENDROOT
BRANCH   1   2
ATOM      2  C   UNL     1       2.367   7.418  19.498  0.00  0.00    +0.000 C 
ATOM      3  C   UNL     1       2.375   8.113  18.342  0.00  0.00    +0.000 C 
ATOM      4  C   UNL     1       1.738   9.460  18.234  0.00  0.00    +0.000 C 
ATOM      5  O   UNL     1       1.881  10.172  17.242  0.00  0.00    +0.000 OA
ATOM      6  C   UNL     1       0.897   9.923  19.345  0.00  0.00    +0.000 A 
ATOM      7  C   UNL     1       0.182  11.124  19.219  0.00  0.00    +0.000 A 
ATOM      8  C   UNL     1      -0.711  11.516  20.216  0.00  0.00    +0.000 A 
ATOM      9  C   UNL     1      -0.886  10.711  21.340  0.00  0.00    +0.000 A 
ATOM     10  C   UNL     1      -0.134   9.543  21.490  0.00  0.00    +0.000 A 
ATOM     11  C   UNL     1       0.774   9.154  20.495  0.00  0.00    +0.000 A 
ATOM     12  C   UNL     1       1.601   7.944  20.668  0.00  0.00    +0.000 C 
ATOM     13  O   UNL     1       1.629   7.382  21.759  0.00  0.00    +0.000 OA
BRANCH   3  14
ATOM     14  O   UNL     1       3.004   7.655  17.196  0.00  0.00    +0.000 OA
ATOM     15  H   UNL     1       3.688   8.307  16.924  0.00  0.00    +0.000 HD
ENDBRANCH   3  14
ENDBRANCH   1   2
BRANCH   1  16
ATOM     16  C   UNL     1       2.289   4.887  19.575  0.00  0.00    +0.000 A 
ATOM     17  C   UNL     1       1.652   4.359  20.716  0.00  0.00    +0.000 A 
ATOM     18  C   UNL     1       0.816   3.243  20.628  0.00  0.00    +0.000 A 
ATOM     19  C   UNL     1       0.603   2.629  19.399  0.00  0.00    +0.000 A 
ATOM     20  C   UNL     1       1.229   3.121  18.258  0.00  0.00    +0.000 A 
ATOM     21  C   UNL     1       2.056   4.244  18.347  0.00  0.00    +0.000 A 
BRANCH  21  22
ATOM     22  O   UNL     1       2.630   4.726  17.204  0.00  0.00    +0.000 OA
ATOM     23  H   UNL     1       2.044   4.549  16.448  0.00  0.00    +0.000 HD
ENDBRANCH  21  22
ENDBRANCH   1  16
BRANCH   1  24
ATOM     24  N   UNL     1       4.409   6.066  18.966  0.00  0.00    +0.000 NA
ATOM     25  H   UNL     1       4.185   5.742  18.027  0.00  0.00    +0.000 HD
BRANCH  24  26
ATOM     26  C   UNL     1       5.459   5.219  19.553  0.00  0.00    +0.000 C 
BRANCH  26  27
ATOM     27  C   UNL     1       6.913   5.640  19.237  0.00  0.00    +0.000 C 
BRANCH  27  30
ATOM     28  C   UNL     1       7.815   4.809  17.139  0.00  0.00    +0.000 C 
ATOM     29  O   UNL     1       8.427   3.886  17.664  0.00  0.00    +0.000 OA
ATOM     30  N   UNL     1       7.208   5.813  17.827  0.00  0.00    +0.000 N 
ATOM     31  H   UNL     1       6.583   6.374  17.263  0.00  0.00    +0.000 HD
BRANCH  28  32
ATOM     32  O   UNL     1       7.599   4.949  15.809  0.00  0.00    +0.000 OA
BRANCH  32  34
ATOM     33  C   UNL     1       5.390   5.960  15.329  0.00  0.00    +0.000 C 
ATOM     34  C   UNL     1       6.263   4.694  15.302  0.00  0.00    +0.000 C 
ATOM     35  C   UNL     1       5.621   3.523  16.059  0.00  0.00    +0.000 C 
ATOM     36  C   UNL     1       6.442   4.282  13.833  0.00  0.00    +0.000 C 
ENDBRANCH  32  34
ENDBRANCH  28  32
ENDBRANCH  27  30
ENDBRANCH  26  27
ENDBRANCH  24  26
ENDBRANCH   1  24
TORSDOF 10
ENDMDL
MODEL 4
REMARK VINA RESULT:      -7.7      0.781      1.028
REMARK  Name = 
REMARK  13 active torsions:
REMARK  status: ('A' for Active; 'I' for Inactive)
REMARK    1  A    between atoms: C_1  and  C_2
REMARK    2  A    between atoms: C_2  and  C_3
REMARK    3  A    between atoms: C_2  and  C_4
REMARK    4  A    between atoms: C_2  and  O_5
REMARK    5  A    between atoms: O_5  and  C_6
REMARK    6  A    between atoms: N_8  and  C_9
REMARK    7  A    between atoms: C_9  and  C_10
REMARK    8  A    between atoms: C_10  and  N_11
REMARK    9  A    between atoms: N_11  and  C_12
REMARK   10  A    between atoms: C_12  and  C_13
REMARK   11  A    between atoms: C_12  and  C_26
REMARK   12  A    between atoms: C_14  and  O_15
REMARK   13  A    between atoms: C_31  and  O_32
REMARK                            x       y       z     vdW  Elec       q    Type
REMARK                         _______ _______ _______ _____ _____    ______ ____
ROOT
ATOM      1  C   UNL     1       3.145   6.177  19.558  0.00  0.00    +0.000 C 
ENDROOT
BRANCH   1   2
ATOM      2  C   UNL     1       2.381   7.481  19.358  0.00  0.00    +0.000 C 
ATOM      3  C   UNL     1       2.425   8.238  18.243  0.00  0.00    +0.000 C 
ATOM      4  C   UNL     1       1.814   9.601  18.197  0.00  0.00    +0.000 C 
ATOM      5  O   UNL     1       1.989  10.364  17.250  0.00  0.00    +0.000 OA
ATOM      6  C   UNL     1       0.958  10.016  19.316  0.00  0.00    +0.000 A 
ATOM      7  C   UNL     1       0.267  11.235  19.243  0.00  0.00    +0.000 A 
ATOM      8  C   UNL     1      -0.639  11.588  20.244  0.00  0.00    +0.000 A 
ATOM      9  C   UNL     1      -0.851  10.726  21.318  0.00  0.00    +0.000 A 
ATOM     10  C   UNL     1      -0.122   9.537  21.417  0.00  0.00    +0.000 A 
ATOM     11  C   UNL     1       0.799   9.187  20.419  0.00  0.00    +0.000 A 
ATOM     12  C   UNL     1       1.602   7.955  20.540  0.00  0.00    +0.000 C 
ATOM     13  O   UNL     1       1.598   7.332  21.599  0.00  0.00    +0.000 OA
BRANCH   3  14
ATOM     14  O   UNL     1       3.069   7.833  17.085  0.00  0.00    +0.000 OA
ATOM     15  H   UNL     1       3.989   8.180  17.092  0.00  0.00    +0.000 HD
ENDBRANCH   3  14
ENDBRANCH   1   2
BRANCH   1  16
ATOM     16  C   UNL     1       2.250   4.951  19.324  0.00  0.00    +0.000 A 
ATOM     17  C   UNL     1       1.894   4.640  17.996  0.00  0.00    +0.000 A 
ATOM     18  C   UNL     1       1.113   3.521  17.699  0.00  0.00    +0.000 A 
ATOM     19  C   UNL     1       0.667   2.691  18.722  0.00  0.00    +0.000 A 
ATOM     20  C   UNL     1       0.993   2.981  20.043  0.00  0.00    +0.000 A 
ATOM     21  C   UNL     1       1.783   4.095  20.337  0.00  0.00    +0.000 A 
BRANCH  21  22
ATOM     22  O   UNL     1       2.117   4.335  21.641  0.00  0.00    +0.000 OA
ATOM     23  H   UNL     1       2.060   3.506  22.148  0.00  0.00    +0.000 HD
ENDBRANCH  21  22
ENDBRANCH   1  16
BRANCH   1  24
ATOM     24  N   UNL     1       4.395   6.110  18.766  0.00  0.00    +0.000 NA
ATOM     25  H   UNL     1       4.183   5.708  17.854  0.00  0.00    +0.000 HD
BRANCH  24  26
ATOM     26  C   UNL     1       5.490   5.362  19.403  0.00  0.00    +0.000 C 
BRANCH  26  27
ATOM     27  C   UNL     1       5.825   3.994  18.765  0.00  0.00    +0.000 C 
BRANCH  27  30
ATOM     28  C   UNL     1       6.738   4.142  16.519  0.00  0.00    +0.000 C 
ATOM     29  O   UNL     1       7.773   4.692  16.879  0.00  0.00    +0.000 OA
ATOM     30  N   UNL     1       5.663   3.932  17.325  0.00  0.00    +0.000 N 
ATOM     31  H   UNL     1       4.983   3.292  16.937  0.00  0.00    +0.000 HD
BRANCH  28  32
ATOM     32  O   UNL     1       6.521   3.611  15.292  0.00  0.00    +0.000 OA
BRANCH  32  34
ATOM     33  C   UNL     1       5.387   5.739  14.726  0.00  0.00    +0.000 C 
ATOM     34  C   UNL     1       6.157   4.510  14.212  0.00  0.00    +0.000 C 
ATOM     35  C   UNL     1       5.386   3.750  13.123  0.00  0.00    +0.000 C 
ATOM     36  C   UNL     1       7.481   5.005  13.612  0.00  0.00    +0.000 C 
ENDBRANCH  32  34
ENDBRANCH  28  32
ENDBRANCH  27  30
ENDBRANCH  26  27
ENDBRANCH  24  26
ENDBRANCH   1  24
TORSDOF 10
ENDMDL
MODEL 5
REMARK VINA RESULT:      -7.6      3.764      6.590
REMARK  Name = 
REMARK  13 active torsions:
REMARK  status: ('A' for Active; 'I' for Inactive)
REMARK    1  A    between atoms: C_1  and  C_2
REMARK    2  A    between atoms: C_2  and  C_3
REMARK    3  A    between atoms: C_2  and  C_4
REMARK    4  A    between atoms: C_2  and  O_5
REMARK    5  A    between atoms: O_5  and  C_6
REMARK    6  A    between atoms: N_8  and  C_9
REMARK    7  A    between atoms: C_9  and  C_10
REMARK    8  A    between atoms: C_10  and  N_11
REMARK    9  A    between atoms: N_11  and  C_12
REMARK   10  A    between atoms: C_12  and  C_13
REMARK   11  A    between atoms: C_12  and  C_26
REMARK   12  A    between atoms: C_14  and  O_15
REMARK   13  A    between atoms: C_31  and  O_32
REMARK                            x       y       z     vdW  Elec       q    Type
REMARK                         _______ _______ _______ _____ _____    ______ ____
ROOT
ATOM      1  C   UNL     1       6.751   5.499  16.423  0.00  0.00    +0.000 C 
ENDROOT
BRANCH   1   2
ATOM      2  C   UNL     1       5.447   5.657  17.197  0.00  0.00    +0.000 C 
ATOM      3  C   UNL     1       4.520   6.609  16.964  0.00  0.00    +0.000 C 
ATOM      4  C   UNL     1       3.370   6.825  17.892  0.00  0.00    +0.000 C 
ATOM      5  O   UNL     1       2.615   7.789  17.784  0.00  0.00    +0.000 OA
ATOM      6  C   UNL     1       3.131   5.832  18.947  0.00  0.00    +0.000 A 
ATOM      7  C   UNL     1       1.987   5.937  19.752  0.00  0.00    +0.000 A 
ATOM      8  C   UNL     1       1.687   4.938  20.678  0.00  0.00    +0.000 A 
ATOM      9  C   UNL     1       2.531   3.837  20.803  0.00  0.00    +0.000 A 
ATOM     10  C   UNL     1       3.699   3.759  20.039  0.00  0.00    +0.000 A 
ATOM     11  C   UNL     1       4.010   4.769  19.117  0.00  0.00    +0.000 A 
ATOM     12  C   UNL     1       5.263   4.714  18.340  0.00  0.00    +0.000 C 
ATOM     13  O   UNL     1       6.119   3.883  18.632  0.00  0.00    +0.000 OA
BRANCH   3  14
ATOM     14  O   UNL     1       4.587   7.474  15.884  0.00  0.00    +0.000 OA
ATOM     15  H   UNL     1       5.268   8.159  16.064  0.00  0.00    +0.000 HD
ENDBRANCH   3  14
ENDBRANCH   1   2
BRANCH   1  16
ATOM     16  C   UNL     1       6.522   4.847  15.051  0.00  0.00    +0.000 A 
ATOM     17  C   UNL     1       5.370   4.053  14.884  0.00  0.00    +0.000 A 
ATOM     18  C   UNL     1       5.073   3.457  13.656  0.00  0.00    +0.000 A 
ATOM     19  C   UNL     1       5.924   3.636  12.571  0.00  0.00    +0.000 A 
ATOM     20  C   UNL     1       7.075   4.405  12.710  0.00  0.00    +0.000 A 
ATOM     21  C   UNL     1       7.364   5.009  13.936  0.00  0.00    +0.000 A 
BRANCH  21  22
ATOM     22  O   UNL     1       8.484   5.788  14.035  0.00  0.00    +0.000 OA
ATOM     23  H   UNL     1       8.541   6.161  14.931  0.00  0.00    +0.000 HD
ENDBRANCH  21  22
ENDBRANCH   1  16
BRANCH   1  24
ATOM     24  N   UNL     1       7.516   6.763  16.315  0.00  0.00    +0.000 NA
ATOM     25  H   UNL     1       8.313   6.611  15.699  0.00  0.00    +0.000 HD
BRANCH  24  26
ATOM     26  C   UNL     1       7.972   7.318  17.599  0.00  0.00    +0.000 C 
BRANCH  26  27
ATOM     27  C   UNL     1       7.436   8.727  17.946  0.00  0.00    +0.000 C 
BRANCH  27  30
ATOM     28  C   UNL     1       9.195  10.309  18.498  0.00  0.00    +0.000 C 
ATOM     29  O   UNL     1       9.106  10.123  19.707  0.00  0.00    +0.000 OA
ATOM     30  N   UNL     1       8.313   9.824  17.584  0.00  0.00    +0.000 N 
ATOM     31  H   UNL     1       8.638   9.893  16.628  0.00  0.00    +0.000 HD
BRANCH  28  32
ATOM     32  O   UNL     1      10.200  10.974  17.880  0.00  0.00    +0.000 OA
BRANCH  32  34
ATOM     33  C   UNL     1      11.113  12.619  19.490  0.00  0.00    +0.000 C 
ATOM     34  C   UNL     1      10.364  12.388  18.167  0.00  0.00    +0.000 C 
ATOM     35  C   UNL     1       9.003  13.099  18.132  0.00  0.00    +0.000 C 
ATOM     36  C   UNL     1      11.233  12.949  17.032  0.00  0.00    +0.000 C 
ENDBRANCH  32  34
ENDBRANCH  28  32
ENDBRANCH  27  30
ENDBRANCH  26  27
ENDBRANCH  24  26
ENDBRANCH   1  24
TORSDOF 10
ENDMDL
MODEL 6
REMARK VINA RESULT:      -7.5      4.037      6.574
REMARK  Name = 
REMARK  13 active torsions:
REMARK  status: ('A' for Active; 'I' for Inactive)
REMARK    1  A    between atoms: C_1  and  C_2
REMARK    2  A    between atoms: C_2  and  C_3
REMARK    3  A    between atoms: C_2  and  C_4
REMARK    4  A    between atoms: C_2  and  O_5
REMARK    5  A    between atoms: O_5  and  C_6
REMARK    6  A    between atoms: N_8  and  C_9
REMARK    7  A    between atoms: C_9  and  C_10
REMARK    8  A    between atoms: C_10  and  N_11
REMARK    9  A    between atoms: N_11  and  C_12
REMARK   10  A    between atoms: C_12  and  C_13
REMARK   11  A    between atoms: C_12  and  C_26
REMARK   12  A    between atoms: C_14  and  O_15
REMARK   13  A    between atoms: C_31  and  O_32
REMARK                            x       y       z     vdW  Elec       q    Type
REMARK                         _______ _______ _______ _____ _____    ______ ____
ROOT
ATOM      1  C   UNL     1       6.063   6.178  17.749  0.00  0.00    +0.000 C 
ENDROOT
BRANCH   1   2
ATOM      2  C   UNL     1       4.757   5.832  18.455  0.00  0.00    +0.000 C 
ATOM      3  C   UNL     1       3.673   6.633  18.512  0.00  0.00    +0.000 C 
ATOM      4  C   UNL     1       2.509   6.313  19.393  0.00  0.00    +0.000 C 
ATOM      5  O   UNL     1       1.594   7.112  19.580  0.00  0.00    +0.000 OA
ATOM      6  C   UNL     1       2.459   4.990  20.026  0.00  0.00    +0.000 A 
ATOM      7  C   UNL     1       1.320   4.612  20.752  0.00  0.00    +0.000 A 
ATOM      8  C   UNL     1       1.209   3.317  21.259  0.00  0.00    +0.000 A 
ATOM      9  C   UNL     1       2.238   2.401  21.045  0.00  0.00    +0.000 A 
ATOM     10  C   UNL     1       3.396   2.795  20.368  0.00  0.00    +0.000 A 
ATOM     11  C   UNL     1       3.515   4.100  19.869  0.00  0.00    +0.000 A 
ATOM     12  C   UNL     1       4.752   4.533  19.192  0.00  0.00    +0.000 C 
ATOM     13  O   UNL     1       5.745   3.811  19.228  0.00  0.00    +0.000 OA
BRANCH   3  14
ATOM     14  O   UNL     1       3.577   7.818  17.802  0.00  0.00    +0.000 OA
ATOM     15  H   UNL     1       4.313   8.412  18.069  0.00  0.00    +0.000 HD
ENDBRANCH   3  14
ENDBRANCH   1   2
BRANCH   1  16
ATOM     16  C   UNL     1       6.171   5.486  16.382  0.00  0.00    +0.000 A 
ATOM     17  C   UNL     1       5.281   5.892  15.367  0.00  0.00    +0.000 A 
ATOM     18  C   UNL     1       5.340   5.336  14.087  0.00  0.00    +0.000 A 
ATOM     19  C   UNL     1       6.286   4.360  13.795  0.00  0.00    +0.000 A 
ATOM     20  C   UNL     1       7.169   3.931  14.781  0.00  0.00    +0.000 A 
ATOM     21  C   UNL     1       7.115   4.497  16.057  0.00  0.00    +0.000 A 
BRANCH  21  22
ATOM     22  O   UNL     1       8.018   4.080  16.996  0.00  0.00    +0.000 OA
ATOM     23  H   UNL     1       8.075   3.109  16.982  0.00  0.00    +0.000 HD
ENDBRANCH  21  22
ENDBRANCH   1  16
BRANCH   1  24
ATOM     24  N   UNL     1       6.299   7.637  17.652  0.00  0.00    +0.000 NA
ATOM     25  H   UNL     1       5.709   8.016  16.912  0.00  0.00    +0.000 HD
BRANCH  24  26
ATOM     26  C   UNL     1       7.701   8.021  17.422  0.00  0.00    +0.000 C 
BRANCH  26  27
ATOM     27  C   UNL     1       8.350   8.877  18.534  0.00  0.00    +0.000 C 
BRANCH  27  30
ATOM     28  C   UNL     1       9.714  10.842  18.962  0.00  0.00    +0.000 C 
ATOM     29  O   UNL     1       9.482  10.851  20.166  0.00  0.00    +0.000 OA
ATOM     30  N   UNL     1       9.071  10.046  18.066  0.00  0.00    +0.000 N 
ATOM     31  H   UNL     1       9.517  10.013  17.159  0.00  0.00    +0.000 HD
BRANCH  28  32
ATOM     32  O   UNL     1      10.671  11.574  18.344  0.00  0.00    +0.000 OA
BRANCH  32  34
ATOM     33  C   UNL     1       8.889  13.255  17.980  0.00  0.00    +0.000 C 
ATOM     34  C   UNL     1      10.398  12.976  18.082  0.00  0.00    +0.000 C 
ATOM     35  C   UNL     1      11.166  13.443  16.838  0.00  0.00    +0.000 C 
ATOM     36  C   UNL     1      10.934  13.744  19.299  0.00  0.00    +0.000 C 
ENDBRANCH  32  34
ENDBRANCH  28  32
ENDBRANCH  27  30
ENDBRANCH  26  27
ENDBRANCH  24  26
ENDBRANCH   1  24
TORSDOF 10
ENDMDL
MODEL 7
REMARK VINA RESULT:      -7.4      3.831      6.796
REMARK  Name = 
REMARK  13 active torsions:
REMARK  status: ('A' for Active; 'I' for Inactive)
REMARK    1  A    between atoms: C_1  and  C_2
REMARK    2  A    between atoms: C_2  and  C_3
REMARK    3  A    between atoms: C_2  and  C_4
REMARK    4  A    between atoms: C_2  and  O_5
REMARK    5  A    between atoms: O_5  and  C_6
REMARK    6  A    between atoms: N_8  and  C_9
REMARK    7  A    between atoms: C_9  and  C_10
REMARK    8  A    between atoms: C_10  and  N_11
REMARK    9  A    between atoms: N_11  and  C_12
REMARK   10  A    between atoms: C_12  and  C_13
REMARK   11  A    between atoms: C_12  and  C_26
REMARK   12  A    between atoms: C_14  and  O_15
REMARK   13  A    between atoms: C_31  and  O_32
REMARK                            x       y       z     vdW  Elec       q    Type
REMARK                         _______ _______ _______ _____ _____    ______ ____
ROOT
ATOM      1  C   UNL     1       6.407   5.615  16.885  0.00  0.00    +0.000 C 
ENDROOT
BRANCH   1   2
ATOM      2  C   UNL     1       5.125   5.519  17.705  0.00  0.00    +0.000 C 
ATOM      3  C   UNL     1       4.116   6.414  17.670  0.00  0.00    +0.000 C 
ATOM      4  C   UNL     1       2.989   6.361  18.650  0.00  0.00    +0.000 C 
ATOM      5  O   UNL     1       2.156   7.260  18.735  0.00  0.00    +0.000 OA
ATOM      6  C   UNL     1       2.873   5.179  19.513  0.00  0.00    +0.000 A 
ATOM      7  C   UNL     1       1.755   5.040  20.350  0.00  0.00    +0.000 A 
ATOM      8  C   UNL     1       1.573   3.869  21.086  0.00  0.00    +0.000 A 
ATOM      9  C   UNL     1       2.507   2.840  20.990  0.00  0.00    +0.000 A 
ATOM     10  C   UNL     1       3.647   3.001  20.197  0.00  0.00    +0.000 A 
ATOM     11  C   UNL     1       3.840   4.182  19.466  0.00  0.00    +0.000 A 
ATOM     12  C   UNL     1       5.062   4.374  18.663  0.00  0.00    +0.000 C 
ATOM     13  O   UNL     1       5.993   3.582  18.779  0.00  0.00    +0.000 OA
BRANCH   3  14
ATOM     14  O   UNL     1       4.072   7.460  16.763  0.00  0.00    +0.000 OA
ATOM     15  H   UNL     1       4.976   7.828  16.655  0.00  0.00    +0.000 HD
ENDBRANCH   3  14
ENDBRANCH   1   2
BRANCH   1  16
ATOM     16  C   UNL     1       6.254   4.946  15.511  0.00  0.00    +0.000 A 
ATOM     17  C   UNL     1       5.083   4.198  15.269  0.00  0.00    +0.000 A 
ATOM     18  C   UNL     1       4.854   3.591  14.033  0.00  0.00    +0.000 A 
ATOM     19  C   UNL     1       5.790   3.713  13.013  0.00  0.00    +0.000 A 
ATOM     20  C   UNL     1       6.961   4.434  13.227  0.00  0.00    +0.000 A 
ATOM     21  C   UNL     1       7.183   5.050  14.461  0.00  0.00    +0.000 A 
BRANCH  21  22
ATOM     22  O   UNL     1       8.326   5.781  14.631  0.00  0.00    +0.000 OA
ATOM     23  H   UNL     1       8.345   6.507  13.983  0.00  0.00    +0.000 HD
ENDBRANCH  21  22
ENDBRANCH   1  16
BRANCH   1  24
ATOM     24  N   UNL     1       6.920   7.000  16.773  0.00  0.00    +0.000 NA
ATOM     25  H   UNL     1       7.436   7.088  15.899  0.00  0.00    +0.000 HD
BRANCH  24  26
ATOM     26  C   UNL     1       7.759   7.439  17.899  0.00  0.00    +0.000 C 
BRANCH  26  27
ATOM     27  C   UNL     1       8.206   8.919  17.863  0.00  0.00    +0.000 C 
BRANCH  27  30
ATOM     28  C   UNL     1       9.589  10.540  19.029  0.00  0.00    +0.000 C 
ATOM     29  O   UNL     1      10.011  11.055  17.999  0.00  0.00    +0.000 OA
ATOM     30  N   UNL     1       8.862   9.392  19.067  0.00  0.00    +0.000 N 
ATOM     31  H   UNL     1       8.424   9.217  19.962  0.00  0.00    +0.000 HD
BRANCH  28  32
ATOM     32  O   UNL     1       9.730  11.053  20.275  0.00  0.00    +0.000 OA
BRANCH  32  34
ATOM     33  C   UNL     1       9.534  12.949  21.855  0.00  0.00    +0.000 C 
ATOM     34  C   UNL     1       9.825  12.495  20.415  0.00  0.00    +0.000 C 
ATOM     35  C   UNL     1       8.921  13.189  19.387  0.00  0.00    +0.000 C 
ATOM     36  C   UNL     1      11.284  12.854  20.098  0.00  0.00    +0.000 C 
ENDBRANCH  32  34
ENDBRANCH  28  32
ENDBRANCH  27  30
ENDBRANCH  26  27
ENDBRANCH  24  26
ENDBRANCH   1  24
TORSDOF 10
ENDMDL
MODEL 8
REMARK VINA RESULT:      -7.4      1.056      1.720
REMARK  Name = 
REMARK  13 active torsions:
REMARK  status: ('A' for Active; 'I' for Inactive)
REMARK    1  A    between atoms: C_1  and  C_2
REMARK    2  A    between atoms: C_2  and  C_3
REMARK    3  A    between atoms: C_2  and  C_4
REMARK    4  A    between atoms: C_2  and  O_5
REMARK    5  A    between atoms: O_5  and  C_6
REMARK    6  A    between atoms: N_8  and  C_9
REMARK    7  A    between atoms: C_9  and  C_10
REMARK    8  A    between atoms: C_10  and  N_11
REMARK    9  A    between atoms: N_11  and  C_12
REMARK   10  A    between atoms: C_12  and  C_13
REMARK   11  A    between atoms: C_12  and  C_26
REMARK   12  A    between atoms: C_14  and  O_15
REMARK   13  A    between atoms: C_31  and  O_32
REMARK                            x       y       z     vdW  Elec       q    Type
REMARK                         _______ _______ _______ _____ _____    ______ ____
ROOT
ATOM      1  C   UNL     1       3.494   5.706  19.456  0.00  0.00    +0.000 C 
ENDROOT
BRANCH   1   2
ATOM      2  C   UNL     1       2.690   6.985  19.252  0.00  0.00    +0.000 C 
ATOM      3  C   UNL     1       2.710   7.740  18.135  0.00  0.00    +0.000 C 
ATOM      4  C   UNL     1       2.056   9.083  18.086  0.00  0.00    +0.000 C 
ATOM      5  O   UNL     1       2.208   9.849  17.137  0.00  0.00    +0.000 OA
ATOM      6  C   UNL     1       1.189   9.475  19.204  0.00  0.00    +0.000 A 
ATOM      7  C   UNL     1       0.460  10.671  19.128  0.00  0.00    +0.000 A 
ATOM      8  C   UNL     1      -0.457  10.998  20.128  0.00  0.00    +0.000 A 
ATOM      9  C   UNL     1      -0.642  10.132  21.205  0.00  0.00    +0.000 A 
ATOM     10  C   UNL     1       0.124   8.967  21.306  0.00  0.00    +0.000 A 
ATOM     11  C   UNL     1       1.055   8.643  20.309  0.00  0.00    +0.000 A 
ATOM     12  C   UNL     1       1.896   7.437  20.434  0.00  0.00    +0.000 C 
ATOM     13  O   UNL     1       1.912   6.818  21.493  0.00  0.00    +0.000 OA
BRANCH   3  14
ATOM     14  O   UNL     1       3.367   7.353  16.978  0.00  0.00    +0.000 OA
ATOM     15  H   UNL     1       2.841   6.653  16.532  0.00  0.00    +0.000 HD
ENDBRANCH   3  14
ENDBRANCH   1   2
BRANCH   1  16
ATOM     16  C   UNL     1       2.666   4.454  19.129  0.00  0.00    +0.000 A 
ATOM     17  C   UNL     1       1.646   4.086  20.029  0.00  0.00    +0.000 A 
ATOM     18  C   UNL     1       0.826   2.983  19.783  0.00  0.00    +0.000 A 
ATOM     19  C   UNL     1       1.010   2.221  18.635  0.00  0.00    +0.000 A 
ATOM     20  C   UNL     1       2.017   2.553  17.735  0.00  0.00    +0.000 A 
ATOM     21  C   UNL     1       2.829   3.664  17.978  0.00  0.00    +0.000 A 
BRANCH  21  22
ATOM     22  O   UNL     1       3.788   3.987  17.058  0.00  0.00    +0.000 OA
ATOM     23  H   UNL     1       3.371   4.427  16.297  0.00  0.00    +0.000 HD
ENDBRANCH  21  22
ENDBRANCH   1  16
BRANCH   1  24
ATOM     24  N   UNL     1       4.790   5.716  18.739  0.00  0.00    +0.000 NA
ATOM     25  H   UNL     1       4.738   5.063  17.959  0.00  0.00    +0.000 HD
BRANCH  24  26
ATOM     26  C   UNL     1       5.960   5.408  19.575  0.00  0.00    +0.000 C 
BRANCH  26  27
ATOM     27  C   UNL     1       7.183   4.826  18.827  0.00  0.00    +0.000 C 
BRANCH  27  30
ATOM     28  C   UNL     1       7.329   5.111  16.418  0.00  0.00    +0.000 C 
ATOM     29  O   UNL     1       7.633   6.297  16.488  0.00  0.00    +0.000 OA
ATOM     30  N   UNL     1       6.914   4.366  17.477  0.00  0.00    +0.000 N 
ATOM     31  H   UNL     1       6.901   3.371  17.295  0.00  0.00    +0.000 HD
BRANCH  28  32
ATOM     32  O   UNL     1       7.408   4.346  15.303  0.00  0.00    +0.000 OA
BRANCH  32  34
ATOM     33  C   UNL     1       7.603   5.432  13.086  0.00  0.00    +0.000 C 
ATOM     34  C   UNL     1       6.678   4.777  14.125  0.00  0.00    +0.000 C 
ATOM     35  C   UNL     1       5.510   5.689  14.527  0.00  0.00    +0.000 C 
ATOM     36  C   UNL     1       6.101   3.499  13.498  0.00  0.00    +0.000 C 
ENDBRANCH  32  34
ENDBRANCH  28  32
ENDBRANCH  27  30
ENDBRANCH  26  27
ENDBRANCH  24  26
ENDBRANCH   1  24
TORSDOF 10
ENDMDL
MODEL 9
REMARK VINA RESULT:      -7.3      4.027      6.716
REMARK  Name = 
REMARK  13 active torsions:
REMARK  status: ('A' for Active; 'I' for Inactive)
REMARK    1  A    between atoms: C_1  and  C_2
REMARK    2  A    between atoms: C_2  and  C_3
REMARK    3  A    between atoms: C_2  and  C_4
REMARK    4  A    between atoms: C_2  and  O_5
REMARK    5  A    between atoms: O_5  and  C_6
REMARK    6  A    between atoms: N_8  and  C_9
REMARK    7  A    between atoms: C_9  and  C_10
REMARK    8  A    between atoms: C_10  and  N_11
REMARK    9  A    between atoms: N_11  and  C_12
REMARK   10  A    between atoms: C_12  and  C_13
REMARK   11  A    between atoms: C_12  and  C_26
REMARK   12  A    between atoms: C_14  and  O_15
REMARK   13  A    between atoms: C_31  and  O_32
REMARK                            x       y       z     vdW  Elec       q    Type
REMARK                         _______ _______ _______ _____ _____    ______ ____
ROOT
ATOM      1  C   UNL     1       6.079   6.194  17.765  0.00  0.00    +0.000 C 
ENDROOT
BRANCH   1   2
ATOM      2  C   UNL     1       4.777   5.843  18.476  0.00  0.00    +0.000 C 
ATOM      3  C   UNL     1       3.693   6.642  18.541  0.00  0.00    +0.000 C 
ATOM      4  C   UNL     1       2.533   6.316  19.425  0.00  0.00    +0.000 C 
ATOM      5  O   UNL     1       1.617   7.113  19.620  0.00  0.00    +0.000 OA
ATOM      6  C   UNL     1       2.488   4.990  20.053  0.00  0.00    +0.000 A 
ATOM      7  C   UNL     1       1.352   4.607  20.783  0.00  0.00    +0.000 A 
ATOM      8  C   UNL     1       1.246   3.310  21.285  0.00  0.00    +0.000 A 
ATOM      9  C   UNL     1       2.275   2.398  21.063  0.00  0.00    +0.000 A 
ATOM     10  C   UNL     1       3.430   2.796  20.382  0.00  0.00    +0.000 A 
ATOM     11  C   UNL     1       3.544   4.103  19.888  0.00  0.00    +0.000 A 
ATOM     12  C   UNL     1       4.778   4.540  19.207  0.00  0.00    +0.000 C 
ATOM     13  O   UNL     1       5.772   3.820  19.235  0.00  0.00    +0.000 OA
BRANCH   3  14
ATOM     14  O   UNL     1       3.592   7.829  17.835  0.00  0.00    +0.000 OA
ATOM     15  H   UNL     1       3.880   7.677  16.908  0.00  0.00    +0.000 HD
ENDBRANCH   3  14
ENDBRANCH   1   2
BRANCH   1  16
ATOM     16  C   UNL     1       6.182   5.508  16.394  0.00  0.00    +0.000 A 
ATOM     17  C   UNL     1       5.295   5.927  15.381  0.00  0.00    +0.000 A 
ATOM     18  C   UNL     1       5.350   5.379  14.098  0.00  0.00    +0.000 A 
ATOM     19  C   UNL     1       6.288   4.396  13.800  0.00  0.00    +0.000 A 
ATOM     20  C   UNL     1       7.167   3.954  14.784  0.00  0.00    +0.000 A 
ATOM     21  C   UNL     1       7.118   4.513  16.063  0.00  0.00    +0.000 A 
BRANCH  21  22
ATOM     22  O   UNL     1       8.017   4.084  17.000  0.00  0.00    +0.000 OA
ATOM     23  H   UNL     1       8.567   4.833  17.288  0.00  0.00    +0.000 HD
ENDBRANCH  21  22
ENDBRANCH   1  16
BRANCH   1  24
ATOM     24  N   UNL     1       6.314   7.653  17.674  0.00  0.00    +0.000 NA
ATOM     25  H   UNL     1       5.690   8.042  16.969  0.00  0.00    +0.000 HD
BRANCH  24  26
ATOM     26  C   UNL     1       7.704   8.037  17.381  0.00  0.00    +0.000 C 
BRANCH  26  27
ATOM     27  C   UNL     1       8.447   8.776  18.518  0.00  0.00    +0.000 C 
BRANCH  27  30
ATOM     28  C   UNL     1       9.402  10.908  19.186  0.00  0.00    +0.000 C 
ATOM     29  O   UNL     1       9.410  10.631  20.381  0.00  0.00    +0.000 OA
ATOM     30  N   UNL     1       8.790  10.156  18.232  0.00  0.00    +0.000 N 
ATOM     31  H   UNL     1       9.048  10.409  17.287  0.00  0.00    +0.000 HD
BRANCH  28  32
ATOM     32  O   UNL     1      10.037  11.963  18.622  0.00  0.00    +0.000 OA
BRANCH  32  34
ATOM     33  C   UNL     1      12.250  11.723  19.707  0.00  0.00    +0.000 C 
ATOM     34  C   UNL     1      11.057  12.643  19.400  0.00  0.00    +0.000 C 
ATOM     35  C   UNL     1      10.442  13.249  20.669  0.00  0.00    +0.000 C 
ATOM     36  C   UNL     1      11.567  13.789  18.514  0.00  0.00    +0.000 C 
ENDBRANCH  32  34
ENDBRANCH  28  32
ENDBRANCH  27  30
ENDBRANCH  26  27
ENDBRANCH  24  26
ENDBRANCH   1  24
TORSDOF 10
ENDMDL
