MODEL 1
REMARK VINA RESULT:      -6.6      0.000      0.000
REMARK  Name = 
REMARK  6 active torsions:
REMARK  status: ('A' for Active; 'I' for Inactive)
REMARK    1  A    between atoms: N_1  and  C_2
REMARK    2  A    between atoms: C_2  and  C_3
REMARK    3  A    between atoms: C_3  and  C_4
REMARK    4  A    between atoms: C_4  and  P_5
REMARK    5  A    between atoms: P_5  and  C_6
REMARK    6  A    between atoms: P_5  and  C_12
REMARK                            x       y       z     vdW  Elec       q    Type
REMARK                         _______ _______ _______ _____ _____    ______ ____
ROOT
ATOM      1  P   UNL     1       5.761   3.889  16.363  0.00  0.00    +0.000 P 
ENDROOT
BRANCH   1   2
ATOM      2  C   UNL     1       6.671   5.229  17.211  0.00  0.00    +0.000 A 
ATOM      3  C   UNL     1       6.824   6.509  16.657  0.00  0.00    +0.000 A 
ATOM      4  C   UNL     1       7.542   7.499  17.332  0.00  0.00    +0.000 A 
ATOM      5  C   UNL     1       8.121   7.222  18.568  0.00  0.00    +0.000 A 
ATOM      6  C   UNL     1       7.978   5.956  19.132  0.00  0.00    +0.000 A 
ATOM      7  C   UNL     1       7.257   4.966  18.458  0.00  0.00    +0.000 A 
ENDBRANCH   1   2
BRANCH   1   8
ATOM      8  C   UNL     1       4.103   4.018  17.137  0.00  0.00    +0.000 A 
ATOM      9  C   UNL     1       3.543   5.248  17.513  0.00  0.00    +0.000 A 
ATOM     10  C   UNL     1       2.274   5.316  18.098  0.00  0.00    +0.000 A 
ATOM     11  C   UNL     1       1.534   4.156  18.303  0.00  0.00    +0.000 A 
ATOM     12  C   UNL     1       2.058   2.927  17.913  0.00  0.00    +0.000 A 
ATOM     13  C   UNL     1       3.327   2.861  17.329  0.00  0.00    +0.000 A 
ENDBRANCH   1   8
BRANCH   1  14
ATOM     14  C   UNL     1       5.494   4.644  14.688  0.00  0.00    +0.000 C 
BRANCH  14  15
ATOM     15  C   UNL     1       6.349   3.992  13.597  0.00  0.00    +0.000 C 
BRANCH  15  16
ATOM     16  C   UNL     1       5.504   3.374  12.481  0.00  0.00    +0.000 C 
BRANCH  16  17
ATOM     17  N   UNL     1       6.162   2.223  11.874  0.00  0.00    +0.000 NA
ATOM     18  H   UNL     1       5.509   1.441  11.832  0.00  0.00    +0.000 HD
ATOM     19  H   UNL     1       6.935   1.919  12.466  0.00  0.00    +0.000 HD
ENDBRANCH  16  17
ENDBRANCH  15  16
ENDBRANCH  14  15
ENDBRANCH   1  14
TORSDOF 6
ENDMDL
MODEL 2
REMARK VINA RESULT:      -6.6      0.137      1.174
REMARK  Name = 
REMARK  6 active torsions:
REMARK  status: ('A' for Active; 'I' for Inactive)
REMARK    1  A    between atoms: N_1  and  C_2
REMARK    2  A    between atoms: C_2  and  C_3
REMARK    3  A    between atoms: C_3  and  C_4
REMARK    4  A    between atoms: C_4  and  P_5
REMARK    5  A    between atoms: P_5  and  C_6
REMARK    6  A    between atoms: P_5  and  C_12
REMARK                            x       y       z     vdW  Elec       q    Type
REMARK                         _______ _______ _______ _____ _____    ______ ____
ROOT
ATOM      1  P   UNL     1       5.732   3.814  16.347  0.00  0.00    +0.000 P 
ENDROOT
BRANCH   1   2
ATOM      2  C   UNL     1       6.624   5.169  17.190  0.00  0.00    +0.000 A 
ATOM      3  C   UNL     1       6.779   6.442  16.620  0.00  0.00    +0.000 A 
ATOM      4  C   UNL     1       7.482   7.445  17.292  0.00  0.00    +0.000 A 
ATOM      5  C   UNL     1       8.045   7.188  18.539  0.00  0.00    +0.000 A 
ATOM      6  C   UNL     1       7.899   5.929  19.119  0.00  0.00    +0.000 A 
ATOM      7  C   UNL     1       7.193   4.927  18.448  0.00  0.00    +0.000 A 
ENDBRANCH   1   2
BRANCH   1   8
ATOM      8  C   UNL     1       4.069   3.930  17.114  0.00  0.00    +0.000 A 
ATOM      9  C   UNL     1       3.284   2.798  17.379  0.00  0.00    +0.000 A 
ATOM     10  C   UNL     1       2.020   2.917  17.968  0.00  0.00    +0.000 A 
ATOM     11  C   UNL     1       1.525   4.170  18.317  0.00  0.00    +0.000 A 
ATOM     12  C   UNL     1       2.298   5.304  18.087  0.00  0.00    +0.000 A 
ATOM     13  C   UNL     1       3.560   5.183  17.498  0.00  0.00    +0.000 A 
ENDBRANCH   1   8
BRANCH   1  14
ATOM     14  C   UNL     1       5.463   4.554  14.666  0.00  0.00    +0.000 C 
BRANCH  14  15
ATOM     15  C   UNL     1       6.490   4.078  13.634  0.00  0.00    +0.000 C 
BRANCH  15  16
ATOM     16  C   UNL     1       5.836   3.594  12.338  0.00  0.00    +0.000 C 
BRANCH  16  17
ATOM     17  N   UNL     1       6.193   2.214  12.031  0.00  0.00    +0.000 NA
ATOM     18  H   UNL     1       5.405   1.603  12.244  0.00  0.00    +0.000 HD
ATOM     19  H   UNL     1       6.959   1.915  12.636  0.00  0.00    +0.000 HD
ENDBRANCH  16  17
ENDBRANCH  15  16
ENDBRANCH  14  15
ENDBRANCH   1  14
TORSDOF 6
ENDMDL
MODEL 3
REMARK VINA RESULT:      -6.6      1.927      5.009
REMARK  Name = 
REMARK  6 active torsions:
REMARK  status: ('A' for Active; 'I' for Inactive)
REMARK    1  A    between atoms: N_1  and  C_2
REMARK    2  A    between atoms: C_2  and  C_3
REMARK    3  A    between atoms: C_3  and  C_4
REMARK    4  A    between atoms: C_4  and  P_5
REMARK    5  A    between atoms: P_5  and  C_6
REMARK    6  A    between atoms: P_5  and  C_12
REMARK                            x       y       z     vdW  Elec       q    Type
REMARK                         _______ _______ _______ _____ _____    ______ ____
ROOT
ATOM      1  P   UNL     1       4.146   5.292  17.322  0.00  0.00    +0.000 P 
ENDROOT
BRANCH   1   2
ATOM      2  C   UNL     1       3.448   4.592  18.859  0.00  0.00    +0.000 A 
ATOM      3  C   UNL     1       3.592   3.241  19.210  0.00  0.00    +0.000 A 
ATOM      4  C   UNL     1       3.028   2.744  20.387  0.00  0.00    +0.000 A 
ATOM      5  C   UNL     1       2.309   3.589  21.228  0.00  0.00    +0.000 A 
ATOM      6  C   UNL     1       2.157   4.933  20.895  0.00  0.00    +0.000 A 
ATOM      7  C   UNL     1       2.724   5.432  19.718  0.00  0.00    +0.000 A 
ENDBRANCH   1   2
BRANCH   1   8
ATOM      8  C   UNL     1       5.763   5.934  17.905  0.00  0.00    +0.000 A 
ATOM      9  C   UNL     1       6.470   5.340  18.960  0.00  0.00    +0.000 A 
ATOM     10  C   UNL     1       7.703   5.850  19.382  0.00  0.00    +0.000 A 
ATOM     11  C   UNL     1       8.259   6.956  18.744  0.00  0.00    +0.000 A 
ATOM     12  C   UNL     1       7.586   7.546  17.678  0.00  0.00    +0.000 A 
ATOM     13  C   UNL     1       6.354   7.035  17.259  0.00  0.00    +0.000 A 
ENDBRANCH   1   8
BRANCH   1  14
ATOM     14  C   UNL     1       4.623   3.746  16.410  0.00  0.00    +0.000 C 
BRANCH  14  15
ATOM     15  C   UNL     1       6.048   3.799  15.850  0.00  0.00    +0.000 C 
BRANCH  15  16
ATOM     16  C   UNL     1       6.121   4.523  14.505  0.00  0.00    +0.000 C 
BRANCH  16  17
ATOM     17  N   UNL     1       7.376   5.249  14.345  0.00  0.00    +0.000 NA
ATOM     18  H   UNL     1       8.146   4.679  14.696  0.00  0.00    +0.000 HD
ATOM     19  H   UNL     1       7.360   6.091  14.919  0.00  0.00    +0.000 HD
ENDBRANCH  16  17
ENDBRANCH  15  16
ENDBRANCH  14  15
ENDBRANCH   1  14
TORSDOF 6
ENDMDL
MODEL 4
REMARK VINA RESULT:      -6.5      3.543      6.083
REMARK  Name = 
REMARK  6 active torsions:
REMARK  status: ('A' for Active; 'I' for Inactive)
REMARK    1  A    between atoms: N_1  and  C_2
REMARK    2  A    between atoms: C_2  and  C_3
REMARK    3  A    between atoms: C_3  and  C_4
REMARK    4  A    between atoms: C_4  and  P_5
REMARK    5  A    between atoms: P_5  and  C_6
REMARK    6  A    between atoms: P_5  and  C_12
REMARK                            x       y       z     vdW  Elec       q    Type
REMARK                         _______ _______ _______ _____ _____    ______ ____
ROOT
ATOM      1  P   UNL     1       3.590   5.640  18.105  0.00  0.00    +0.000 P 
ENDROOT
BRANCH   1   2
ATOM      2  C   UNL     1       2.615   4.337  18.936  0.00  0.00    +0.000 A 
ATOM      3  C   UNL     1       2.857   3.938  20.260  0.00  0.00    +0.000 A 
ATOM      4  C   UNL     1       2.098   2.925  20.851  0.00  0.00    +0.000 A 
ATOM      5  C   UNL     1       1.090   2.293  20.128  0.00  0.00    +0.000 A 
ATOM      6  C   UNL     1       0.837   2.678  18.813  0.00  0.00    +0.000 A 
ATOM      7  C   UNL     1       1.594   3.693  18.221  0.00  0.00    +0.000 A 
ENDBRANCH   1   2
BRANCH   1   8
ATOM      8  C   UNL     1       2.660   7.153  18.568  0.00  0.00    +0.000 A 
ATOM      9  C   UNL     1       2.117   7.338  19.848  0.00  0.00    +0.000 A 
ATOM     10  C   UNL     1       1.415   8.504  20.173  0.00  0.00    +0.000 A 
ATOM     11  C   UNL     1       1.257   9.514  19.228  0.00  0.00    +0.000 A 
ATOM     12  C   UNL     1       1.809   9.362  17.960  0.00  0.00    +0.000 A 
ATOM     13  C   UNL     1       2.510   8.196  17.637  0.00  0.00    +0.000 A 
ENDBRANCH   1   8
BRANCH   1  14
ATOM     14  C   UNL     1       5.084   5.724  19.204  0.00  0.00    +0.000 C 
BRANCH  14  15
ATOM     15  C   UNL     1       6.326   5.090  18.569  0.00  0.00    +0.000 C 
BRANCH  15  16
ATOM     16  C   UNL     1       7.622   5.772  19.011  0.00  0.00    +0.000 C 
BRANCH  16  17
ATOM     17  N   UNL     1       7.976   5.431  20.385  0.00  0.00    +0.000 NA
ATOM     18  H   UNL     1       7.269   4.806  20.772  0.00  0.00    +0.000 HD
ATOM     19  H   UNL     1       7.961   6.273  20.961  0.00  0.00    +0.000 HD
ENDBRANCH  16  17
ENDBRANCH  15  16
ENDBRANCH  14  15
ENDBRANCH   1  14
TORSDOF 6
ENDMDL
MODEL 5
REMARK VINA RESULT:      -6.4      3.666      6.416
REMARK  Name = 
REMARK  6 active torsions:
REMARK  status: ('A' for Active; 'I' for Inactive)
REMARK    1  A    between atoms: N_1  and  C_2
REMARK    2  A    between atoms: C_2  and  C_3
REMARK    3  A    between atoms: C_3  and  C_4
REMARK    4  A    between atoms: C_4  and  P_5
REMARK    5  A    between atoms: P_5  and  C_6
REMARK    6  A    between atoms: P_5  and  C_12
REMARK                            x       y       z     vdW  Elec       q    Type
REMARK                         _______ _______ _______ _____ _____    ______ ____
ROOT
ATOM      1  P   UNL     1       3.278   5.362  18.242  0.00  0.00    +0.000 P 
ENDROOT
BRANCH   1   2
ATOM      2  C   UNL     1       2.482   6.920  18.769  0.00  0.00    +0.000 A 
ATOM      3  C   UNL     1       2.085   7.158  20.094  0.00  0.00    +0.000 A 
ATOM      4  C   UNL     1       1.465   8.357  20.451  0.00  0.00    +0.000 A 
ATOM      5  C   UNL     1       1.227   9.335  19.488  0.00  0.00    +0.000 A 
ATOM      6  C   UNL     1       1.615   9.115  18.168  0.00  0.00    +0.000 A 
ATOM      7  C   UNL     1       2.239   7.916  17.811  0.00  0.00    +0.000 A 
ENDBRANCH   1   2
BRANCH   1   8
ATOM      8  C   UNL     1       5.055   5.813  18.301  0.00  0.00    +0.000 A 
ATOM      9  C   UNL     1       5.932   5.289  19.262  0.00  0.00    +0.000 A 
ATOM     10  C   UNL     1       7.284   5.649  19.280  0.00  0.00    +0.000 A 
ATOM     11  C   UNL     1       7.787   6.528  18.326  0.00  0.00    +0.000 A 
ATOM     12  C   UNL     1       6.941   7.041  17.348  0.00  0.00    +0.000 A 
ATOM     13  C   UNL     1       5.591   6.680  17.331  0.00  0.00    +0.000 A 
ENDBRANCH   1   8
BRANCH   1  14
ATOM     14  C   UNL     1       3.067   4.321  19.764  0.00  0.00    +0.000 C 
BRANCH  14  15
ATOM     15  C   UNL     1       1.815   3.439  19.715  0.00  0.00    +0.000 C 
BRANCH  15  16
ATOM     16  C   UNL     1       1.357   2.994  21.105  0.00  0.00    +0.000 C 
BRANCH  16  17
ATOM     17  N   UNL     1       2.484   2.742  21.994  0.00  0.00    +0.000 NA
ATOM     18  H   UNL     1       2.465   1.770  22.302  0.00  0.00    +0.000 HD
ATOM     19  H   UNL     1       2.390   3.310  22.836  0.00  0.00    +0.000 HD
ENDBRANCH  16  17
ENDBRANCH  15  16
ENDBRANCH  14  15
ENDBRANCH   1  14
TORSDOF 6
ENDMDL
MODEL 6
REMARK VINA RESULT:      -6.4      1.975      4.982
REMARK  Name = 
REMARK  6 active torsions:
REMARK  status: ('A' for Active; 'I' for Inactive)
REMARK    1  A    between atoms: N_1  and  C_2
REMARK    2  A    between atoms: C_2  and  C_3
REMARK    3  A    between atoms: C_3  and  C_4
REMARK    4  A    between atoms: C_4  and  P_5
REMARK    5  A    between atoms: P_5  and  C_6
REMARK    6  A    between atoms: P_5  and  C_12
REMARK                            x       y       z     vdW  Elec       q    Type
REMARK                         _______ _______ _______ _____ _____    ______ ____
ROOT
ATOM      1  P   UNL     1       4.089   5.461  17.412  0.00  0.00    +0.000 P 
ENDROOT
BRANCH   1   2
ATOM      2  C   UNL     1       3.431   4.637  18.905  0.00  0.00    +0.000 A 
ATOM      3  C   UNL     1       2.741   5.331  19.912  0.00  0.00    +0.000 A 
ATOM      4  C   UNL     1       2.269   4.664  21.045  0.00  0.00    +0.000 A 
ATOM      5  C   UNL     1       2.484   3.296  21.190  0.00  0.00    +0.000 A 
ATOM      6  C   UNL     1       3.166   2.593  20.200  0.00  0.00    +0.000 A 
ATOM      7  C   UNL     1       3.636   3.259  19.065  0.00  0.00    +0.000 A 
ENDBRANCH   1   2
BRANCH   1   8
ATOM      8  C   UNL     1       5.739   6.017  17.991  0.00  0.00    +0.000 A 
ATOM      9  C   UNL     1       6.431   5.367  19.023  0.00  0.00    +0.000 A 
ATOM     10  C   UNL     1       7.691   5.811  19.441  0.00  0.00    +0.000 A 
ATOM     11  C   UNL     1       8.288   6.904  18.822  0.00  0.00    +0.000 A 
ATOM     12  C   UNL     1       7.631   7.549  17.778  0.00  0.00    +0.000 A 
ATOM     13  C   UNL     1       6.373   7.104  17.362  0.00  0.00    +0.000 A 
ENDBRANCH   1   8
BRANCH   1  14
ATOM     14  C   UNL     1       4.497   3.997  16.347  0.00  0.00    +0.000 C 
BRANCH  14  15
ATOM     15  C   UNL     1       5.223   4.384  15.054  0.00  0.00    +0.000 C 
BRANCH  15  16
ATOM     16  C   UNL     1       6.733   4.156  15.140  0.00  0.00    +0.000 C 
BRANCH  16  17
ATOM     17  N   UNL     1       7.484   5.249  14.535  0.00  0.00    +0.000 NA
ATOM     18  H   UNL     1       8.034   5.722  15.252  0.00  0.00    +0.000 HD
ATOM     19  H   UNL     1       6.837   5.946  14.165  0.00  0.00    +0.000 HD
ENDBRANCH  16  17
ENDBRANCH  15  16
ENDBRANCH  14  15
ENDBRANCH   1  14
TORSDOF 6
ENDMDL
MODEL 7
REMARK VINA RESULT:      -6.4      3.380      6.333
REMARK  Name = 
REMARK  6 active torsions:
REMARK  status: ('A' for Active; 'I' for Inactive)
REMARK    1  A    between atoms: N_1  and  C_2
REMARK    2  A    between atoms: C_2  and  C_3
REMARK    3  A    between atoms: C_3  and  C_4
REMARK    4  A    between atoms: C_4  and  P_5
REMARK    5  A    between atoms: P_5  and  C_6
REMARK    6  A    between atoms: P_5  and  C_12
REMARK                            x       y       z     vdW  Elec       q    Type
REMARK                         _______ _______ _______ _____ _____    ______ ____
ROOT
ATOM      1  P   UNL     1       3.822   6.319  18.964  0.00  0.00    +0.000 P 
ENDROOT
BRANCH   1   2
ATOM      2  C   UNL     1       2.678   4.901  19.109  0.00  0.00    +0.000 A 
ATOM      3  C   UNL     1       2.524   3.945  18.093  0.00  0.00    +0.000 A 
ATOM      4  C   UNL     1       1.626   2.885  18.240  0.00  0.00    +0.000 A 
ATOM      5  C   UNL     1       0.867   2.767  19.401  0.00  0.00    +0.000 A 
ATOM      6  C   UNL     1       1.009   3.707  20.419  0.00  0.00    +0.000 A 
ATOM      7  C   UNL     1       1.909   4.767  20.275  0.00  0.00    +0.000 A 
ENDBRANCH   1   2
BRANCH   1   8
ATOM      8  C   UNL     1       5.034   5.696  17.736  0.00  0.00    +0.000 A 
ATOM      9  C   UNL     1       4.899   5.935  16.360  0.00  0.00    +0.000 A 
ATOM     10  C   UNL     1       5.842   5.450  15.446  0.00  0.00    +0.000 A 
ATOM     11  C   UNL     1       6.946   4.730  15.895  0.00  0.00    +0.000 A 
ATOM     12  C   UNL     1       7.113   4.503  17.257  0.00  0.00    +0.000 A 
ATOM     13  C   UNL     1       6.170   4.989  18.168  0.00  0.00    +0.000 A 
ENDBRANCH   1   8
BRANCH   1  14
ATOM     14  C   UNL     1       2.797   7.503  17.966  0.00  0.00    +0.000 C 
BRANCH  14  15
ATOM     15  C   UNL     1       1.892   8.385  18.833  0.00  0.00    +0.000 C 
BRANCH  15  16
ATOM     16  C   UNL     1       1.179   9.468  18.022  0.00  0.00    +0.000 C 
BRANCH  16  17
ATOM     17  N   UNL     1       2.105  10.491  17.549  0.00  0.00    +0.000 NA
ATOM     18  H   UNL     1       1.818  11.401  17.908  0.00  0.00    +0.000 HD
ATOM     19  H   UNL     1       2.053  10.555  16.532  0.00  0.00    +0.000 HD
ENDBRANCH  16  17
ENDBRANCH  15  16
ENDBRANCH  14  15
ENDBRANCH   1  14
TORSDOF 6
ENDMDL
MODEL 8
REMARK VINA RESULT:      -6.4      3.595      6.109
REMARK  Name = 
REMARK  6 active torsions:
REMARK  status: ('A' for Active; 'I' for Inactive)
REMARK    1  A    between atoms: N_1  and  C_2
REMARK    2  A    between atoms: C_2  and  C_3
REMARK    3  A    between atoms: C_3  and  C_4
REMARK    4  A    between atoms: C_4  and  P_5
REMARK    5  A    between atoms: P_5  and  C_6
REMARK    6  A    between atoms: P_5  and  C_12
REMARK                            x       y       z     vdW  Elec       q    Type
REMARK                         _______ _______ _______ _____ _____    ______ ____
ROOT
ATOM      1  P   UNL     1       3.434   5.387  17.935  0.00  0.00    +0.000 P 
ENDROOT
BRANCH   1   2
ATOM      2  C   UNL     1       2.588   6.876  18.574  0.00  0.00    +0.000 A 
ATOM      3  C   UNL     1       2.304   7.990  17.768  0.00  0.00    +0.000 A 
ATOM      4  C   UNL     1       1.670   9.115  18.302  0.00  0.00    +0.000 A 
ATOM      5  C   UNL     1       1.315   9.144  19.648  0.00  0.00    +0.000 A 
ATOM      6  C   UNL     1       1.589   8.046  20.461  0.00  0.00    +0.000 A 
ATOM      7  C   UNL     1       2.221   6.920  19.927  0.00  0.00    +0.000 A 
ENDBRANCH   1   2
BRANCH   1   8
ATOM      8  C   UNL     1       5.199   5.852  18.124  0.00  0.00    +0.000 A 
ATOM      9  C   UNL     1       5.831   6.764  17.267  0.00  0.00    +0.000 A 
ATOM     10  C   UNL     1       7.178   7.103  17.438  0.00  0.00    +0.000 A 
ATOM     11  C   UNL     1       7.913   6.547  18.480  0.00  0.00    +0.000 A 
ATOM     12  C   UNL     1       7.300   5.659  19.359  0.00  0.00    +0.000 A 
ATOM     13  C   UNL     1       5.954   5.322  19.186  0.00  0.00    +0.000 A 
ENDBRANCH   1   8
BRANCH   1  14
ATOM     14  C   UNL     1       3.169   4.198  19.336  0.00  0.00    +0.000 C 
BRANCH  14  15
ATOM     15  C   UNL     1       2.018   3.220  19.078  0.00  0.00    +0.000 C 
BRANCH  15  16
ATOM     16  C   UNL     1       0.835   3.447  20.022  0.00  0.00    +0.000 C 
BRANCH  16  17
ATOM     17  N   UNL     1       1.050   2.824  21.323  0.00  0.00    +0.000 NA
ATOM     18  H   UNL     1       1.939   2.324  21.318  0.00  0.00    +0.000 HD
ATOM     19  H   UNL     1       0.329   2.123  21.490  0.00  0.00    +0.000 HD
ENDBRANCH  16  17
ENDBRANCH  15  16
ENDBRANCH  14  15
ENDBRANCH   1  14
TORSDOF 6
ENDMDL
MODEL 9
REMARK VINA RESULT:      -6.4      3.151      4.936
REMARK  Name = 
REMARK  6 active torsions:
REMARK  status: ('A' for Active; 'I' for Inactive)
REMARK    1  A    between atoms: N_1  and  C_2
REMARK    2  A    between atoms: C_2  and  C_3
REMARK    3  A    between atoms: C_3  and  C_4
REMARK    4  A    between atoms: C_4  and  P_5
REMARK    5  A    between atoms: P_5  and  C_6
REMARK    6  A    between atoms: P_5  and  C_12
REMARK                            x       y       z     vdW  Elec       q    Type
REMARK                         _______ _______ _______ _____ _____    ______ ____
ROOT
ATOM      1  P   UNL     1       3.686   5.994  19.113  0.00  0.00    +0.000 P 
ENDROOT
BRANCH   1   2
ATOM      2  C   UNL     1       2.580   7.448  19.033  0.00  0.00    +0.000 A 
ATOM      3  C   UNL     1       2.422   8.215  17.868  0.00  0.00    +0.000 A 
ATOM      4  C   UNL     1       1.579   9.328  17.855  0.00  0.00    +0.000 A 
ATOM      5  C   UNL     1       0.885   9.693  19.006  0.00  0.00    +0.000 A 
ATOM      6  C   UNL     1       1.031   8.942  20.170  0.00  0.00    +0.000 A 
ATOM      7  C   UNL     1       1.873   7.826  20.183  0.00  0.00    +0.000 A 
ENDBRANCH   1   2
BRANCH   1   8
ATOM      8  C   UNL     1       2.487   4.628  19.366  0.00  0.00    +0.000 A 
ATOM      9  C   UNL     1       1.866   3.967  18.296  0.00  0.00    +0.000 A 
ATOM     10  C   UNL     1       0.958   2.925  18.519  0.00  0.00    +0.000 A 
ATOM     11  C   UNL     1       0.667   2.516  19.817  0.00  0.00    +0.000 A 
ATOM     12  C   UNL     1       1.291   3.141  20.892  0.00  0.00    +0.000 A 
ATOM     13  C   UNL     1       2.198   4.181  20.668  0.00  0.00    +0.000 A 
ENDBRANCH   1   8
BRANCH   1  14
ATOM     14  C   UNL     1       4.156   5.804  17.327  0.00  0.00    +0.000 C 
BRANCH  14  15
ATOM     15  C   UNL     1       5.234   4.738  17.105  0.00  0.00    +0.000 C 
BRANCH  15  16
ATOM     16  C   UNL     1       6.166   4.588  18.309  0.00  0.00    +0.000 C 
BRANCH  16  17
ATOM     17  N   UNL     1       7.549   4.363  17.902  0.00  0.00    +0.000 NA
ATOM     18  H   UNL     1       8.088   4.029  18.700  0.00  0.00    +0.000 HD
ATOM     19  H   UNL     1       7.971   5.247  17.620  0.00  0.00    +0.000 HD
ENDBRANCH  16  17
ENDBRANCH  15  16
ENDBRANCH  14  15
ENDBRANCH   1  14
TORSDOF 6
ENDMDL
