MODEL 1
REMARK VINA RESULT:      -7.4      0.000      0.000
REMARK  Name = 
REMARK  1 active torsions:
REMARK  status: ('A' for Active; 'I' for Inactive)
REMARK    1  A    between atoms: C_3  and  C_4
REMARK                            x       y       z     vdW  Elec       q    Type
REMARK                         _______ _______ _______ _____ _____    ______ ____
ROOT
ATOM      1  O   UNL     1       6.215   4.700  19.481  0.00  0.00    +0.000 OA
ATOM      2  C   UNL     1       5.525   4.345  18.419  0.00  0.00    +0.000 A 
ATOM      3  C   UNL     1       4.223   3.834  18.364  0.00  0.00    +0.000 A 
ATOM      4  O   UNL     1       3.895   3.630  17.012  0.00  0.00    +0.000 OA
ATOM      5  C   UNL     1       5.017   4.056  16.343  0.00  0.00    +0.000 A 
ATOM      6  C   UNL     1       5.163   4.068  14.953  0.00  0.00    +0.000 A 
ATOM      7  C   UNL     1       6.371   4.575  14.437  0.00  0.00    +0.000 A 
ATOM      8  C   UNL     1       7.398   5.049  15.264  0.00  0.00    +0.000 A 
ATOM      9  C   UNL     1       7.254   5.024  16.645  0.00  0.00    +0.000 A 
ATOM     10  N   UNL     1       5.977   4.483  17.136  0.00  0.00    +0.000 N 
ENDROOT
BRANCH   3  11
ATOM     11  C   UNL     1       3.174   3.523  19.336  0.00  0.00    +0.000 A 
ATOM     12  C   UNL     1       1.868   4.011  19.177  0.00  0.00    +0.000 A 
ATOM     13  C   UNL     1       0.900   3.803  20.167  0.00  0.00    +0.000 A 
ATOM     14  C   UNL     1       1.221   3.092  21.321  0.00  0.00    +0.000 A 
ATOM     15  C   UNL     1       2.502   2.570  21.477  0.00  0.00    +0.000 A 
ATOM     16  C   UNL     1       3.466   2.781  20.490  0.00  0.00    +0.000 A 
ENDBRANCH   3  11
TORSDOF 1
ENDMDL
MODEL 2
REMARK VINA RESULT:      -7.4      0.128      1.209
REMARK  Name = 
REMARK  1 active torsions:
REMARK  status: ('A' for Active; 'I' for Inactive)
REMARK    1  A    between atoms: C_3  and  C_4
REMARK                            x       y       z     vdW  Elec       q    Type
REMARK                         _______ _______ _______ _____ _____    ______ ____
ROOT
ATOM      1  O   UNL     1       6.335   4.608  19.442  0.00  0.00    +0.000 OA
ATOM      2  C   UNL     1       5.571   4.323  18.410  0.00  0.00    +0.000 A 
ATOM      3  C   UNL     1       4.234   3.914  18.410  0.00  0.00    +0.000 A 
ATOM      4  O   UNL     1       3.828   3.756  17.073  0.00  0.00    +0.000 OA
ATOM      5  C   UNL     1       4.947   4.107  16.356  0.00  0.00    +0.000 A 
ATOM      6  C   UNL     1       5.029   4.130  14.962  0.00  0.00    +0.000 A 
ATOM      7  C   UNL     1       6.247   4.551  14.395  0.00  0.00    +0.000 A 
ATOM      8  C   UNL     1       7.345   4.933  15.178  0.00  0.00    +0.000 A 
ATOM      9  C   UNL     1       7.263   4.897  16.564  0.00  0.00    +0.000 A 
ATOM     10  N   UNL     1       5.973   4.447  17.108  0.00  0.00    +0.000 N 
ENDROOT
BRANCH   3  11
ATOM     11  C   UNL     1       3.210   3.667  19.427  0.00  0.00    +0.000 A 
ATOM     12  C   UNL     1       3.468   2.846  20.535  0.00  0.00    +0.000 A 
ATOM     13  C   UNL     1       2.451   2.525  21.442  0.00  0.00    +0.000 A 
ATOM     14  C   UNL     1       1.166   3.033  21.261  0.00  0.00    +0.000 A 
ATOM     15  C   UNL     1       0.903   3.878  20.187  0.00  0.00    +0.000 A 
ATOM     16  C   UNL     1       1.918   4.194  19.282  0.00  0.00    +0.000 A 
ENDBRANCH   3  11
TORSDOF 1
ENDMDL
MODEL 3
REMARK VINA RESULT:      -7.3      2.152      5.804
REMARK  Name = 
REMARK  1 active torsions:
REMARK  status: ('A' for Active; 'I' for Inactive)
REMARK    1  A    between atoms: C_3  and  C_4
REMARK                            x       y       z     vdW  Elec       q    Type
REMARK                         _______ _______ _______ _____ _____    ______ ____
ROOT
ATOM      1  O   UNL     1       4.451   3.172  16.881  0.00  0.00    +0.000 OA
ATOM      2  C   UNL     1       4.064   3.789  17.975  0.00  0.00    +0.000 A 
ATOM      3  C   UNL     1       4.686   4.855  18.635  0.00  0.00    +0.000 A 
ATOM      4  O   UNL     1       3.892   5.202  19.743  0.00  0.00    +0.000 OA
ATOM      5  C   UNL     1       2.830   4.332  19.660  0.00  0.00    +0.000 A 
ATOM      6  C   UNL     1       1.748   4.305  20.544  0.00  0.00    +0.000 A 
ATOM      7  C   UNL     1       0.728   3.369  20.284  0.00  0.00    +0.000 A 
ATOM      8  C   UNL     1       0.778   2.492  19.193  0.00  0.00    +0.000 A 
ATOM      9  C   UNL     1       1.860   2.514  18.324  0.00  0.00    +0.000 A 
ATOM     10  N   UNL     1       2.901   3.505  18.638  0.00  0.00    +0.000 N 
ENDROOT
BRANCH   3  11
ATOM     11  C   UNL     1       5.883   5.669  18.420  0.00  0.00    +0.000 A 
ATOM     12  C   UNL     1       7.015   5.527  19.238  0.00  0.00    +0.000 A 
ATOM     13  C   UNL     1       8.111   6.386  19.098  0.00  0.00    +0.000 A 
ATOM     14  C   UNL     1       8.097   7.387  18.130  0.00  0.00    +0.000 A 
ATOM     15  C   UNL     1       6.998   7.518  17.288  0.00  0.00    +0.000 A 
ATOM     16  C   UNL     1       5.903   6.662  17.430  0.00  0.00    +0.000 A 
ENDBRANCH   3  11
TORSDOF 1
ENDMDL
MODEL 4
REMARK VINA RESULT:      -7.1      1.228      5.760
REMARK  Name = 
REMARK  1 active torsions:
REMARK  status: ('A' for Active; 'I' for Inactive)
REMARK    1  A    between atoms: C_3  and  C_4
REMARK                            x       y       z     vdW  Elec       q    Type
REMARK                         _______ _______ _______ _____ _____    ______ ____
ROOT
ATOM      1  O   UNL     1       5.606   3.860  19.677  0.00  0.00    +0.000 OA
ATOM      2  C   UNL     1       4.534   3.787  18.920  0.00  0.00    +0.000 A 
ATOM      3  C   UNL     1       4.444   3.921  17.530  0.00  0.00    +0.000 A 
ATOM      4  O   UNL     1       3.099   3.736  17.162  0.00  0.00    +0.000 OA
ATOM      5  C   UNL     1       2.474   3.477  18.359  0.00  0.00    +0.000 A 
ATOM      6  C   UNL     1       1.112   3.201  18.506  0.00  0.00    +0.000 A 
ATOM      7  C   UNL     1       0.648   2.922  19.806  0.00  0.00    +0.000 A 
ATOM      8  C   UNL     1       1.499   2.919  20.920  0.00  0.00    +0.000 A 
ATOM      9  C   UNL     1       2.849   3.205  20.771  0.00  0.00    +0.000 A 
ATOM     10  N   UNL     1       3.285   3.493  19.395  0.00  0.00    +0.000 N 
ENDROOT
BRANCH   3  11
ATOM     11  C   UNL     1       5.384   4.156  16.434  0.00  0.00    +0.000 A 
ATOM     12  C   UNL     1       6.622   4.779  16.658  0.00  0.00    +0.000 A 
ATOM     13  C   UNL     1       7.466   5.102  15.589  0.00  0.00    +0.000 A 
ATOM     14  C   UNL     1       7.091   4.793  14.283  0.00  0.00    +0.000 A 
ATOM     15  C   UNL     1       5.884   4.142  14.048  0.00  0.00    +0.000 A 
ATOM     16  C   UNL     1       5.042   3.824  15.115  0.00  0.00    +0.000 A 
ENDBRANCH   3  11
TORSDOF 1
ENDMDL
MODEL 5
REMARK VINA RESULT:      -7.0      2.252      5.677
REMARK  Name = 
REMARK  1 active torsions:
REMARK  status: ('A' for Active; 'I' for Inactive)
REMARK    1  A    between atoms: C_3  and  C_4
REMARK                            x       y       z     vdW  Elec       q    Type
REMARK                         _______ _______ _______ _____ _____    ______ ____
ROOT
ATOM      1  O   UNL     1       4.497   3.064  17.073  0.00  0.00    +0.000 OA
ATOM      2  C   UNL     1       4.014   3.728  18.099  0.00  0.00    +0.000 A 
ATOM      3  C   UNL     1       4.539   4.869  18.717  0.00  0.00    +0.000 A 
ATOM      4  O   UNL     1       3.665   5.243  19.753  0.00  0.00    +0.000 OA
ATOM      5  C   UNL     1       2.657   4.311  19.672  0.00  0.00    +0.000 A 
ATOM      6  C   UNL     1       1.528   4.281  20.495  0.00  0.00    +0.000 A 
ATOM      7  C   UNL     1       0.576   3.274  20.245  0.00  0.00    +0.000 A 
ATOM      8  C   UNL     1       0.735   2.331  19.221  0.00  0.00    +0.000 A 
ATOM      9  C   UNL     1       1.864   2.357  18.413  0.00  0.00    +0.000 A 
ATOM     10  N   UNL     1       2.831   3.424  18.715  0.00  0.00    +0.000 N 
ENDROOT
BRANCH   3  11
ATOM     11  C   UNL     1       5.702   5.734  18.513  0.00  0.00    +0.000 A 
ATOM     12  C   UNL     1       5.709   6.720  17.514  0.00  0.00    +0.000 A 
ATOM     13  C   UNL     1       6.865   7.465  17.252  0.00  0.00    +0.000 A 
ATOM     14  C   UNL     1       8.023   7.245  17.993  0.00  0.00    +0.000 A 
ATOM     15  C   UNL     1       8.021   6.297  19.011  0.00  0.00    +0.000 A 
ATOM     16  C   UNL     1       6.869   5.552  19.270  0.00  0.00    +0.000 A 
ENDBRANCH   3  11
TORSDOF 1
ENDMDL
MODEL 6
REMARK VINA RESULT:      -7.0      1.228      5.697
REMARK  Name = 
REMARK  1 active torsions:
REMARK  status: ('A' for Active; 'I' for Inactive)
REMARK    1  A    between atoms: C_3  and  C_4
REMARK                            x       y       z     vdW  Elec       q    Type
REMARK                         _______ _______ _______ _____ _____    ______ ____
ROOT
ATOM      1  O   UNL     1       5.638   3.718  19.576  0.00  0.00    +0.000 OA
ATOM      2  C   UNL     1       4.533   3.754  18.865  0.00  0.00    +0.000 A 
ATOM      3  C   UNL     1       4.389   4.033  17.501  0.00  0.00    +0.000 A 
ATOM      4  O   UNL     1       3.024   3.927  17.178  0.00  0.00    +0.000 OA
ATOM      5  C   UNL     1       2.441   3.566  18.369  0.00  0.00    +0.000 A 
ATOM      6  C   UNL     1       1.078   3.317  18.549  0.00  0.00    +0.000 A 
ATOM      7  C   UNL     1       0.660   2.921  19.834  0.00  0.00    +0.000 A 
ATOM      8  C   UNL     1       1.556   2.778  20.902  0.00  0.00    +0.000 A 
ATOM      9  C   UNL     1       2.908   3.037  20.722  0.00  0.00    +0.000 A 
ATOM     10  N   UNL     1       3.295   3.452  19.364  0.00  0.00    +0.000 N 
ENDROOT
BRANCH   3  11
ATOM     11  C   UNL     1       5.290   4.351  16.393  0.00  0.00    +0.000 A 
ATOM     12  C   UNL     1       5.013   3.924  15.085  0.00  0.00    +0.000 A 
ATOM     13  C   UNL     1       5.934   4.135  14.052  0.00  0.00    +0.000 A 
ATOM     14  C   UNL     1       7.138   4.787  14.310  0.00  0.00    +0.000 A 
ATOM     15  C   UNL     1       7.411   5.248  15.593  0.00  0.00    +0.000 A 
ATOM     16  C   UNL     1       6.492   5.035  16.623  0.00  0.00    +0.000 A 
ENDBRANCH   3  11
TORSDOF 1
ENDMDL
MODEL 7
REMARK VINA RESULT:      -6.8      1.586      5.963
REMARK  Name = 
REMARK  1 active torsions:
REMARK  status: ('A' for Active; 'I' for Inactive)
REMARK    1  A    between atoms: C_3  and  C_4
REMARK                            x       y       z     vdW  Elec       q    Type
REMARK                         _______ _______ _______ _____ _____    ______ ____
ROOT
ATOM      1  O   UNL     1       3.804   1.582  17.749  0.00  0.00    +0.000 OA
ATOM      2  C   UNL     1       3.690   2.848  18.083  0.00  0.00    +0.000 A 
ATOM      3  C   UNL     1       4.353   3.951  17.534  0.00  0.00    +0.000 A 
ATOM      4  O   UNL     1       3.888   5.106  18.189  0.00  0.00    +0.000 OA
ATOM      5  C   UNL     1       2.956   4.619  19.074  0.00  0.00    +0.000 A 
ATOM      6  C   UNL     1       2.194   5.402  19.945  0.00  0.00    +0.000 A 
ATOM      7  C   UNL     1       1.257   4.735  20.758  0.00  0.00    +0.000 A 
ATOM      8  C   UNL     1       1.082   3.345  20.712  0.00  0.00    +0.000 A 
ATOM      9  C   UNL     1       1.849   2.570  19.853  0.00  0.00    +0.000 A 
ATOM     10  N   UNL     1       2.815   3.311  19.028  0.00  0.00    +0.000 N 
ENDROOT
BRANCH   3  11
ATOM     11  C   UNL     1       5.332   4.166  16.468  0.00  0.00    +0.000 A 
ATOM     12  C   UNL     1       6.606   4.684  16.744  0.00  0.00    +0.000 A 
ATOM     13  C   UNL     1       7.495   4.992  15.707  0.00  0.00    +0.000 A 
ATOM     14  C   UNL     1       7.127   4.772  14.381  0.00  0.00    +0.000 A 
ATOM     15  C   UNL     1       5.880   4.226  14.093  0.00  0.00    +0.000 A 
ATOM     16  C   UNL     1       4.994   3.922  15.129  0.00  0.00    +0.000 A 
ENDBRANCH   3  11
TORSDOF 1
ENDMDL
MODEL 8
REMARK VINA RESULT:      -6.8      2.408      5.618
REMARK  Name = 
REMARK  1 active torsions:
REMARK  status: ('A' for Active; 'I' for Inactive)
REMARK    1  A    between atoms: C_3  and  C_4
REMARK                            x       y       z     vdW  Elec       q    Type
REMARK                         _______ _______ _______ _____ _____    ______ ____
ROOT
ATOM      1  O   UNL     1       2.897   6.462  19.760  0.00  0.00    +0.000 OA
ATOM      2  C   UNL     1       3.276   5.357  19.156  0.00  0.00    +0.000 A 
ATOM      3  C   UNL     1       4.500   5.084  18.538  0.00  0.00    +0.000 A 
ATOM      4  O   UNL     1       4.459   3.763  18.057  0.00  0.00    +0.000 OA
ATOM      5  C   UNL     1       3.215   3.322  18.442  0.00  0.00    +0.000 A 
ATOM      6  C   UNL     1       2.713   2.039  18.206  0.00  0.00    +0.000 A 
ATOM      7  C   UNL     1       1.429   1.748  18.706  0.00  0.00    +0.000 A 
ATOM      8  C   UNL     1       0.669   2.691  19.411  0.00  0.00    +0.000 A 
ATOM      9  C   UNL     1       1.167   3.968  19.634  0.00  0.00    +0.000 A 
ATOM     10  N   UNL     1       2.510   4.225  19.089  0.00  0.00    +0.000 N 
ENDROOT
BRANCH   3  11
ATOM     11  C   UNL     1       5.755   5.807  18.327  0.00  0.00    +0.000 A 
ATOM     12  C   UNL     1       6.879   5.562  19.131  0.00  0.00    +0.000 A 
ATOM     13  C   UNL     1       8.039   6.335  18.997  0.00  0.00    +0.000 A 
ATOM     14  C   UNL     1       8.095   7.353  18.048  0.00  0.00    +0.000 A 
ATOM     15  C   UNL     1       7.002   7.585  17.218  0.00  0.00    +0.000 A 
ATOM     16  C   UNL     1       5.846   6.814  17.355  0.00  0.00    +0.000 A 
ENDBRANCH   3  11
TORSDOF 1
ENDMDL
MODEL 9
REMARK VINA RESULT:      -6.7      1.610      5.900
REMARK  Name = 
REMARK  1 active torsions:
REMARK  status: ('A' for Active; 'I' for Inactive)
REMARK    1  A    between atoms: C_3  and  C_4
REMARK                            x       y       z     vdW  Elec       q    Type
REMARK                         _______ _______ _______ _____ _____    ______ ____
ROOT
ATOM      1  O   UNL     1       3.860   1.653  17.642  0.00  0.00    +0.000 OA
ATOM      2  C   UNL     1       3.681   2.903  18.010  0.00  0.00    +0.000 A 
ATOM      3  C   UNL     1       4.275   4.054  17.482  0.00  0.00    +0.000 A 
ATOM      4  O   UNL     1       3.755   5.165  18.171  0.00  0.00    +0.000 OA
ATOM      5  C   UNL     1       2.862   4.604  19.053  0.00  0.00    +0.000 A 
ATOM      6  C   UNL     1       2.069   5.322  19.952  0.00  0.00    +0.000 A 
ATOM      7  C   UNL     1       1.180   4.585  20.757  0.00  0.00    +0.000 A 
ATOM      8  C   UNL     1       1.081   3.189  20.678  0.00  0.00    +0.000 A 
ATOM      9  C   UNL     1       1.879   2.479  19.792  0.00  0.00    +0.000 A 
ATOM     10  N   UNL     1       2.793   3.292  18.976  0.00  0.00    +0.000 N 
ENDROOT
BRANCH   3  11
ATOM     11  C   UNL     1       5.228   4.349  16.411  0.00  0.00    +0.000 A 
ATOM     12  C   UNL     1       4.966   3.979  15.083  0.00  0.00    +0.000 A 
ATOM     13  C   UNL     1       5.930   4.163  14.084  0.00  0.00    +0.000 A 
ATOM     14  C   UNL     1       7.162   4.733  14.398  0.00  0.00    +0.000 A 
ATOM     15  C   UNL     1       7.423   5.138  15.703  0.00  0.00    +0.000 A 
ATOM     16  C   UNL     1       6.461   4.951  16.698  0.00  0.00    +0.000 A 
ENDBRANCH   3  11
TORSDOF 1
ENDMDL
