MODEL 1
REMARK VINA RESULT:      -8.1      0.000      0.000
REMARK  Name = 
REMARK  7 active torsions:
REMARK  status: ('A' for Active; 'I' for Inactive)
REMARK    1  A    between atoms: C_1  and  C_2
REMARK    2  A    between atoms: C_4  and  O_5
REMARK    3  A    between atoms: O_5  and  C_6
REMARK    4  A    between atoms: C_6  and  C_7
REMARK    5  A    between atoms: N_9  and  C_10
REMARK    6  A    between atoms: C_10  and  C_11
REMARK    7  A    between atoms: C_18  and  C_19
REMARK                            x       y       z     vdW  Elec       q    Type
REMARK                         _______ _______ _______ _____ _____    ______ ____
ROOT
ATOM      1  C   UNL     1       0.674   2.383  19.075  0.00  0.00    +0.000 C 
ATOM      2  C   UNL     1       1.897   3.135  18.647  0.00  0.00    +0.000 A 
ATOM      3  N   UNL     1       2.113   4.337  19.228  0.00  0.00    +0.000 NA
ATOM      4  C   UNL     1       3.221   5.020  18.887  0.00  0.00    +0.000 A 
ATOM      5  C   UNL     1       4.117   4.493  17.972  0.00  0.00    +0.000 A 
ATOM      6  C   UNL     1       5.379   4.807  17.395  0.00  0.00    +0.000 A 
ATOM      7  N   UNL     1       5.691   3.898  16.453  0.00  0.00    +0.000 NA
ATOM      8  O   UNL     1       4.678   2.950  16.479  0.00  0.00    +0.000 OA
ATOM      9  C   UNL     1       3.749   3.291  17.412  0.00  0.00    +0.000 A 
ATOM     10  N   UNL     1       2.663   2.560  17.704  0.00  0.00    +0.000 NA
ENDROOT
BRANCH   6  11
ATOM     11  C   UNL     1       6.316   5.881  17.754  0.00  0.00    +0.000 A 
ATOM     12  C   UNL     1       7.294   5.674  18.743  0.00  0.00    +0.000 A 
ATOM     13  C   UNL     1       8.202   6.677  19.087  0.00  0.00    +0.000 A 
ATOM     14  C   UNL     1       8.171   7.882  18.405  0.00  0.00    +0.000 A 
ATOM     15  F   UNL     1       9.066   8.831  18.705  0.00  0.00    +0.000 F 
ATOM     16  C   UNL     1       7.237   8.105  17.398  0.00  0.00    +0.000 A 
ATOM     17  C   UNL     1       6.305   7.112  17.079  0.00  0.00    +0.000 A 
ENDBRANCH   6  11
BRANCH   4  18
ATOM     18  O   UNL     1       3.351   6.318  19.298  0.00  0.00    +0.000 OA
BRANCH  18  19
ATOM     19  C   UNL     1       2.740   7.270  18.430  0.00  0.00    +0.000 C 
BRANCH  19  20
ATOM     20  C   UNL     1       1.978   8.192  19.372  0.00  0.00    +0.000 C 
ATOM     21  O   UNL     1       1.733   7.899  20.538  0.00  0.00    +0.000 OA
ATOM     22  N   UNL     1       1.576   9.365  18.765  0.00  0.00    +0.000 N 
ATOM     23  H   UNL     1       1.975   9.577  17.858  0.00  0.00    +0.000 HD
BRANCH  22  24
ATOM     24  C   UNL     1       0.873  10.413  19.464  0.00  0.00    +0.000 C 
BRANCH  24  25
ATOM     25  C   UNL     1      -0.528  10.619  18.956  0.00  0.00    +0.000 A 
ATOM     26  C   UNL     1      -0.998   9.976  17.806  0.00  0.00    +0.000 A 
ATOM     27  C   UNL     1      -2.282  10.248  17.336  0.00  0.00    +0.000 A 
ATOM     28  C   UNL     1      -3.056  11.158  18.034  0.00  0.00    +0.000 A 
ATOM     29  N   UNL     1      -2.644  11.791  19.152  0.00  0.00    +0.000 NA
ATOM     30  C   UNL     1      -1.392  11.508  19.584  0.00  0.00    +0.000 A 
ENDBRANCH  24  25
ENDBRANCH  22  24
ENDBRANCH  19  20
ENDBRANCH  18  19
ENDBRANCH   4  18
TORSDOF 6
ENDMDL
MODEL 2
REMARK VINA RESULT:      -8.1      0.719      1.171
REMARK  Name = 
REMARK  7 active torsions:
REMARK  status: ('A' for Active; 'I' for Inactive)
REMARK    1  A    between atoms: C_1  and  C_2
REMARK    2  A    between atoms: C_4  and  O_5
REMARK    3  A    between atoms: O_5  and  C_6
REMARK    4  A    between atoms: C_6  and  C_7
REMARK    5  A    between atoms: N_9  and  C_10
REMARK    6  A    between atoms: C_10  and  C_11
REMARK    7  A    between atoms: C_18  and  C_19
REMARK                            x       y       z     vdW  Elec       q    Type
REMARK                         _______ _______ _______ _____ _____    ______ ____
ROOT
ATOM      1  C   UNL     1       0.374   2.827  18.633  0.00  0.00    +0.000 C 
ATOM      2  C   UNL     1       1.686   3.457  18.277  0.00  0.00    +0.000 A 
ATOM      3  N   UNL     1       1.947   4.673  18.810  0.00  0.00    +0.000 NA
ATOM      4  C   UNL     1       3.132   5.248  18.534  0.00  0.00    +0.000 A 
ATOM      5  C   UNL     1       4.057   4.600  17.734  0.00  0.00    +0.000 A 
ATOM      6  C   UNL     1       5.386   4.782  17.258  0.00  0.00    +0.000 A 
ATOM      7  N   UNL     1       5.703   3.797  16.397  0.00  0.00    +0.000 NA
ATOM      8  O   UNL     1       4.619   2.931  16.383  0.00  0.00    +0.000 OA
ATOM      9  C   UNL     1       3.644   3.398  17.208  0.00  0.00    +0.000 A 
ATOM     10  N   UNL     1       2.482   2.769  17.440  0.00  0.00    +0.000 NA
ENDROOT
BRANCH   6  11
ATOM     11  C   UNL     1       6.371   5.802  17.641  0.00  0.00    +0.000 A 
ATOM     12  C   UNL     1       6.366   7.067  17.027  0.00  0.00    +0.000 A 
ATOM     13  C   UNL     1       7.285   8.054  17.389  0.00  0.00    +0.000 A 
ATOM     14  C   UNL     1       8.186   7.799  18.408  0.00  0.00    +0.000 A 
ATOM     15  F   UNL     1       9.043   8.757  18.784  0.00  0.00    +0.000 F 
ATOM     16  C   UNL     1       8.195   6.569  19.059  0.00  0.00    +0.000 A 
ATOM     17  C   UNL     1       7.297   5.569  18.671  0.00  0.00    +0.000 A 
ENDBRANCH   6  11
BRANCH   4  18
ATOM     18  O   UNL     1       3.330   6.555  18.886  0.00  0.00    +0.000 OA
BRANCH  18  19
ATOM     19  C   UNL     1       2.192   7.180  19.474  0.00  0.00    +0.000 C 
BRANCH  19  20
ATOM     20  C   UNL     1       1.954   8.407  18.605  0.00  0.00    +0.000 C 
ATOM     21  O   UNL     1       2.404   8.516  17.469  0.00  0.00    +0.000 OA
ATOM     22  N   UNL     1       1.209   9.379  19.241  0.00  0.00    +0.000 N 
ATOM     23  H   UNL     1       0.748   9.118  20.105  0.00  0.00    +0.000 HD
BRANCH  22  24
ATOM     24  C   UNL     1       0.819  10.615  18.607  0.00  0.00    +0.000 C 
BRANCH  24  25
ATOM     25  C   UNL     1      -0.672  10.758  18.468  0.00  0.00    +0.000 A 
ATOM     26  C   UNL     1      -1.412   9.960  17.591  0.00  0.00    +0.000 A 
ATOM     27  C   UNL     1      -2.782  10.174  17.447  0.00  0.00    +0.000 A 
ATOM     28  C   UNL     1      -3.368  11.183  18.189  0.00  0.00    +0.000 A 
ATOM     29  N   UNL     1      -2.693  11.967  19.055  0.00  0.00    +0.000 NA
ATOM     30  C   UNL     1      -1.363  11.738  19.171  0.00  0.00    +0.000 A 
ENDBRANCH  24  25
ENDBRANCH  22  24
ENDBRANCH  19  20
ENDBRANCH  18  19
ENDBRANCH   4  18
TORSDOF 6
ENDMDL
MODEL 3
REMARK VINA RESULT:      -7.9      0.725      1.351
REMARK  Name = 
REMARK  7 active torsions:
REMARK  status: ('A' for Active; 'I' for Inactive)
REMARK    1  A    between atoms: C_1  and  C_2
REMARK    2  A    between atoms: C_4  and  O_5
REMARK    3  A    between atoms: O_5  and  C_6
REMARK    4  A    between atoms: C_6  and  C_7
REMARK    5  A    between atoms: N_9  and  C_10
REMARK    6  A    between atoms: C_10  and  C_11
REMARK    7  A    between atoms: C_18  and  C_19
REMARK                            x       y       z     vdW  Elec       q    Type
REMARK                         _______ _______ _______ _____ _____    ______ ____
ROOT
ATOM      1  C   UNL     1       0.381   2.862  19.418  0.00  0.00    +0.000 C 
ATOM      2  C   UNL     1       1.643   3.483  18.903  0.00  0.00    +0.000 A 
ATOM      3  N   UNL     1       1.924   4.738  19.323  0.00  0.00    +0.000 NA
ATOM      4  C   UNL     1       3.069   5.309  18.903  0.00  0.00    +0.000 A 
ATOM      5  C   UNL     1       3.933   4.619  18.071  0.00  0.00    +0.000 A 
ATOM      6  C   UNL     1       5.210   4.785  17.466  0.00  0.00    +0.000 A 
ATOM      7  N   UNL     1       5.471   3.745  16.653  0.00  0.00    +0.000 NA
ATOM      8  O   UNL     1       4.409   2.864  16.796  0.00  0.00    +0.000 OA
ATOM      9  C   UNL     1       3.500   3.375  17.670  0.00  0.00    +0.000 A 
ATOM     10  N   UNL     1       2.376   2.749  18.049  0.00  0.00    +0.000 NA
ENDROOT
BRANCH   6  11
ATOM     11  C   UNL     1       6.204   5.844  17.687  0.00  0.00    +0.000 A 
ATOM     12  C   UNL     1       6.096   7.076  17.018  0.00  0.00    +0.000 A 
ATOM     13  C   UNL     1       7.022   8.100  17.227  0.00  0.00    +0.000 A 
ATOM     14  C   UNL     1       8.039   7.916  18.148  0.00  0.00    +0.000 A 
ATOM     15  F   UNL     1       8.905   8.910  18.379  0.00  0.00    +0.000 F 
ATOM     16  C   UNL     1       8.154   6.721  18.852  0.00  0.00    +0.000 A 
ATOM     17  C   UNL     1       7.245   5.683  18.615  0.00  0.00    +0.000 A 
ENDBRANCH   6  11
BRANCH   4  18
ATOM     18  O   UNL     1       3.270   6.641  19.141  0.00  0.00    +0.000 OA
BRANCH  18  19
ATOM     19  C   UNL     1       2.595   7.506  18.230  0.00  0.00    +0.000 C 
BRANCH  19  20
ATOM     20  C   UNL     1       1.764   8.411  19.127  0.00  0.00    +0.000 C 
ATOM     21  O   UNL     1       1.608   8.201  20.326  0.00  0.00    +0.000 OA
ATOM     22  N   UNL     1       1.191   9.465  18.444  0.00  0.00    +0.000 N 
ATOM     23  H   UNL     1       1.521   9.639  17.501  0.00  0.00    +0.000 HD
BRANCH  22  24
ATOM     24  C   UNL     1       0.391  10.480  19.085  0.00  0.00    +0.000 C 
BRANCH  24  25
ATOM     25  C   UNL     1      -0.977  10.619  18.476  0.00  0.00    +0.000 A 
ATOM     26  C   UNL     1      -1.933  11.495  19.001  0.00  0.00    +0.000 A 
ATOM     27  C   UNL     1      -3.210  11.541  18.444  0.00  0.00    +0.000 A 
ATOM     28  C   UNL     1      -3.490  10.708  17.376  0.00  0.00    +0.000 A 
ATOM     29  N   UNL     1      -2.593   9.858  16.833  0.00  0.00    +0.000 NA
ATOM     30  C   UNL     1      -1.362   9.832  17.397  0.00  0.00    +0.000 A 
ENDBRANCH  24  25
ENDBRANCH  22  24
ENDBRANCH  19  20
ENDBRANCH  18  19
ENDBRANCH   4  18
TORSDOF 6
ENDMDL
MODEL 4
REMARK VINA RESULT:      -7.8      1.448      2.296
REMARK  Name = 
REMARK  7 active torsions:
REMARK  status: ('A' for Active; 'I' for Inactive)
REMARK    1  A    between atoms: C_1  and  C_2
REMARK    2  A    between atoms: C_4  and  O_5
REMARK    3  A    between atoms: O_5  and  C_6
REMARK    4  A    between atoms: C_6  and  C_7
REMARK    5  A    between atoms: N_9  and  C_10
REMARK    6  A    between atoms: C_10  and  C_11
REMARK    7  A    between atoms: C_18  and  C_19
REMARK                            x       y       z     vdW  Elec       q    Type
REMARK                         _______ _______ _______ _____ _____    ______ ____
ROOT
ATOM      1  C   UNL     1       0.387   2.533  18.829  0.00  0.00    +0.000 C 
ATOM      2  C   UNL     1       1.656   3.231  18.444  0.00  0.00    +0.000 A 
ATOM      3  N   UNL     1       1.909   4.417  19.044  0.00  0.00    +0.000 NA
ATOM      4  C   UNL     1       3.057   5.051  18.742  0.00  0.00    +0.000 A 
ATOM      5  C   UNL     1       3.954   4.492  17.848  0.00  0.00    +0.000 A 
ATOM      6  C   UNL     1       5.246   4.752  17.311  0.00  0.00    +0.000 A 
ATOM      7  N   UNL     1       5.543   3.839  16.369  0.00  0.00    +0.000 NA
ATOM      8  O   UNL     1       4.488   2.938  16.355  0.00  0.00    +0.000 OA
ATOM      9  C   UNL     1       3.548   3.313  17.265  0.00  0.00    +0.000 A 
ATOM     10  N   UNL     1       2.422   2.630  17.518  0.00  0.00    +0.000 NA
ENDROOT
BRANCH   6  11
ATOM     11  C   UNL     1       6.220   5.778  17.708  0.00  0.00    +0.000 A 
ATOM     12  C   UNL     1       7.175   5.509  18.704  0.00  0.00    +0.000 A 
ATOM     13  C   UNL     1       8.118   6.466  19.084  0.00  0.00    +0.000 A 
ATOM     14  C   UNL     1       8.145   7.687  18.431  0.00  0.00    +0.000 A 
ATOM     15  F   UNL     1       9.073   8.592  18.766  0.00  0.00    +0.000 F 
ATOM     16  C   UNL     1       7.235   7.972  17.418  0.00  0.00    +0.000 A 
ATOM     17  C   UNL     1       6.268   7.025  17.063  0.00  0.00    +0.000 A 
ENDBRANCH   6  11
BRANCH   4  18
ATOM     18  O   UNL     1       3.235   6.338  19.171  0.00  0.00    +0.000 OA
BRANCH  18  19
ATOM     19  C   UNL     1       2.807   7.328  18.239  0.00  0.00    +0.000 C 
BRANCH  19  20
ATOM     20  C   UNL     1       1.939   8.265  19.067  0.00  0.00    +0.000 C 
ATOM     21  O   UNL     1       1.741   8.103  20.267  0.00  0.00    +0.000 OA
ATOM     22  N   UNL     1       1.386   9.285  18.320  0.00  0.00    +0.000 N 
ATOM     23  H   UNL     1       1.749   9.423  17.384  0.00  0.00    +0.000 HD
BRANCH  22  24
ATOM     24  C   UNL     1       0.559  10.321  18.890  0.00  0.00    +0.000 C 
BRANCH  24  25
ATOM     25  C   UNL     1       1.330  11.567  19.230  0.00  0.00    +0.000 A 
ATOM     26  C   UNL     1       1.165  12.226  20.451  0.00  0.00    +0.000 A 
ATOM     27  C   UNL     1       1.852  13.415  20.695  0.00  0.00    +0.000 A 
ATOM     28  C   UNL     1       2.684  13.905  19.705  0.00  0.00    +0.000 A 
ATOM     29  N   UNL     1       2.880  13.294  18.519  0.00  0.00    +0.000 NA
ATOM     30  C   UNL     1       2.197  12.143  18.309  0.00  0.00    +0.000 A 
ENDBRANCH  24  25
ENDBRANCH  22  24
ENDBRANCH  19  20
ENDBRANCH  18  19
ENDBRANCH   4  18
TORSDOF 6
ENDMDL
MODEL 5
REMARK VINA RESULT:      -7.6      0.823      1.158
REMARK  Name = 
REMARK  7 active torsions:
REMARK  status: ('A' for Active; 'I' for Inactive)
REMARK    1  A    between atoms: C_1  and  C_2
REMARK    2  A    between atoms: C_4  and  O_5
REMARK    3  A    between atoms: O_5  and  C_6
REMARK    4  A    between atoms: C_6  and  C_7
REMARK    5  A    between atoms: N_9  and  C_10
REMARK    6  A    between atoms: C_10  and  C_11
REMARK    7  A    between atoms: C_18  and  C_19
REMARK                            x       y       z     vdW  Elec       q    Type
REMARK                         _______ _______ _______ _____ _____    ______ ____
ROOT
ATOM      1  C   UNL     1       0.467   2.636  19.638  0.00  0.00    +0.000 C 
ATOM      2  C   UNL     1       1.696   3.315  19.116  0.00  0.00    +0.000 A 
ATOM      3  N   UNL     1       1.996   4.526  19.639  0.00  0.00    +0.000 NA
ATOM      4  C   UNL     1       3.113   5.145  19.213  0.00  0.00    +0.000 A 
ATOM      5  C   UNL     1       3.931   4.546  18.271  0.00  0.00    +0.000 A 
ATOM      6  C   UNL     1       5.171   4.782  17.614  0.00  0.00    +0.000 A 
ATOM      7  N   UNL     1       5.389   3.828  16.690  0.00  0.00    +0.000 NA
ATOM      8  O   UNL     1       4.339   2.928  16.807  0.00  0.00    +0.000 OA
ATOM      9  C   UNL     1       3.480   3.344  17.776  0.00  0.00    +0.000 A 
ATOM     10  N   UNL     1       2.382   2.674  18.154  0.00  0.00    +0.000 NA
ENDROOT
BRANCH   6  11
ATOM     11  C   UNL     1       6.173   5.823  17.881  0.00  0.00    +0.000 A 
ATOM     12  C   UNL     1       7.203   5.602  18.812  0.00  0.00    +0.000 A 
ATOM     13  C   UNL     1       8.172   6.574  19.068  0.00  0.00    +0.000 A 
ATOM     14  C   UNL     1       8.148   7.759  18.353  0.00  0.00    +0.000 A 
ATOM     15  F   UNL     1       9.099   8.677  18.568  0.00  0.00    +0.000 F 
ATOM     16  C   UNL     1       7.162   7.995  17.400  0.00  0.00    +0.000 A 
ATOM     17  C   UNL     1       6.171   7.035  17.171  0.00  0.00    +0.000 A 
ENDBRANCH   6  11
BRANCH   4  18
ATOM     18  O   UNL     1       3.323   6.449  19.569  0.00  0.00    +0.000 OA
BRANCH  18  19
ATOM     19  C   UNL     1       2.135   7.160  19.910  0.00  0.00    +0.000 C 
BRANCH  19  20
ATOM     20  C   UNL     1       2.043   8.254  18.856  0.00  0.00    +0.000 C 
ATOM     21  O   UNL     1       2.757   8.281  17.859  0.00  0.00    +0.000 OA
ATOM     22  N   UNL     1       1.098   9.214  19.160  0.00  0.00    +0.000 N 
ATOM     23  H   UNL     1       0.453   9.005  19.913  0.00  0.00    +0.000 HD
BRANCH  22  24
ATOM     24  C   UNL     1       0.800  10.329  18.295  0.00  0.00    +0.000 C 
BRANCH  24  25
ATOM     25  C   UNL     1      -0.648  10.733  18.337  0.00  0.00    +0.000 A 
ATOM     26  C   UNL     1      -1.124  11.678  19.251  0.00  0.00    +0.000 A 
ATOM     27  C   UNL     1      -2.486  11.972  19.298  0.00  0.00    +0.000 A 
ATOM     28  C   UNL     1      -3.330  11.308  18.426  0.00  0.00    +0.000 A 
ATOM     29  N   UNL     1      -2.909  10.399  17.522  0.00  0.00    +0.000 NA
ATOM     30  C   UNL     1      -1.582  10.132  17.501  0.00  0.00    +0.000 A 
ENDBRANCH  24  25
ENDBRANCH  22  24
ENDBRANCH  19  20
ENDBRANCH  18  19
ENDBRANCH   4  18
TORSDOF 6
ENDMDL
MODEL 6
REMARK VINA RESULT:      -7.6      1.594      2.299
REMARK  Name = 
REMARK  7 active torsions:
REMARK  status: ('A' for Active; 'I' for Inactive)
REMARK    1  A    between atoms: C_1  and  C_2
REMARK    2  A    between atoms: C_4  and  O_5
REMARK    3  A    between atoms: O_5  and  C_6
REMARK    4  A    between atoms: C_6  and  C_7
REMARK    5  A    between atoms: N_9  and  C_10
REMARK    6  A    between atoms: C_10  and  C_11
REMARK    7  A    between atoms: C_18  and  C_19
REMARK                            x       y       z     vdW  Elec       q    Type
REMARK                         _______ _______ _______ _____ _____    ______ ____
ROOT
ATOM      1  C   UNL     1       0.389   2.800  18.976  0.00  0.00    +0.000 C 
ATOM      2  C   UNL     1       1.673   3.446  18.551  0.00  0.00    +0.000 A 
ATOM      3  N   UNL     1       1.949   4.663  19.074  0.00  0.00    +0.000 NA
ATOM      4  C   UNL     1       3.111   5.253  18.737  0.00  0.00    +0.000 A 
ATOM      5  C   UNL     1       3.997   4.619  17.883  0.00  0.00    +0.000 A 
ATOM      6  C   UNL     1       5.295   4.819  17.335  0.00  0.00    +0.000 A 
ATOM      7  N   UNL     1       5.575   3.841  16.453  0.00  0.00    +0.000 NA
ATOM      8  O   UNL     1       4.502   2.963  16.495  0.00  0.00    +0.000 OA
ATOM      9  C   UNL     1       3.569   3.414  17.375  0.00  0.00    +0.000 A 
ATOM     10  N   UNL     1       2.428   2.772  17.668  0.00  0.00    +0.000 NA
ENDROOT
BRANCH   6  11
ATOM     11  C   UNL     1       6.289   5.848  17.668  0.00  0.00    +0.000 A 
ATOM     12  C   UNL     1       6.236   7.116  17.062  0.00  0.00    +0.000 A 
ATOM     13  C   UNL     1       7.162   8.112  17.377  0.00  0.00    +0.000 A 
ATOM     14  C   UNL     1       8.122   7.862  18.343  0.00  0.00    +0.000 A 
ATOM     15  F   UNL     1       8.987   8.828  18.676  0.00  0.00    +0.000 F 
ATOM     16  C   UNL     1       8.180   6.630  18.987  0.00  0.00    +0.000 A 
ATOM     17  C   UNL     1       7.273   5.621  18.644  0.00  0.00    +0.000 A 
ENDBRANCH   6  11
BRANCH   4  18
ATOM     18  O   UNL     1       3.314   6.561  19.083  0.00  0.00    +0.000 OA
BRANCH  18  19
ATOM     19  C   UNL     1       2.593   7.495  18.282  0.00  0.00    +0.000 C 
BRANCH  19  20
ATOM     20  C   UNL     1       1.875   8.374  19.297  0.00  0.00    +0.000 C 
ATOM     21  O   UNL     1       1.700   8.038  20.464  0.00  0.00    +0.000 OA
ATOM     22  N   UNL     1       1.426   9.562  18.755  0.00  0.00    +0.000 N 
ATOM     23  H   UNL     1       1.771   9.810  17.835  0.00  0.00    +0.000 HD
BRANCH  22  24
ATOM     24  C   UNL     1       0.752  10.576  19.529  0.00  0.00    +0.000 C 
BRANCH  24  25
ATOM     25  C   UNL     1       1.283  11.959  19.270  0.00  0.00    +0.000 A 
ATOM     26  C   UNL     1       2.304  12.197  18.345  0.00  0.00    +0.000 A 
ATOM     27  C   UNL     1       2.810  13.486  18.188  0.00  0.00    +0.000 A 
ATOM     28  C   UNL     1       2.276  14.499  18.965  0.00  0.00    +0.000 A 
ATOM     29  N   UNL     1       1.284  14.314  19.860  0.00  0.00    +0.000 NA
ATOM     30  C   UNL     1       0.814  13.050  19.993  0.00  0.00    +0.000 A 
ENDBRANCH  24  25
ENDBRANCH  22  24
ENDBRANCH  19  20
ENDBRANCH  18  19
ENDBRANCH   4  18
TORSDOF 6
ENDMDL
MODEL 7
REMARK VINA RESULT:      -7.5      1.313      1.644
REMARK  Name = 
REMARK  7 active torsions:
REMARK  status: ('A' for Active; 'I' for Inactive)
REMARK    1  A    between atoms: C_1  and  C_2
REMARK    2  A    between atoms: C_4  and  O_5
REMARK    3  A    between atoms: O_5  and  C_6
REMARK    4  A    between atoms: C_6  and  C_7
REMARK    5  A    between atoms: N_9  and  C_10
REMARK    6  A    between atoms: C_10  and  C_11
REMARK    7  A    between atoms: C_18  and  C_19
REMARK                            x       y       z     vdW  Elec       q    Type
REMARK                         _______ _______ _______ _____ _____    ______ ____
ROOT
ATOM      1  C   UNL     1       0.740   2.449  18.720  0.00  0.00    +0.000 C 
ATOM      2  C   UNL     1       1.979   3.211  18.361  0.00  0.00    +0.000 A 
ATOM      3  N   UNL     1       2.174   4.394  18.987  0.00  0.00    +0.000 NA
ATOM      4  C   UNL     1       3.296   5.084  18.709  0.00  0.00    +0.000 A 
ATOM      5  C   UNL     1       4.223   4.585  17.810  0.00  0.00    +0.000 A 
ATOM      6  C   UNL     1       5.505   4.914  17.289  0.00  0.00    +0.000 A 
ATOM      7  N   UNL     1       5.849   4.035  16.330  0.00  0.00    +0.000 NA
ATOM      8  O   UNL     1       4.836   3.089  16.289  0.00  0.00    +0.000 OA
ATOM      9  C   UNL     1       3.874   3.402  17.199  0.00  0.00    +0.000 A 
ATOM     10  N   UNL     1       2.778   2.665  17.428  0.00  0.00    +0.000 NA
ENDROOT
BRANCH   6  11
ATOM     11  C   UNL     1       6.430   5.973  17.716  0.00  0.00    +0.000 A 
ATOM     12  C   UNL     1       7.368   5.735  18.736  0.00  0.00    +0.000 A 
ATOM     13  C   UNL     1       8.264   6.724  19.145  0.00  0.00    +0.000 A 
ATOM     14  C   UNL     1       8.263   7.948  18.497  0.00  0.00    +0.000 A 
ATOM     15  F   UNL     1       9.148   8.885  18.861  0.00  0.00    +0.000 F 
ATOM     16  C   UNL     1       7.371   8.204  17.461  0.00  0.00    +0.000 A 
ATOM     17  C   UNL     1       6.449   7.224  17.077  0.00  0.00    +0.000 A 
ENDBRANCH   6  11
BRANCH   4  18
ATOM     18  O   UNL     1       3.413   6.368  19.166  0.00  0.00    +0.000 OA
BRANCH  18  19
ATOM     19  C   UNL     1       2.582   7.308  18.488  0.00  0.00    +0.000 C 
BRANCH  19  20
ATOM     20  C   UNL     1       1.789   7.973  19.604  0.00  0.00    +0.000 C 
ATOM     21  O   UNL     1       1.549   7.419  20.672  0.00  0.00    +0.000 OA
ATOM     22  N   UNL     1       1.352   9.239  19.271  0.00  0.00    +0.000 N 
ATOM     23  H   UNL     1       1.747   9.661  18.439  0.00  0.00    +0.000 HD
BRANCH  22  24
ATOM     24  C   UNL     1       0.614  10.083  20.179  0.00  0.00    +0.000 C 
BRANCH  24  25
ATOM     25  C   UNL     1       0.556  11.518  19.730  0.00  0.00    +0.000 A 
ATOM     26  C   UNL     1      -0.386  11.961  18.797  0.00  0.00    +0.000 A 
ATOM     27  C   UNL     1      -0.359  13.285  18.361  0.00  0.00    +0.000 A 
ATOM     28  C   UNL     1       0.614  14.124  18.874  0.00  0.00    +0.000 A 
ATOM     29  N   UNL     1       1.533  13.738  19.784  0.00  0.00    +0.000 NA
ATOM     30  C   UNL     1       1.484  12.447  20.187  0.00  0.00    +0.000 A 
ENDBRANCH  24  25
ENDBRANCH  22  24
ENDBRANCH  19  20
ENDBRANCH  18  19
ENDBRANCH   4  18
TORSDOF 6
ENDMDL
MODEL 8
REMARK VINA RESULT:      -7.5      1.288      1.621
REMARK  Name = 
REMARK  7 active torsions:
REMARK  status: ('A' for Active; 'I' for Inactive)
REMARK    1  A    between atoms: C_1  and  C_2
REMARK    2  A    between atoms: C_4  and  O_5
REMARK    3  A    between atoms: O_5  and  C_6
REMARK    4  A    between atoms: C_6  and  C_7
REMARK    5  A    between atoms: N_9  and  C_10
REMARK    6  A    between atoms: C_10  and  C_11
REMARK    7  A    between atoms: C_18  and  C_19
REMARK                            x       y       z     vdW  Elec       q    Type
REMARK                         _______ _______ _______ _____ _____    ______ ____
ROOT
ATOM      1  C   UNL     1       0.503   2.376  18.991  0.00  0.00    +0.000 C 
ATOM      2  C   UNL     1       1.735   3.110  18.558  0.00  0.00    +0.000 A 
ATOM      3  N   UNL     1       2.070   4.215  19.263  0.00  0.00    +0.000 NA
ATOM      4  C   UNL     1       3.190   4.876  18.917  0.00  0.00    +0.000 A 
ATOM      5  C   UNL     1       3.977   4.424  17.871  0.00  0.00    +0.000 A 
ATOM      6  C   UNL     1       5.209   4.741  17.233  0.00  0.00    +0.000 A 
ATOM      7  N   UNL     1       5.389   3.946  16.163  0.00  0.00    +0.000 NA
ATOM      8  O   UNL     1       4.323   3.057  16.157  0.00  0.00    +0.000 OA
ATOM      9  C   UNL     1       3.492   3.325  17.200  0.00  0.00    +0.000 A 
ATOM     10  N   UNL     1       2.388   2.621  17.490  0.00  0.00    +0.000 NA
ENDROOT
BRANCH   6  11
ATOM     11  C   UNL     1       6.236   5.709  17.642  0.00  0.00    +0.000 A 
ATOM     12  C   UNL     1       6.310   6.973  17.031  0.00  0.00    +0.000 A 
ATOM     13  C   UNL     1       7.269   7.912  17.416  0.00  0.00    +0.000 A 
ATOM     14  C   UNL     1       8.134   7.609  18.454  0.00  0.00    +0.000 A 
ATOM     15  F   UNL     1       9.029   8.521  18.852  0.00  0.00    +0.000 F 
ATOM     16  C   UNL     1       8.065   6.379  19.102  0.00  0.00    +0.000 A 
ATOM     17  C   UNL     1       7.126   5.427  18.691  0.00  0.00    +0.000 A 
ENDBRANCH   6  11
BRANCH   4  18
ATOM     18  O   UNL     1       3.434   6.102  19.473  0.00  0.00    +0.000 OA
BRANCH  18  19
ATOM     19  C   UNL     1       2.755   7.179  18.831  0.00  0.00    +0.000 C 
BRANCH  19  20
ATOM     20  C   UNL     1       1.860   7.753  19.921  0.00  0.00    +0.000 C 
ATOM     21  O   UNL     1       1.478   7.096  20.884  0.00  0.00    +0.000 OA
ATOM     22  N   UNL     1       1.511   9.068  19.691  0.00  0.00    +0.000 N 
ATOM     23  H   UNL     1       2.016   9.561  18.963  0.00  0.00    +0.000 HD
BRANCH  22  24
ATOM     24  C   UNL     1       0.702   9.840  20.602  0.00  0.00    +0.000 C 
BRANCH  24  25
ATOM     25  C   UNL     1       0.269  11.161  20.027  0.00  0.00    +0.000 A 
ATOM     26  C   UNL     1       0.947  11.760  18.961  0.00  0.00    +0.000 A 
ATOM     27  C   UNL     1       0.551  13.016  18.505  0.00  0.00    +0.000 A 
ATOM     28  C   UNL     1      -0.516  13.634  19.133  0.00  0.00    +0.000 A 
ATOM     29  N   UNL     1      -1.204  13.086  20.156  0.00  0.00    +0.000 NA
ATOM     30  C   UNL     1      -0.794  11.867  20.580  0.00  0.00    +0.000 A 
ENDBRANCH  24  25
ENDBRANCH  22  24
ENDBRANCH  19  20
ENDBRANCH  18  19
ENDBRANCH   4  18
TORSDOF 6
ENDMDL
MODEL 9
REMARK VINA RESULT:      -7.5      1.325      1.567
REMARK  Name = 
REMARK  7 active torsions:
REMARK  status: ('A' for Active; 'I' for Inactive)
REMARK    1  A    between atoms: C_1  and  C_2
REMARK    2  A    between atoms: C_4  and  O_5
REMARK    3  A    between atoms: O_5  and  C_6
REMARK    4  A    between atoms: C_6  and  C_7
REMARK    5  A    between atoms: N_9  and  C_10
REMARK    6  A    between atoms: C_10  and  C_11
REMARK    7  A    between atoms: C_18  and  C_19
REMARK                            x       y       z     vdW  Elec       q    Type
REMARK                         _______ _______ _______ _____ _____    ______ ____
ROOT
ATOM      1  C   UNL     1       0.929   2.443  21.834  0.00  0.00    +0.000 C 
ATOM      2  C   UNL     1       1.910   3.040  20.870  0.00  0.00    +0.000 A 
ATOM      3  N   UNL     1       2.192   4.354  21.018  0.00  0.00    +0.000 NA
ATOM      4  C   UNL     1       3.094   4.910  20.188  0.00  0.00    +0.000 A 
ATOM      5  C   UNL     1       3.718   4.145  19.217  0.00  0.00    +0.000 A 
ATOM      6  C   UNL     1       4.725   4.280  18.221  0.00  0.00    +0.000 A 
ATOM      7  N   UNL     1       4.815   3.145  17.504  0.00  0.00    +0.000 NA
ATOM      8  O   UNL     1       3.933   2.247  18.087  0.00  0.00    +0.000 OA
ATOM      9  C   UNL     1       3.296   2.838  19.134  0.00  0.00    +0.000 A 
ATOM     10  N   UNL     1       2.406   2.222  19.926  0.00  0.00    +0.000 NA
ENDROOT
BRANCH   6  11
ATOM     11  C   UNL     1       5.639   5.405  17.980  0.00  0.00    +0.000 A 
ATOM     12  C   UNL     1       6.865   5.488  18.664  0.00  0.00    +0.000 A 
ATOM     13  C   UNL     1       7.753   6.541  18.437  0.00  0.00    +0.000 A 
ATOM     14  C   UNL     1       7.443   7.495  17.483  0.00  0.00    +0.000 A 
ATOM     15  F   UNL     1       8.310   8.484  17.235  0.00  0.00    +0.000 F 
ATOM     16  C   UNL     1       6.253   7.422  16.765  0.00  0.00    +0.000 A 
ATOM     17  C   UNL     1       5.348   6.386  17.019  0.00  0.00    +0.000 A 
ENDBRANCH   6  11
BRANCH   4  18
ATOM     18  O   UNL     1       3.238   6.270  20.182  0.00  0.00    +0.000 OA
BRANCH  18  19
ATOM     19  C   UNL     1       2.446   6.936  19.202  0.00  0.00    +0.000 C 
BRANCH  19  20
ATOM     20  C   UNL     1       1.664   7.970  20.000  0.00  0.00    +0.000 C 
ATOM     21  O   UNL     1       1.289   7.779  21.152  0.00  0.00    +0.000 OA
ATOM     22  N   UNL     1       1.404   9.120  19.280  0.00  0.00    +0.000 N 
ATOM     23  H   UNL     1       1.902   9.240  18.406  0.00  0.00    +0.000 HD
BRANCH  22  24
ATOM     24  C   UNL     1       0.713  10.258  19.835  0.00  0.00    +0.000 C 
BRANCH  24  25
ATOM     25  C   UNL     1      -0.520  10.631  19.057  0.00  0.00    +0.000 A 
ATOM     26  C   UNL     1      -1.459  11.539  19.554  0.00  0.00    +0.000 A 
ATOM     27  C   UNL     1      -2.619  11.803  18.828  0.00  0.00    +0.000 A 
ATOM     28  C   UNL     1      -2.801  11.148  17.623  0.00  0.00    +0.000 A 
ATOM     29  N   UNL     1      -1.914  10.274  17.103  0.00  0.00    +0.000 NA
ATOM     30  C   UNL     1      -0.798  10.035  17.832  0.00  0.00    +0.000 A 
ENDBRANCH  24  25
ENDBRANCH  22  24
ENDBRANCH  19  20
ENDBRANCH  18  19
ENDBRANCH   4  18
TORSDOF 6
ENDMDL
