MODEL 1
REMARK VINA RESULT:      -6.4      0.000      0.000
REMARK  Name = 
REMARK  2 active torsions:
REMARK  status: ('A' for Active; 'I' for Inactive)
REMARK    1  A    between atoms: C_1  and  C_2
REMARK    2  A    between atoms: C_5  and  C_6
REMARK                            x       y       z     vdW  Elec       q    Type
REMARK                         _______ _______ _______ _____ _____    ______ ____
ROOT
ATOM      1  C   UNL     1       7.215   6.988  17.619  0.00  0.00    +0.000 C 
ATOM      2  C   UNL     1       6.262   5.855  17.849  0.00  0.00    +0.000 C 
ATOM      3  C   UNL     1       5.332   5.507  16.952  0.00  0.00    +0.000 C 
ATOM      4  C   UNL     1       4.376   4.389  17.156  0.00  0.00    +0.000 C 
ATOM      5  C   UNL     1       4.487   3.689  18.516  0.00  0.00    +0.000 C 
ATOM      6  O   UNL     1       5.581   4.092  19.364  0.00  0.00    +0.000 OA
ATOM      7  C   UNL     1       6.415   5.124  19.125  0.00  0.00    +0.000 C 
ATOM      8  O   UNL     1       7.279   5.442  19.931  0.00  0.00    +0.000 OA
ENDROOT
BRANCH   5   9
ATOM      9  C   UNL     1       3.222   3.882  19.316  0.00  0.00    +0.000 A 
ATOM     10  C   UNL     1       2.814   4.989  20.036  0.00  0.00    +0.000 A 
ATOM     11  C   UNL     1       1.506   4.833  20.578  0.00  0.00    +0.000 A 
ATOM     12  C   UNL     1       0.967   3.603  20.278  0.00  0.00    +0.000 A 
ATOM     13  S   UNL     1       2.034   2.641  19.352  0.00  0.00    +0.000 S 
ENDBRANCH   5   9
TORSDOF 1
ENDMDL
MODEL 2
REMARK VINA RESULT:      -6.4      1.462      1.518
REMARK  Name = 
REMARK  2 active torsions:
REMARK  status: ('A' for Active; 'I' for Inactive)
REMARK    1  A    between atoms: C_1  and  C_2
REMARK    2  A    between atoms: C_5  and  C_6
REMARK                            x       y       z     vdW  Elec       q    Type
REMARK                         _______ _______ _______ _____ _____    ______ ____
ROOT
ATOM      1  C   UNL     1       7.701   7.398  17.840  0.00  0.00    +0.000 C 
ATOM      2  C   UNL     1       6.879   6.166  17.608  0.00  0.00    +0.000 C 
ATOM      3  C   UNL     1       6.334   5.880  16.420  0.00  0.00    +0.000 C 
ATOM      4  C   UNL     1       5.516   4.668  16.165  0.00  0.00    +0.000 C 
ATOM      5  C   UNL     1       5.278   3.783  17.394  0.00  0.00    +0.000 C 
ATOM      6  O   UNL     1       5.985   4.144  18.598  0.00  0.00    +0.000 OA
ATOM      7  C   UNL     1       6.711   5.268  18.769  0.00  0.00    +0.000 C 
ATOM      8  O   UNL     1       7.225   5.532  19.848  0.00  0.00    +0.000 OA
ENDROOT
BRANCH   5   9
ATOM      9  C   UNL     1       3.811   3.746  17.745  0.00  0.00    +0.000 A 
ATOM     10  C   UNL     1       2.886   4.771  17.707  0.00  0.00    +0.000 A 
ATOM     11  C   UNL     1       1.569   4.327  18.014  0.00  0.00    +0.000 A 
ATOM     12  C   UNL     1       1.532   2.982  18.303  0.00  0.00    +0.000 A 
ATOM     13  S   UNL     1       3.079   2.262  18.208  0.00  0.00    +0.000 S 
ENDBRANCH   5   9
TORSDOF 1
ENDMDL
MODEL 3
REMARK VINA RESULT:      -6.4      0.968      1.046
REMARK  Name = 
REMARK  2 active torsions:
REMARK  status: ('A' for Active; 'I' for Inactive)
REMARK    1  A    between atoms: C_1  and  C_2
REMARK    2  A    between atoms: C_5  and  C_6
REMARK                            x       y       z     vdW  Elec       q    Type
REMARK                         _______ _______ _______ _____ _____    ______ ____
ROOT
ATOM      1  C   UNL     1       6.370   6.806  17.464  0.00  0.00    +0.000 C 
ATOM      2  C   UNL     1       5.631   5.537  17.764  0.00  0.00    +0.000 C 
ATOM      3  C   UNL     1       4.728   5.017  16.924  0.00  0.00    +0.000 C 
ATOM      4  C   UNL     1       3.982   3.763  17.197  0.00  0.00    +0.000 C 
ATOM      5  C   UNL     1       4.273   3.127  18.562  0.00  0.00    +0.000 C 
ATOM      6  O   UNL     1       5.326   3.727  19.344  0.00  0.00    +0.000 OA
ATOM      7  C   UNL     1       5.965   4.876  19.043  0.00  0.00    +0.000 C 
ATOM      8  O   UNL     1       6.802   5.352  19.797  0.00  0.00    +0.000 OA
ENDROOT
BRANCH   5   9
ATOM      9  C   UNL     1       3.035   3.130  19.424  0.00  0.00    +0.000 A 
ATOM     10  C   UNL     1       2.922   2.884  20.778  0.00  0.00    +0.000 A 
ATOM     11  C   UNL     1       1.596   3.079  21.259  0.00  0.00    +0.000 A 
ATOM     12  C   UNL     1       0.731   3.444  20.251  0.00  0.00    +0.000 A 
ATOM     13  S   UNL     1       1.515   3.544  18.736  0.00  0.00    +0.000 S 
ENDBRANCH   5   9
TORSDOF 1
ENDMDL
MODEL 4
REMARK VINA RESULT:      -6.3      0.897      1.141
REMARK  Name = 
REMARK  2 active torsions:
REMARK  status: ('A' for Active; 'I' for Inactive)
REMARK    1  A    between atoms: C_1  and  C_2
REMARK    2  A    between atoms: C_5  and  C_6
REMARK                            x       y       z     vdW  Elec       q    Type
REMARK                         _______ _______ _______ _____ _____    ______ ____
ROOT
ATOM      1  C   UNL     1       7.106   6.944  17.559  0.00  0.00    +0.000 C 
ATOM      2  C   UNL     1       6.171   5.796  17.791  0.00  0.00    +0.000 C 
ATOM      3  C   UNL     1       5.263   5.415  16.884  0.00  0.00    +0.000 C 
ATOM      4  C   UNL     1       4.326   4.283  17.089  0.00  0.00    +0.000 C 
ATOM      5  C   UNL     1       4.425   3.607  18.462  0.00  0.00    +0.000 C 
ATOM      6  O   UNL     1       5.497   4.044  19.322  0.00  0.00    +0.000 OA
ATOM      7  C   UNL     1       6.315   5.089  19.081  0.00  0.00    +0.000 C 
ATOM      8  O   UNL     1       7.158   5.436  19.896  0.00  0.00    +0.000 OA
ENDROOT
BRANCH   5   9
ATOM      9  C   UNL     1       3.144   3.788  19.237  0.00  0.00    +0.000 A 
ATOM     10  C   UNL     1       2.258   2.825  19.682  0.00  0.00    +0.000 A 
ATOM     11  C   UNL     1       1.208   3.375  20.470  0.00  0.00    +0.000 A 
ATOM     12  C   UNL     1       1.309   4.743  20.582  0.00  0.00    +0.000 A 
ATOM     13  S   UNL     1       2.659   5.359  19.736  0.00  0.00    +0.000 S 
ENDBRANCH   5   9
TORSDOF 1
ENDMDL
MODEL 5
REMARK VINA RESULT:      -6.2      1.673      1.895
REMARK  Name = 
REMARK  2 active torsions:
REMARK  status: ('A' for Active; 'I' for Inactive)
REMARK    1  A    between atoms: C_1  and  C_2
REMARK    2  A    between atoms: C_5  and  C_6
REMARK                            x       y       z     vdW  Elec       q    Type
REMARK                         _______ _______ _______ _____ _____    ______ ____
ROOT
ATOM      1  C   UNL     1       8.009   7.229  18.219  0.00  0.00    +0.000 C 
ATOM      2  C   UNL     1       6.909   6.411  17.615  0.00  0.00    +0.000 C 
ATOM      3  C   UNL     1       5.884   6.963  16.954  0.00  0.00    +0.000 C 
ATOM      4  C   UNL     1       4.781   6.175  16.347  0.00  0.00    +0.000 C 
ATOM      5  C   UNL     1       4.864   4.663  16.589  0.00  0.00    +0.000 C 
ATOM      6  O   UNL     1       6.056   4.175  17.237  0.00  0.00    +0.000 OA
ATOM      7  C   UNL     1       7.023   4.946  17.775  0.00  0.00    +0.000 C 
ATOM      8  O   UNL     1       7.971   4.451  18.368  0.00  0.00    +0.000 OA
ENDROOT
BRANCH   5   9
ATOM      9  C   UNL     1       3.694   4.194  17.418  0.00  0.00    +0.000 A 
ATOM     10  C   UNL     1       2.588   4.909  17.836  0.00  0.00    +0.000 A 
ATOM     11  C   UNL     1       1.641   4.095  18.521  0.00  0.00    +0.000 A 
ATOM     12  C   UNL     1       2.065   2.789  18.627  0.00  0.00    +0.000 A 
ATOM     13  S   UNL     1       3.597   2.551  17.909  0.00  0.00    +0.000 S 
ENDBRANCH   5   9
TORSDOF 1
ENDMDL
MODEL 6
REMARK VINA RESULT:      -6.1      1.205      1.222
REMARK  Name = 
REMARK  2 active torsions:
REMARK  status: ('A' for Active; 'I' for Inactive)
REMARK    1  A    between atoms: C_1  and  C_2
REMARK    2  A    between atoms: C_5  and  C_6
REMARK                            x       y       z     vdW  Elec       q    Type
REMARK                         _______ _______ _______ _____ _____    ______ ____
ROOT
ATOM      1  C   UNL     1       7.570   7.230  17.609  0.00  0.00    +0.000 C 
ATOM      2  C   UNL     1       6.387   6.312  17.670  0.00  0.00    +0.000 C 
ATOM      3  C   UNL     1       5.149   6.714  17.360  0.00  0.00    +0.000 C 
ATOM      4  C   UNL     1       3.961   5.825  17.413  0.00  0.00    +0.000 C 
ATOM      5  C   UNL     1       4.244   4.405  17.919  0.00  0.00    +0.000 C 
ATOM      6  O   UNL     1       5.627   4.060  18.140  0.00  0.00    +0.000 OA
ATOM      7  C   UNL     1       6.665   4.919  18.081  0.00  0.00    +0.000 C 
ATOM      8  O   UNL     1       7.802   4.558  18.348  0.00  0.00    +0.000 OA
ENDROOT
BRANCH   5   9
ATOM      9  C   UNL     1       3.519   4.151  19.218  0.00  0.00    +0.000 A 
ATOM     10  C   UNL     1       2.651   4.980  19.900  0.00  0.00    +0.000 A 
ATOM     11  C   UNL     1       2.083   4.350  21.044  0.00  0.00    +0.000 A 
ATOM     12  C   UNL     1       2.556   3.068  21.215  0.00  0.00    +0.000 A 
ATOM     13  S   UNL     1       3.680   2.632  20.004  0.00  0.00    +0.000 S 
ENDBRANCH   5   9
TORSDOF 1
ENDMDL
MODEL 7
REMARK VINA RESULT:      -6.0      2.224      4.802
REMARK  Name = 
REMARK  2 active torsions:
REMARK  status: ('A' for Active; 'I' for Inactive)
REMARK    1  A    between atoms: C_1  and  C_2
REMARK    2  A    between atoms: C_5  and  C_6
REMARK                            x       y       z     vdW  Elec       q    Type
REMARK                         _______ _______ _______ _____ _____    ______ ____
ROOT
ATOM      1  C   UNL     1       0.801   2.363  18.845  0.00  0.00    +0.000 C 
ATOM      2  C   UNL     1       1.814   3.467  18.852  0.00  0.00    +0.000 C 
ATOM      3  C   UNL     1       1.835   4.427  17.919  0.00  0.00    +0.000 C 
ATOM      4  C   UNL     1       2.827   5.531  17.903  0.00  0.00    +0.000 C 
ATOM      5  C   UNL     1       3.886   5.459  19.010  0.00  0.00    +0.000 C 
ATOM      6  O   UNL     1       3.712   4.431  20.007  0.00  0.00    +0.000 OA
ATOM      7  C   UNL     1       2.789   3.449  19.962  0.00  0.00    +0.000 C 
ATOM      8  O   UNL     1       2.752   2.574  20.816  0.00  0.00    +0.000 OA
ENDROOT
BRANCH   5   9
ATOM      9  C   UNL     1       5.260   5.262  18.418  0.00  0.00    +0.000 A 
ATOM     10  C   UNL     1       6.493   5.418  19.021  0.00  0.00    +0.000 A 
ATOM     11  C   UNL     1       7.568   5.042  18.166  0.00  0.00    +0.000 A 
ATOM     12  C   UNL     1       7.124   4.635  16.928  0.00  0.00    +0.000 A 
ATOM     13  S   UNL     1       5.422   4.712  16.798  0.00  0.00    +0.000 S 
ENDBRANCH   5   9
TORSDOF 1
ENDMDL
MODEL 8
REMARK VINA RESULT:      -6.0      2.387      4.985
REMARK  Name = 
REMARK  2 active torsions:
REMARK  status: ('A' for Active; 'I' for Inactive)
REMARK    1  A    between atoms: C_1  and  C_2
REMARK    2  A    between atoms: C_5  and  C_6
REMARK                            x       y       z     vdW  Elec       q    Type
REMARK                         _______ _______ _______ _____ _____    ______ ____
ROOT
ATOM      1  C   UNL     1       0.889   3.756  19.986  0.00  0.00    +0.000 C 
ATOM      2  C   UNL     1       2.333   3.990  19.661  0.00  0.00    +0.000 C 
ATOM      3  C   UNL     1       2.902   5.198  19.749  0.00  0.00    +0.000 C 
ATOM      4  C   UNL     1       4.330   5.455  19.432  0.00  0.00    +0.000 C 
ATOM      5  C   UNL     1       5.106   4.233  18.926  0.00  0.00    +0.000 C 
ATOM      6  O   UNL     1       4.414   2.969  18.956  0.00  0.00    +0.000 OA
ATOM      7  C   UNL     1       3.108   2.800  19.249  0.00  0.00    +0.000 C 
ATOM      8  O   UNL     1       2.581   1.698  19.186  0.00  0.00    +0.000 OA
ENDROOT
BRANCH   5   9
ATOM      9  C   UNL     1       5.562   4.446  17.504  0.00  0.00    +0.000 A 
ATOM     10  C   UNL     1       4.798   4.583  16.362  0.00  0.00    +0.000 A 
ATOM     11  C   UNL     1       5.585   4.873  15.211  0.00  0.00    +0.000 A 
ATOM     12  C   UNL     1       6.929   4.922  15.506  0.00  0.00    +0.000 A 
ATOM     13  S   UNL     1       7.237   4.616  17.159  0.00  0.00    +0.000 S 
ENDBRANCH   5   9
TORSDOF 1
ENDMDL
MODEL 9
REMARK VINA RESULT:      -6.0      1.849      1.949
REMARK  Name = 
REMARK  2 active torsions:
REMARK  status: ('A' for Active; 'I' for Inactive)
REMARK    1  A    between atoms: C_1  and  C_2
REMARK    2  A    between atoms: C_5  and  C_6
REMARK                            x       y       z     vdW  Elec       q    Type
REMARK                         _______ _______ _______ _____ _____    ______ ____
ROOT
ATOM      1  C   UNL     1       7.694   7.146  17.676  0.00  0.00    +0.000 C 
ATOM      2  C   UNL     1       6.534   6.234  17.413  0.00  0.00    +0.000 C 
ATOM      3  C   UNL     1       5.269   6.671  17.385  0.00  0.00    +0.000 C 
ATOM      4  C   UNL     1       4.104   5.789  17.128  0.00  0.00    +0.000 C 
ATOM      5  C   UNL     1       4.447   4.304  16.959  0.00  0.00    +0.000 C 
ATOM      6  O   UNL     1       5.847   3.963  16.922  0.00  0.00    +0.000 OA
ATOM      7  C   UNL     1       6.864   4.814  17.170  0.00  0.00    +0.000 C 
ATOM      8  O   UNL     1       8.025   4.428  17.184  0.00  0.00    +0.000 OA
ENDROOT
BRANCH   5   9
ATOM      9  C   UNL     1       3.829   3.487  18.067  0.00  0.00    +0.000 A 
ATOM     10  C   UNL     1       4.220   3.386  19.389  0.00  0.00    +0.000 A 
ATOM     11  C   UNL     1       3.325   2.592  20.161  0.00  0.00    +0.000 A 
ATOM     12  C   UNL     1       2.293   2.091  19.401  0.00  0.00    +0.000 A 
ATOM     13  S   UNL     1       2.408   2.571  17.765  0.00  0.00    +0.000 S 
ENDBRANCH   5   9
TORSDOF 1
ENDMDL
