MODEL 1
REMARK VINA RESULT:      -8.5      0.000      0.000
REMARK  Name = 
REMARK  4 active torsions:
REMARK  status: ('A' for Active; 'I' for Inactive)
REMARK    1  A    between atoms: N_3  and  C_4
REMARK    2  A    between atoms: N_10  and  C_11
REMARK    3  A    between atoms: C_11  and  C_12
REMARK    4  A    between atoms: C_11  and  C_18
REMARK                            x       y       z     vdW  Elec       q    Type
REMARK                         _______ _______ _______ _____ _____    ______ ____
ROOT
ATOM      1  C   UNL     1       3.050   5.964  18.658  0.00  0.00    +0.000 C 
ENDROOT
BRANCH   1   5
ATOM      2  O   UNL     1       1.445   8.234  18.865  0.00  0.00    +0.000 OA
ATOM      3  C   UNL     1       1.927   7.781  19.895  0.00  0.00    +0.000 C 
ATOM      4  N   UNL     1       1.759   8.281  21.170  0.00  0.00    +0.000 N 
ATOM      5  N   UNL     1       2.710   6.651  19.900  0.00  0.00    +0.000 N 
ATOM      6  H   UNL     1       2.310   7.860  21.899  0.00  0.00    +0.000 HD
ATOM      7  H   UNL     1       3.377   6.558  20.645  0.00  0.00    +0.000 HD
BRANCH   4   8
ATOM      8  C   UNL     1       0.958   9.384  21.541  0.00  0.00    +0.000 A 
ATOM      9  C   UNL     1       0.995  10.615  20.881  0.00  0.00    +0.000 A 
ATOM     10  C   UNL     1       0.201  11.678  21.308  0.00  0.00    +0.000 A 
ATOM     11  C   UNL     1      -0.645  11.523  22.403  0.00  0.00    +0.000 A 
ATOM     12  C   UNL     1      -0.707  10.294  23.057  0.00  0.00    +0.000 A 
ATOM     13  C   UNL     1       0.081   9.224  22.621  0.00  0.00    +0.000 A 
ENDBRANCH   4   8
ENDBRANCH   1   5
BRANCH   1  14
ATOM     14  C   UNL     1       4.560   6.036  18.443  0.00  0.00    +0.000 A 
ATOM     15  C   UNL     1       5.473   5.405  19.300  0.00  0.00    +0.000 A 
ATOM     16  C   UNL     1       6.851   5.549  19.112  0.00  0.00    +0.000 A 
ATOM     17  C   UNL     1       7.337   6.334  18.070  0.00  0.00    +0.000 A 
ATOM     18  C   UNL     1       6.447   6.971  17.209  0.00  0.00    +0.000 A 
ATOM     19  C   UNL     1       5.071   6.826  17.394  0.00  0.00    +0.000 A 
ENDBRANCH   1  14
BRANCH   1  20
ATOM     20  C   UNL     1       2.464   4.552  18.627  0.00  0.00    +0.000 A 
ATOM     21  C   UNL     1       1.481   4.191  19.568  0.00  0.00    +0.000 A 
ATOM     22  C   UNL     1       0.950   2.899  19.588  0.00  0.00    +0.000 A 
ATOM     23  C   UNL     1       1.382   1.950  18.665  0.00  0.00    +0.000 A 
ATOM     24  C   UNL     1       2.338   2.293  17.715  0.00  0.00    +0.000 A 
ATOM     25  C   UNL     1       2.871   3.583  17.693  0.00  0.00    +0.000 A 
ENDBRANCH   1  20
TORSDOF 4
ENDMDL
MODEL 2
REMARK VINA RESULT:      -8.5      2.156      4.332
REMARK  Name = 
REMARK  4 active torsions:
REMARK  status: ('A' for Active; 'I' for Inactive)
REMARK    1  A    between atoms: N_3  and  C_4
REMARK    2  A    between atoms: N_10  and  C_11
REMARK    3  A    between atoms: C_11  and  C_12
REMARK    4  A    between atoms: C_11  and  C_18
REMARK                            x       y       z     vdW  Elec       q    Type
REMARK                         _______ _______ _______ _____ _____    ______ ____
ROOT
ATOM      1  C   UNL     1       3.401   6.257  18.841  0.00  0.00    +0.000 C 
ENDROOT
BRANCH   1   5
ATOM      2  O   UNL     1       1.881   8.272  20.025  0.00  0.00    +0.000 OA
ATOM      3  C   UNL     1       1.939   8.245  18.802  0.00  0.00    +0.000 C 
ATOM      4  N   UNL     1       1.323   9.121  17.932  0.00  0.00    +0.000 N 
ATOM      5  N   UNL     1       2.683   7.308  18.126  0.00  0.00    +0.000 N 
ATOM      6  H   UNL     1       1.379   8.901  16.952  0.00  0.00    +0.000 HD
ATOM      7  H   UNL     1       2.394   7.079  17.192  0.00  0.00    +0.000 HD
BRANCH   4   8
ATOM      8  C   UNL     1       0.545  10.247  18.282  0.00  0.00    +0.000 A 
ATOM      9  C   UNL     1       1.094  11.435  18.771  0.00  0.00    +0.000 A 
ATOM     10  C   UNL     1       0.274  12.506  19.126  0.00  0.00    +0.000 A 
ATOM     11  C   UNL     1      -1.108  12.403  18.993  0.00  0.00    +0.000 A 
ATOM     12  C   UNL     1      -1.665  11.231  18.486  0.00  0.00    +0.000 A 
ATOM     13  C   UNL     1      -0.843  10.161  18.119  0.00  0.00    +0.000 A 
ENDBRANCH   4   8
ENDBRANCH   1   5
BRANCH   1  14
ATOM     14  C   UNL     1       2.442   5.106  19.135  0.00  0.00    +0.000 A 
ATOM     15  C   UNL     1       2.010   4.799  20.434  0.00  0.00    +0.000 A 
ATOM     16  C   UNL     1       1.187   3.696  20.674  0.00  0.00    +0.000 A 
ATOM     17  C   UNL     1       0.791   2.875  19.621  0.00  0.00    +0.000 A 
ATOM     18  C   UNL     1       1.211   3.160  18.325  0.00  0.00    +0.000 A 
ATOM     19  C   UNL     1       2.031   4.264  18.083  0.00  0.00    +0.000 A 
ENDBRANCH   1  14
BRANCH   1  20
ATOM     20  C   UNL     1       4.677   5.855  18.100  0.00  0.00    +0.000 A 
ATOM     21  C   UNL     1       4.803   6.153  16.729  0.00  0.00    +0.000 A 
ATOM     22  C   UNL     1       5.941   5.770  16.016  0.00  0.00    +0.000 A 
ATOM     23  C   UNL     1       6.976   5.094  16.659  0.00  0.00    +0.000 A 
ATOM     24  C   UNL     1       6.878   4.808  18.017  0.00  0.00    +0.000 A 
ATOM     25  C   UNL     1       5.742   5.189  18.732  0.00  0.00    +0.000 A 
ENDBRANCH   1  20
TORSDOF 4
ENDMDL
MODEL 3
REMARK VINA RESULT:      -8.5      2.178      4.376
REMARK  Name = 
REMARK  4 active torsions:
REMARK  status: ('A' for Active; 'I' for Inactive)
REMARK    1  A    between atoms: N_3  and  C_4
REMARK    2  A    between atoms: N_10  and  C_11
REMARK    3  A    between atoms: C_11  and  C_12
REMARK    4  A    between atoms: C_11  and  C_18
REMARK                            x       y       z     vdW  Elec       q    Type
REMARK                         _______ _______ _______ _____ _____    ______ ____
ROOT
ATOM      1  C   UNL     1       3.421   6.184  18.813  0.00  0.00    +0.000 C 
ENDROOT
BRANCH   1   5
ATOM      2  O   UNL     1       1.954   8.222  20.022  0.00  0.00    +0.000 OA
ATOM      3  C   UNL     1       1.989   8.194  18.799  0.00  0.00    +0.000 C 
ATOM      4  N   UNL     1       1.370   9.078  17.939  0.00  0.00    +0.000 N 
ATOM      5  N   UNL     1       2.707   7.245  18.110  0.00  0.00    +0.000 N 
ATOM      6  H   UNL     1       1.405   8.856  16.958  0.00  0.00    +0.000 HD
ATOM      7  H   UNL     1       2.397   7.020  17.182  0.00  0.00    +0.000 HD
BRANCH   4   8
ATOM      8  C   UNL     1       0.616  10.216  18.302  0.00  0.00    +0.000 A 
ATOM      9  C   UNL     1      -0.781  10.238  18.309  0.00  0.00    +0.000 A 
ATOM     10  C   UNL     1      -1.475  11.398  18.651  0.00  0.00    +0.000 A 
ATOM     11  C   UNL     1      -0.777  12.554  18.993  0.00  0.00    +0.000 A 
ATOM     12  C   UNL     1       0.616  12.538  19.010  0.00  0.00    +0.000 A 
ATOM     13  C   UNL     1       1.311  11.371  18.679  0.00  0.00    +0.000 A 
ENDBRANCH   4   8
ENDBRANCH   1   5
BRANCH   1  14
ATOM     14  C   UNL     1       2.456   5.039  19.108  0.00  0.00    +0.000 A 
ATOM     15  C   UNL     1       1.983   4.768  20.401  0.00  0.00    +0.000 A 
ATOM     16  C   UNL     1       1.154   3.669  20.646  0.00  0.00    +0.000 A 
ATOM     17  C   UNL     1       0.793   2.819  19.604  0.00  0.00    +0.000 A 
ATOM     18  C   UNL     1       1.254   3.068  18.314  0.00  0.00    +0.000 A 
ATOM     19  C   UNL     1       2.080   4.167  18.067  0.00  0.00    +0.000 A 
ENDBRANCH   1  14
BRANCH   1  20
ATOM     20  C   UNL     1       4.688   5.776  18.059  0.00  0.00    +0.000 A 
ATOM     21  C   UNL     1       4.791   6.049  16.682  0.00  0.00    +0.000 A 
ATOM     22  C   UNL     1       5.920   5.659  15.958  0.00  0.00    +0.000 A 
ATOM     23  C   UNL     1       6.969   5.001  16.596  0.00  0.00    +0.000 A 
ATOM     24  C   UNL     1       6.894   4.740  17.961  0.00  0.00    +0.000 A 
ATOM     25  C   UNL     1       5.767   5.128  18.687  0.00  0.00    +0.000 A 
ENDBRANCH   1  20
TORSDOF 4
ENDMDL
MODEL 4
REMARK VINA RESULT:      -8.5      0.129      1.425
REMARK  Name = 
REMARK  4 active torsions:
REMARK  status: ('A' for Active; 'I' for Inactive)
REMARK    1  A    between atoms: N_3  and  C_4
REMARK    2  A    between atoms: N_10  and  C_11
REMARK    3  A    between atoms: C_11  and  C_12
REMARK    4  A    between atoms: C_11  and  C_18
REMARK                            x       y       z     vdW  Elec       q    Type
REMARK                         _______ _______ _______ _____ _____    ______ ____
ROOT
ATOM      1  C   UNL     1       2.967   6.024  18.709  0.00  0.00    +0.000 C 
ENDROOT
BRANCH   1   5
ATOM      2  O   UNL     1       1.339   8.276  18.932  0.00  0.00    +0.000 OA
ATOM      3  C   UNL     1       1.843   7.834  19.956  0.00  0.00    +0.000 C 
ATOM      4  N   UNL     1       1.690   8.338  21.231  0.00  0.00    +0.000 N 
ATOM      5  N   UNL     1       2.639   6.713  19.954  0.00  0.00    +0.000 N 
ATOM      6  H   UNL     1       2.257   7.927  21.953  0.00  0.00    +0.000 HD
ATOM      7  H   UNL     1       3.319   6.632  20.688  0.00  0.00    +0.000 HD
BRANCH   4   8
ATOM      8  C   UNL     1       0.883   9.433  21.611  0.00  0.00    +0.000 A 
ATOM      9  C   UNL     1       0.898  10.663  20.946  0.00  0.00    +0.000 A 
ATOM     10  C   UNL     1       0.098  11.719  21.382  0.00  0.00    +0.000 A 
ATOM     11  C   UNL     1      -0.731  11.557  22.489  0.00  0.00    +0.000 A 
ATOM     12  C   UNL     1      -0.771  10.329  23.146  0.00  0.00    +0.000 A 
ATOM     13  C   UNL     1       0.022   9.267  22.703  0.00  0.00    +0.000 A 
ENDBRANCH   4   8
ENDBRANCH   1   5
BRANCH   1  14
ATOM     14  C   UNL     1       4.469   6.130  18.458  0.00  0.00    +0.000 A 
ATOM     15  C   UNL     1       5.000   6.749  17.316  0.00  0.00    +0.000 A 
ATOM     16  C   UNL     1       6.378   6.767  17.085  0.00  0.00    +0.000 A 
ATOM     17  C   UNL     1       7.247   6.157  17.986  0.00  0.00    +0.000 A 
ATOM     18  C   UNL     1       6.741   5.534  19.124  0.00  0.00    +0.000 A 
ATOM     19  C   UNL     1       5.364   5.518  19.358  0.00  0.00    +0.000 A 
ENDBRANCH   1  14
BRANCH   1  20
ATOM     20  C   UNL     1       2.414   4.598  18.703  0.00  0.00    +0.000 A 
ATOM     21  C   UNL     1       2.892   3.677  17.751  0.00  0.00    +0.000 A 
ATOM     22  C   UNL     1       2.383   2.376  17.697  0.00  0.00    +0.000 A 
ATOM     23  C   UNL     1       1.400   1.971  18.596  0.00  0.00    +0.000 A 
ATOM     24  C   UNL     1       0.930   2.862  19.556  0.00  0.00    +0.000 A 
ATOM     25  C   UNL     1       1.435   4.161  19.612  0.00  0.00    +0.000 A 
ENDBRANCH   1  20
TORSDOF 4
ENDMDL
MODEL 5
REMARK VINA RESULT:      -8.5      0.185      1.432
REMARK  Name = 
REMARK  4 active torsions:
REMARK  status: ('A' for Active; 'I' for Inactive)
REMARK    1  A    between atoms: N_3  and  C_4
REMARK    2  A    between atoms: N_10  and  C_11
REMARK    3  A    between atoms: C_11  and  C_12
REMARK    4  A    between atoms: C_11  and  C_18
REMARK                            x       y       z     vdW  Elec       q    Type
REMARK                         _______ _______ _______ _____ _____    ______ ____
ROOT
ATOM      1  C   UNL     1       2.935   6.070  18.750  0.00  0.00    +0.000 C 
ENDROOT
BRANCH   1   5
ATOM      2  O   UNL     1       1.278   8.294  19.034  0.00  0.00    +0.000 OA
ATOM      3  C   UNL     1       1.812   7.849  20.041  0.00  0.00    +0.000 C 
ATOM      4  N   UNL     1       1.679   8.337  21.325  0.00  0.00    +0.000 N 
ATOM      5  N   UNL     1       2.624   6.740  20.009  0.00  0.00    +0.000 N 
ATOM      6  H   UNL     1       2.269   7.926  22.029  0.00  0.00    +0.000 HD
ATOM      7  H   UNL     1       3.322   6.661  20.727  0.00  0.00    +0.000 HD
BRANCH   4   8
ATOM      8  C   UNL     1       0.864   9.415  21.734  0.00  0.00    +0.000 A 
ATOM      9  C   UNL     1      -0.036   9.334  22.800  0.00  0.00    +0.000 A 
ATOM     10  C   UNL     1      -0.835  10.423  23.144  0.00  0.00    +0.000 A 
ATOM     11  C   UNL     1      -0.743  11.612  22.425  0.00  0.00    +0.000 A 
ATOM     12  C   UNL     1       0.165  11.712  21.374  0.00  0.00    +0.000 A 
ATOM     13  C   UNL     1       0.976  10.624  21.036  0.00  0.00    +0.000 A 
ENDBRANCH   4   8
ENDBRANCH   1   5
BRANCH   1  14
ATOM     14  C   UNL     1       4.437   6.159  18.492  0.00  0.00    +0.000 A 
ATOM     15  C   UNL     1       4.973   6.848  17.394  0.00  0.00    +0.000 A 
ATOM     16  C   UNL     1       6.350   6.849  17.151  0.00  0.00    +0.000 A 
ATOM     17  C   UNL     1       7.211   6.154  17.995  0.00  0.00    +0.000 A 
ATOM     18  C   UNL     1       6.699   5.461  19.089  0.00  0.00    +0.000 A 
ATOM     19  C   UNL     1       5.324   5.461  19.335  0.00  0.00    +0.000 A 
ENDBRANCH   1  14
BRANCH   1  20
ATOM     20  C   UNL     1       2.362   4.652  18.720  0.00  0.00    +0.000 A 
ATOM     21  C   UNL     1       1.481   4.242  19.739  0.00  0.00    +0.000 A 
ATOM     22  C   UNL     1       0.966   2.944  19.760  0.00  0.00    +0.000 A 
ATOM     23  C   UNL     1       1.312   2.038  18.760  0.00  0.00    +0.000 A 
ATOM     24  C   UNL     1       2.166   2.430  17.735  0.00  0.00    +0.000 A 
ATOM     25  C   UNL     1       2.682   3.727  17.712  0.00  0.00    +0.000 A 
ENDBRANCH   1  20
TORSDOF 4
ENDMDL
MODEL 6
REMARK VINA RESULT:      -8.4      2.147      4.296
REMARK  Name = 
REMARK  4 active torsions:
REMARK  status: ('A' for Active; 'I' for Inactive)
REMARK    1  A    between atoms: N_3  and  C_4
REMARK    2  A    between atoms: N_10  and  C_11
REMARK    3  A    between atoms: C_11  and  C_12
REMARK    4  A    between atoms: C_11  and  C_18
REMARK                            x       y       z     vdW  Elec       q    Type
REMARK                         _______ _______ _______ _____ _____    ______ ____
ROOT
ATOM      1  C   UNL     1       3.391   6.257  18.827  0.00  0.00    +0.000 C 
ENDROOT
BRANCH   1   5
ATOM      2  O   UNL     1       1.889   8.276  20.024  0.00  0.00    +0.000 OA
ATOM      3  C   UNL     1       1.934   8.248  18.802  0.00  0.00    +0.000 C 
ATOM      4  N   UNL     1       1.311   9.125  17.937  0.00  0.00    +0.000 N 
ATOM      5  N   UNL     1       2.669   7.309  18.118  0.00  0.00    +0.000 N 
ATOM      6  H   UNL     1       1.356   8.903  16.956  0.00  0.00    +0.000 HD
ATOM      7  H   UNL     1       2.369   7.080  17.188  0.00  0.00    +0.000 HD
BRANCH   4   8
ATOM      8  C   UNL     1       0.540  10.252  18.294  0.00  0.00    +0.000 A 
ATOM      9  C   UNL     1       1.096  11.437  18.784  0.00  0.00    +0.000 A 
ATOM     10  C   UNL     1       0.283  12.511  19.146  0.00  0.00    +0.000 A 
ATOM     11  C   UNL     1      -1.100  12.414  19.019  0.00  0.00    +0.000 A 
ATOM     12  C   UNL     1      -1.665  11.246  18.511  0.00  0.00    +0.000 A 
ATOM     13  C   UNL     1      -0.850  10.173  18.137  0.00  0.00    +0.000 A 
ENDBRANCH   4   8
ENDBRANCH   1   5
BRANCH   1  14
ATOM     14  C   UNL     1       2.435   5.106  19.127  0.00  0.00    +0.000 A 
ATOM     15  C   UNL     1       1.998   4.809  20.427  0.00  0.00    +0.000 A 
ATOM     16  C   UNL     1       1.176   3.705  20.673  0.00  0.00    +0.000 A 
ATOM     17  C   UNL     1       0.787   2.874  19.625  0.00  0.00    +0.000 A 
ATOM     18  C   UNL     1       1.212   3.149  18.328  0.00  0.00    +0.000 A 
ATOM     19  C   UNL     1       2.031   4.253  18.080  0.00  0.00    +0.000 A 
ENDBRANCH   1  14
BRANCH   1  20
ATOM     20  C   UNL     1       4.663   5.855  18.076  0.00  0.00    +0.000 A 
ATOM     21  C   UNL     1       5.713   5.235  18.779  0.00  0.00    +0.000 A 
ATOM     22  C   UNL     1       6.900   4.886  18.130  0.00  0.00    +0.000 A 
ATOM     23  C   UNL     1       7.054   5.140  16.769  0.00  0.00    +0.000 A 
ATOM     24  C   UNL     1       6.020   5.735  16.053  0.00  0.00    +0.000 A 
ATOM     25  C   UNL     1       4.833   6.085  16.699  0.00  0.00    +0.000 A 
ENDBRANCH   1  20
TORSDOF 4
ENDMDL
MODEL 7
REMARK VINA RESULT:      -8.4      2.154      4.348
REMARK  Name = 
REMARK  4 active torsions:
REMARK  status: ('A' for Active; 'I' for Inactive)
REMARK    1  A    between atoms: N_3  and  C_4
REMARK    2  A    between atoms: N_10  and  C_11
REMARK    3  A    between atoms: C_11  and  C_12
REMARK    4  A    between atoms: C_11  and  C_18
REMARK                            x       y       z     vdW  Elec       q    Type
REMARK                         _______ _______ _______ _____ _____    ______ ____
ROOT
ATOM      1  C   UNL     1       3.384   6.270  18.847  0.00  0.00    +0.000 C 
ENDROOT
BRANCH   1   5
ATOM      2  O   UNL     1       1.877   8.284  20.047  0.00  0.00    +0.000 OA
ATOM      3  C   UNL     1       1.920   8.257  18.825  0.00  0.00    +0.000 C 
ATOM      4  N   UNL     1       1.294   9.131  17.961  0.00  0.00    +0.000 N 
ATOM      5  N   UNL     1       2.658   7.320  18.140  0.00  0.00    +0.000 N 
ATOM      6  H   UNL     1       1.338   8.911  16.980  0.00  0.00    +0.000 HD
ATOM      7  H   UNL     1       2.357   7.090  17.210  0.00  0.00    +0.000 HD
BRANCH   4   8
ATOM      8  C   UNL     1       0.519  10.257  18.319  0.00  0.00    +0.000 A 
ATOM      9  C   UNL     1      -0.878  10.261  18.306  0.00  0.00    +0.000 A 
ATOM     10  C   UNL     1      -1.592  11.410  18.644  0.00  0.00    +0.000 A 
ATOM     11  C   UNL     1      -0.915  12.572  19.005  0.00  0.00    +0.000 A 
ATOM     12  C   UNL     1       0.478  12.574  19.043  0.00  0.00    +0.000 A 
ATOM     13  C   UNL     1       1.193  11.418  18.715  0.00  0.00    +0.000 A 
ENDBRANCH   4   8
ENDBRANCH   1   5
BRANCH   1  14
ATOM     14  C   UNL     1       2.434   5.112  19.140  0.00  0.00    +0.000 A 
ATOM     15  C   UNL     1       1.997   4.807  20.438  0.00  0.00    +0.000 A 
ATOM     16  C   UNL     1       1.181   3.698  20.678  0.00  0.00    +0.000 A 
ATOM     17  C   UNL     1       0.799   2.869  19.626  0.00  0.00    +0.000 A 
ATOM     18  C   UNL     1       1.224   3.152  18.331  0.00  0.00    +0.000 A 
ATOM     19  C   UNL     1       2.037   4.262  18.089  0.00  0.00    +0.000 A 
ENDBRANCH   1  14
BRANCH   1  20
ATOM     20  C   UNL     1       4.660   5.878  18.098  0.00  0.00    +0.000 A 
ATOM     21  C   UNL     1       5.689   5.211  18.789  0.00  0.00    +0.000 A 
ATOM     22  C   UNL     1       6.880   4.870  18.143  0.00  0.00    +0.000 A 
ATOM     23  C   UNL     1       7.059   5.179  16.796  0.00  0.00    +0.000 A 
ATOM     24  C   UNL     1       6.046   5.821  16.092  0.00  0.00    +0.000 A 
ATOM     25  C   UNL     1       4.855   6.163  16.735  0.00  0.00    +0.000 A 
ENDBRANCH   1  20
TORSDOF 4
ENDMDL
MODEL 8
REMARK VINA RESULT:      -8.4      2.201      4.427
REMARK  Name = 
REMARK  4 active torsions:
REMARK  status: ('A' for Active; 'I' for Inactive)
REMARK    1  A    between atoms: N_3  and  C_4
REMARK    2  A    between atoms: N_10  and  C_11
REMARK    3  A    between atoms: C_11  and  C_12
REMARK    4  A    between atoms: C_11  and  C_18
REMARK                            x       y       z     vdW  Elec       q    Type
REMARK                         _______ _______ _______ _____ _____    ______ ____
ROOT
ATOM      1  C   UNL     1       3.592   6.097  18.755  0.00  0.00    +0.000 C 
ENDROOT
BRANCH   1   5
ATOM      2  O   UNL     1       2.037   8.082  19.944  0.00  0.00    +0.000 OA
ATOM      3  C   UNL     1       2.098   8.061  18.722  0.00  0.00    +0.000 C 
ATOM      4  N   UNL     1       1.469   8.930  17.853  0.00  0.00    +0.000 N 
ATOM      5  N   UNL     1       2.859   7.139  18.043  0.00  0.00    +0.000 N 
ATOM      6  H   UNL     1       1.531   8.715  16.872  0.00  0.00    +0.000 HD
ATOM      7  H   UNL     1       2.574   6.909  17.108  0.00  0.00    +0.000 HD
BRANCH   4   8
ATOM      8  C   UNL     1       0.673  10.042  18.206  0.00  0.00    +0.000 A 
ATOM      9  C   UNL     1       1.197  11.220  18.745  0.00  0.00    +0.000 A 
ATOM     10  C   UNL     1       0.359  12.277  19.100  0.00  0.00    +0.000 A 
ATOM     11  C   UNL     1      -1.017  12.170  18.917  0.00  0.00    +0.000 A 
ATOM     12  C   UNL     1      -1.549  11.008  18.360  0.00  0.00    +0.000 A 
ATOM     13  C   UNL     1      -0.708   9.953  17.994  0.00  0.00    +0.000 A 
ENDBRANCH   4   8
ENDBRANCH   1   5
BRANCH   1  14
ATOM     14  C   UNL     1       2.641   4.949  19.082  0.00  0.00    +0.000 A 
ATOM     15  C   UNL     1       2.038   4.163  18.088  0.00  0.00    +0.000 A 
ATOM     16  C   UNL     1       1.119   3.165  18.421  0.00  0.00    +0.000 A 
ATOM     17  C   UNL     1       0.779   2.942  19.753  0.00  0.00    +0.000 A 
ATOM     18  C   UNL     1       1.363   3.712  20.755  0.00  0.00    +0.000 A 
ATOM     19  C   UNL     1       2.284   4.709  20.424  0.00  0.00    +0.000 A 
ENDBRANCH   1  14
BRANCH   1  20
ATOM     20  C   UNL     1       4.853   5.687  17.993  0.00  0.00    +0.000 A 
ATOM     21  C   UNL     1       4.918   5.897  16.602  0.00  0.00    +0.000 A 
ATOM     22  C   UNL     1       6.042   5.503  15.871  0.00  0.00    +0.000 A 
ATOM     23  C   UNL     1       7.123   4.906  16.516  0.00  0.00    +0.000 A 
ATOM     24  C   UNL     1       7.085   4.708  17.893  0.00  0.00    +0.000 A 
ATOM     25  C   UNL     1       5.963   5.100  18.625  0.00  0.00    +0.000 A 
ENDBRANCH   1  20
TORSDOF 4
ENDMDL
MODEL 9
REMARK VINA RESULT:      -8.4      2.244      4.472
REMARK  Name = 
REMARK  4 active torsions:
REMARK  status: ('A' for Active; 'I' for Inactive)
REMARK    1  A    between atoms: N_3  and  C_4
REMARK    2  A    between atoms: N_10  and  C_11
REMARK    3  A    between atoms: C_11  and  C_12
REMARK    4  A    between atoms: C_11  and  C_18
REMARK                            x       y       z     vdW  Elec       q    Type
REMARK                         _______ _______ _______ _____ _____    ______ ____
ROOT
ATOM      1  C   UNL     1       3.636   6.057  18.753  0.00  0.00    +0.000 C 
ENDROOT
BRANCH   1   5
ATOM      2  O   UNL     1       2.072   8.040  19.934  0.00  0.00    +0.000 OA
ATOM      3  C   UNL     1       2.148   8.026  18.712  0.00  0.00    +0.000 C 
ATOM      4  N   UNL     1       1.533   8.902  17.841  0.00  0.00    +0.000 N 
ATOM      5  N   UNL     1       2.915   7.105  18.038  0.00  0.00    +0.000 N 
ATOM      6  H   UNL     1       1.606   8.692  16.860  0.00  0.00    +0.000 HD
ATOM      7  H   UNL     1       2.642   6.881  17.098  0.00  0.00    +0.000 HD
BRANCH   4   8
ATOM      8  C   UNL     1       0.735  10.013  18.191  0.00  0.00    +0.000 A 
ATOM      9  C   UNL     1      -0.659  10.013  18.105  0.00  0.00    +0.000 A 
ATOM     10  C   UNL     1      -1.396  11.149  18.438  0.00  0.00    +0.000 A 
ATOM     11  C   UNL     1      -0.744  12.303  18.865  0.00  0.00    +0.000 A 
ATOM     12  C   UNL     1       0.645  12.309  18.975  0.00  0.00    +0.000 A 
ATOM     13  C   UNL     1       1.382  11.166  18.652  0.00  0.00    +0.000 A 
ENDBRANCH   4   8
ENDBRANCH   1   5
BRANCH   1  14
ATOM     14  C   UNL     1       2.670   4.924  19.089  0.00  0.00    +0.000 A 
ATOM     15  C   UNL     1       2.041   4.152  18.101  0.00  0.00    +0.000 A 
ATOM     16  C   UNL     1       1.110   3.168  18.443  0.00  0.00    +0.000 A 
ATOM     17  C   UNL     1       0.785   2.946  19.779  0.00  0.00    +0.000 A 
ATOM     18  C   UNL     1       1.396   3.702  20.776  0.00  0.00    +0.000 A 
ATOM     19  C   UNL     1       2.329   4.685  20.435  0.00  0.00    +0.000 A 
ENDBRANCH   1  14
BRANCH   1  20
ATOM     20  C   UNL     1       4.889   5.626  17.989  0.00  0.00    +0.000 A 
ATOM     21  C   UNL     1       4.899   5.698  16.583  0.00  0.00    +0.000 A 
ATOM     22  C   UNL     1       6.015   5.281  15.853  0.00  0.00    +0.000 A 
ATOM     23  C   UNL     1       7.142   4.796  16.514  0.00  0.00    +0.000 A 
ATOM     24  C   UNL     1       7.158   4.736  17.904  0.00  0.00    +0.000 A 
ATOM     25  C   UNL     1       6.044   5.152  18.635  0.00  0.00    +0.000 A 
ENDBRANCH   1  20
TORSDOF 4
ENDMDL
