MODEL 1
REMARK VINA RESULT:      -6.0      0.000      0.000
REMARK  Name = 
REMARK  6 active torsions:
REMARK  status: ('A' for Active; 'I' for Inactive)
REMARK    1  A    between atoms: C_2  and  C_3
REMARK    2  A    between atoms: C_3  and  N_4
REMARK    3  A    between atoms: N_4  and  C_5
REMARK    4  A    between atoms: N_4  and  S_6
REMARK    5  A    between atoms: S_6  and  C_9
REMARK    6  A    between atoms: C_11  and  C_12
REMARK                            x       y       z     vdW  Elec       q    Type
REMARK                         _______ _______ _______ _____ _____    ______ ____
ROOT
ATOM      1  S   UNL     1       5.124   4.611  17.640  0.00  0.00    +0.000 S 
ATOM      2  O   UNL     1       4.395   3.834  16.661  0.00  0.00    +0.000 OA
ATOM      3  O   UNL     1       5.590   4.015  18.876  0.00  0.00    +0.000 OA
ENDROOT
BRANCH   1   4
ATOM      4  C   UNL     1       4.006   5.894  18.149  0.00  0.00    +0.000 A 
ATOM      5  C   UNL     1       3.586   7.061  17.539  0.00  0.00    +0.000 A 
ATOM      6  C   UNL     1       2.626   7.788  18.322  0.00  0.00    +0.000 A 
ATOM      7  C   UNL     1       1.984   9.066  17.903  0.00  0.00    +0.000 C 
ATOM      8  C   UNL     1       2.392   7.121  19.503  0.00  0.00    +0.000 A 
ATOM      9 CL   UNL     1       1.320   7.591  20.765  0.00  0.00    +0.000 Cl
ATOM     10  S   UNL     1       3.268   5.683  19.677  0.00  0.00    +0.000 S 
ENDBRANCH   1   4
BRANCH   1  11
ATOM     11  N   UNL     1       6.469   5.347  16.882  0.00  0.00    +0.000 NA
ATOM     12  C   UNL     1       7.061   4.490  15.827  0.00  0.00    +0.000 C 
BRANCH  11  13
ATOM     13  C   UNL     1       7.470   5.845  17.858  0.00  0.00    +0.000 C 
BRANCH  13  15
ATOM     14  C   UNL     1       7.841   8.485  17.665  0.00  0.00    +0.000 C 
ATOM     15  C   UNL     1       7.658   7.302  17.762  0.00  0.00    +0.000 C 
ENDBRANCH  13  15
ENDBRANCH  11  13
ENDBRANCH   1  11
TORSDOF 4
ENDMDL
MODEL 2
REMARK VINA RESULT:      -6.0      2.685      3.050
REMARK  Name = 
REMARK  6 active torsions:
REMARK  status: ('A' for Active; 'I' for Inactive)
REMARK    1  A    between atoms: C_2  and  C_3
REMARK    2  A    between atoms: C_3  and  N_4
REMARK    3  A    between atoms: N_4  and  C_5
REMARK    4  A    between atoms: N_4  and  S_6
REMARK    5  A    between atoms: S_6  and  C_9
REMARK    6  A    between atoms: C_11  and  C_12
REMARK                            x       y       z     vdW  Elec       q    Type
REMARK                         _______ _______ _______ _____ _____    ______ ____
ROOT
ATOM      1  S   UNL     1       6.310   5.181  18.631  0.00  0.00    +0.000 S 
ATOM      2  O   UNL     1       6.856   4.151  17.775  0.00  0.00    +0.000 OA
ATOM      3  O   UNL     1       6.898   5.477  19.922  0.00  0.00    +0.000 OA
ENDROOT
BRANCH   1   4
ATOM      4  C   UNL     1       4.653   4.659  18.999  0.00  0.00    +0.000 A 
ATOM      5  C   UNL     1       3.666   5.189  19.810  0.00  0.00    +0.000 A 
ATOM      6  C   UNL     1       2.444   4.435  19.770  0.00  0.00    +0.000 A 
ATOM      7  C   UNL     1       1.206   4.786  20.524  0.00  0.00    +0.000 C 
ATOM      8  C   UNL     1       2.595   3.353  18.932  0.00  0.00    +0.000 A 
ATOM      9 CL   UNL     1       1.412   2.161  18.555  0.00  0.00    +0.000 Cl
ATOM     10  S   UNL     1       4.121   3.238  18.211  0.00  0.00    +0.000 S 
ENDBRANCH   1   4
BRANCH   1  11
ATOM     11  N   UNL     1       6.223   6.648  17.756  0.00  0.00    +0.000 NA
ATOM     12  C   UNL     1       5.131   6.643  16.754  0.00  0.00    +0.000 C 
BRANCH  11  13
ATOM     13  C   UNL     1       7.534   7.050  17.188  0.00  0.00    +0.000 C 
BRANCH  13  15
ATOM     14  C   UNL     1       8.408   9.355  18.223  0.00  0.00    +0.000 C 
ATOM     15  C   UNL     1       8.009   8.329  17.743  0.00  0.00    +0.000 C 
ENDBRANCH  13  15
ENDBRANCH  11  13
ENDBRANCH   1  11
TORSDOF 4
ENDMDL
MODEL 3
REMARK VINA RESULT:      -5.9      3.210      5.038
REMARK  Name = 
REMARK  6 active torsions:
REMARK  status: ('A' for Active; 'I' for Inactive)
REMARK    1  A    between atoms: C_2  and  C_3
REMARK    2  A    between atoms: C_3  and  N_4
REMARK    3  A    between atoms: N_4  and  C_5
REMARK    4  A    between atoms: N_4  and  S_6
REMARK    5  A    between atoms: S_6  and  C_9
REMARK    6  A    between atoms: C_11  and  C_12
REMARK                            x       y       z     vdW  Elec       q    Type
REMARK                         _______ _______ _______ _____ _____    ______ ____
ROOT
ATOM      1  S   UNL     1       3.960   2.712  19.374  0.00  0.00    +0.000 S 
ATOM      2  O   UNL     1       4.972   2.222  20.285  0.00  0.00    +0.000 OA
ATOM      3  O   UNL     1       3.195   1.805  18.542  0.00  0.00    +0.000 OA
ENDROOT
BRANCH   1   4
ATOM      4  C   UNL     1       4.825   3.756  18.227  0.00  0.00    +0.000 A 
ATOM      5  C   UNL     1       4.812   3.837  16.846  0.00  0.00    +0.000 A 
ATOM      6  C   UNL     1       5.661   4.879  16.339  0.00  0.00    +0.000 A 
ATOM      7  C   UNL     1       5.825   5.211  14.895  0.00  0.00    +0.000 C 
ATOM      8  C   UNL     1       6.287   5.518  17.386  0.00  0.00    +0.000 A 
ATOM      9 CL   UNL     1       7.392   6.833  17.287  0.00  0.00    +0.000 Cl
ATOM     10  S   UNL     1       5.879   4.914  18.914  0.00  0.00    +0.000 S 
ENDBRANCH   1   4
BRANCH   1  11
ATOM     11  N   UNL     1       2.847   3.680  20.240  0.00  0.00    +0.000 NA
ATOM     12  C   UNL     1       2.329   2.998  21.450  0.00  0.00    +0.000 C 
BRANCH  11  13
ATOM     13  C   UNL     1       1.773   4.225  19.374  0.00  0.00    +0.000 C 
BRANCH  13  15
ATOM     14  C   UNL     1       2.468   6.588  18.333  0.00  0.00    +0.000 C 
ATOM     15  C   UNL     1       2.142   5.525  18.788  0.00  0.00    +0.000 C 
ENDBRANCH  13  15
ENDBRANCH  11  13
ENDBRANCH   1  11
TORSDOF 4
ENDMDL
MODEL 4
REMARK VINA RESULT:      -5.8      2.388      3.065
REMARK  Name = 
REMARK  6 active torsions:
REMARK  status: ('A' for Active; 'I' for Inactive)
REMARK    1  A    between atoms: C_2  and  C_3
REMARK    2  A    between atoms: C_3  and  N_4
REMARK    3  A    between atoms: N_4  and  C_5
REMARK    4  A    between atoms: N_4  and  S_6
REMARK    5  A    between atoms: S_6  and  C_9
REMARK    6  A    between atoms: C_11  and  C_12
REMARK                            x       y       z     vdW  Elec       q    Type
REMARK                         _______ _______ _______ _____ _____    ______ ____
ROOT
ATOM      1  S   UNL     1       6.446   5.184  18.506  0.00  0.00    +0.000 S 
ATOM      2  O   UNL     1       7.191   4.246  17.695  0.00  0.00    +0.000 OA
ATOM      3  O   UNL     1       6.850   5.490  19.864  0.00  0.00    +0.000 OA
ENDROOT
BRANCH   1   4
ATOM      4  C   UNL     1       4.822   4.484  18.664  0.00  0.00    +0.000 A 
ATOM      5  C   UNL     1       4.219   3.384  18.081  0.00  0.00    +0.000 A 
ATOM      6  C   UNL     1       2.877   3.170  18.544  0.00  0.00    +0.000 A 
ATOM      7  C   UNL     1       1.997   2.049  18.106  0.00  0.00    +0.000 C 
ATOM      8  C   UNL     1       2.537   4.151  19.449  0.00  0.00    +0.000 A 
ATOM      9 CL   UNL     1       1.041   4.320  20.283  0.00  0.00    +0.000 Cl
ATOM     10  S   UNL     1       3.764   5.277  19.748  0.00  0.00    +0.000 S 
ENDBRANCH   1   4
BRANCH   1  11
ATOM     11  N   UNL     1       6.307   6.667  17.663  0.00  0.00    +0.000 NA
ATOM     12  C   UNL     1       5.235   6.636  16.641  0.00  0.00    +0.000 C 
BRANCH  11  13
ATOM     13  C   UNL     1       7.608   7.141  17.129  0.00  0.00    +0.000 C 
BRANCH  13  15
ATOM     14  C   UNL     1       8.424   9.419  18.266  0.00  0.00    +0.000 C 
ATOM     15  C   UNL     1       8.040   8.399  17.761  0.00  0.00    +0.000 C 
ENDBRANCH  13  15
ENDBRANCH  11  13
ENDBRANCH   1  11
TORSDOF 4
ENDMDL
MODEL 5
REMARK VINA RESULT:      -5.8      1.265      1.630
REMARK  Name = 
REMARK  6 active torsions:
REMARK  status: ('A' for Active; 'I' for Inactive)
REMARK    1  A    between atoms: C_2  and  C_3
REMARK    2  A    between atoms: C_3  and  N_4
REMARK    3  A    between atoms: N_4  and  C_5
REMARK    4  A    between atoms: N_4  and  S_6
REMARK    5  A    between atoms: S_6  and  C_9
REMARK    6  A    between atoms: C_11  and  C_12
REMARK                            x       y       z     vdW  Elec       q    Type
REMARK                         _______ _______ _______ _____ _____    ______ ____
ROOT
ATOM      1  S   UNL     1       5.162   4.447  18.081  0.00  0.00    +0.000 S 
ATOM      2  O   UNL     1       4.444   3.524  17.229  0.00  0.00    +0.000 OA
ATOM      3  O   UNL     1       5.747   4.015  19.334  0.00  0.00    +0.000 OA
ENDROOT
BRANCH   1   4
ATOM      4  C   UNL     1       3.975   5.685  18.540  0.00  0.00    +0.000 A 
ATOM      5  C   UNL     1       3.169   5.838  19.654  0.00  0.00    +0.000 A 
ATOM      6  C   UNL     1       2.378   7.036  19.613  0.00  0.00    +0.000 A 
ATOM      7  C   UNL     1       1.439   7.469  20.686  0.00  0.00    +0.000 C 
ATOM      8  C   UNL     1       2.627   7.715  18.441  0.00  0.00    +0.000 A 
ATOM      9 CL   UNL     1       1.927   9.205  17.937  0.00  0.00    +0.000 Cl
ATOM     10  S   UNL     1       3.761   6.969  17.431  0.00  0.00    +0.000 S 
ENDBRANCH   1   4
BRANCH   1  11
ATOM     11  N   UNL     1       6.396   5.205  17.170  0.00  0.00    +0.000 NA
ATOM     12  C   UNL     1       6.887   4.349  16.064  0.00  0.00    +0.000 C 
BRANCH  11  13
ATOM     13  C   UNL     1       7.487   5.738  18.023  0.00  0.00    +0.000 C 
BRANCH  13  15
ATOM     14  C   UNL     1       7.831   8.368  17.684  0.00  0.00    +0.000 C 
ATOM     15  C   UNL     1       7.689   7.183  17.823  0.00  0.00    +0.000 C 
ENDBRANCH  13  15
ENDBRANCH  11  13
ENDBRANCH   1  11
TORSDOF 4
ENDMDL
MODEL 6
REMARK VINA RESULT:      -5.7      2.674      4.156
REMARK  Name = 
REMARK  6 active torsions:
REMARK  status: ('A' for Active; 'I' for Inactive)
REMARK    1  A    between atoms: C_2  and  C_3
REMARK    2  A    between atoms: C_3  and  N_4
REMARK    3  A    between atoms: N_4  and  C_5
REMARK    4  A    between atoms: N_4  and  S_6
REMARK    5  A    between atoms: S_6  and  C_9
REMARK    6  A    between atoms: C_11  and  C_12
REMARK                            x       y       z     vdW  Elec       q    Type
REMARK                         _______ _______ _______ _____ _____    ______ ____
ROOT
ATOM      1  S   UNL     1       4.654   3.869  18.506  0.00  0.00    +0.000 S 
ATOM      2  O   UNL     1       5.961   4.149  19.061  0.00  0.00    +0.000 OA
ATOM      3  O   UNL     1       4.490   3.512  17.111  0.00  0.00    +0.000 OA
ENDROOT
BRANCH   1   4
ATOM      4  C   UNL     1       3.729   5.374  18.699  0.00  0.00    +0.000 A 
ATOM      5  C   UNL     1       3.528   6.458  17.864  0.00  0.00    +0.000 A 
ATOM      6  C   UNL     1       2.658   7.449  18.434  0.00  0.00    +0.000 A 
ATOM      7  C   UNL     1       2.247   8.709  17.751  0.00  0.00    +0.000 C 
ATOM      8  C   UNL     1       2.264   7.051  19.692  0.00  0.00    +0.000 A 
ATOM      9 CL   UNL     1       1.219   7.896  20.767  0.00  0.00    +0.000 Cl
ATOM     10  S   UNL     1       2.893   5.557  20.178  0.00  0.00    +0.000 S 
ENDBRANCH   1   4
BRANCH   1  11
ATOM     11  N   UNL     1       3.896   2.655  19.443  0.00  0.00    +0.000 NA
ATOM     12  C   UNL     1       4.864   1.887  20.261  0.00  0.00    +0.000 C 
BRANCH  11  13
ATOM     13  C   UNL     1       2.999   1.791  18.636  0.00  0.00    +0.000 C 
BRANCH  13  15
ATOM     14  C   UNL     1       0.457   2.600  18.802  0.00  0.00    +0.000 C 
ATOM     15  C   UNL     1       1.595   2.228  18.712  0.00  0.00    +0.000 C 
ENDBRANCH  13  15
ENDBRANCH  11  13
ENDBRANCH   1  11
TORSDOF 4
ENDMDL
MODEL 7
REMARK VINA RESULT:      -5.6      3.066      3.961
REMARK  Name = 
REMARK  6 active torsions:
REMARK  status: ('A' for Active; 'I' for Inactive)
REMARK    1  A    between atoms: C_2  and  C_3
REMARK    2  A    between atoms: C_3  and  N_4
REMARK    3  A    between atoms: N_4  and  C_5
REMARK    4  A    between atoms: N_4  and  S_6
REMARK    5  A    between atoms: S_6  and  C_9
REMARK    6  A    between atoms: C_11  and  C_12
REMARK                            x       y       z     vdW  Elec       q    Type
REMARK                         _______ _______ _______ _____ _____    ______ ____
ROOT
ATOM      1  S   UNL     1       6.964   5.390  17.190  0.00  0.00    +0.000 S 
ATOM      2  O   UNL     1       7.957   4.338  17.191  0.00  0.00    +0.000 OA
ATOM      3  O   UNL     1       7.115   6.567  18.022  0.00  0.00    +0.000 OA
ENDROOT
BRANCH   1   4
ATOM      4  C   UNL     1       5.466   4.625  17.759  0.00  0.00    +0.000 A 
ATOM      5  C   UNL     1       4.710   3.575  17.268  0.00  0.00    +0.000 A 
ATOM      6  C   UNL     1       3.575   3.269  18.093  0.00  0.00    +0.000 A 
ATOM      7  C   UNL     1       2.601   2.173  17.822  0.00  0.00    +0.000 C 
ATOM      8  C   UNL     1       3.534   4.134  19.164  0.00  0.00    +0.000 A 
ATOM      9 CL   UNL     1       2.368   4.162  20.430  0.00  0.00    +0.000 Cl
ATOM     10  S   UNL     1       4.796   5.261  19.197  0.00  0.00    +0.000 S 
ENDBRANCH   1   4
BRANCH   1  11
ATOM     11  N   UNL     1       6.713   5.923  15.584  0.00  0.00    +0.000 NA
ATOM     12  C   UNL     1       5.308   6.323  15.335  0.00  0.00    +0.000 C 
BRANCH  11  13
ATOM     13  C   UNL     1       7.233   4.962  14.579  0.00  0.00    +0.000 C 
BRANCH  13  15
ATOM     14  C   UNL     1       5.261   3.669  13.319  0.00  0.00    +0.000 C 
ATOM     15  C   UNL     1       6.149   4.235  13.897  0.00  0.00    +0.000 C 
ENDBRANCH  13  15
ENDBRANCH  11  13
ENDBRANCH   1  11
TORSDOF 4
ENDMDL
MODEL 8
REMARK VINA RESULT:      -5.6      2.705      3.369
REMARK  Name = 
REMARK  6 active torsions:
REMARK  status: ('A' for Active; 'I' for Inactive)
REMARK    1  A    between atoms: C_2  and  C_3
REMARK    2  A    between atoms: C_3  and  N_4
REMARK    3  A    between atoms: N_4  and  C_5
REMARK    4  A    between atoms: N_4  and  S_6
REMARK    5  A    between atoms: S_6  and  C_9
REMARK    6  A    between atoms: C_11  and  C_12
REMARK                            x       y       z     vdW  Elec       q    Type
REMARK                         _______ _______ _______ _____ _____    ______ ____
ROOT
ATOM      1  S   UNL     1       7.237   5.245  16.853  0.00  0.00    +0.000 S 
ATOM      2  O   UNL     1       6.875   5.766  15.553  0.00  0.00    +0.000 OA
ATOM      3  O   UNL     1       8.109   4.095  16.986  0.00  0.00    +0.000 OA
ENDROOT
BRANCH   1   4
ATOM      4  C   UNL     1       5.707   4.740  17.601  0.00  0.00    +0.000 A 
ATOM      5  C   UNL     1       5.420   3.900  18.662  0.00  0.00    +0.000 A 
ATOM      6  C   UNL     1       4.014   3.816  18.944  0.00  0.00    +0.000 A 
ATOM      7  C   UNL     1       3.417   3.006  20.044  0.00  0.00    +0.000 C 
ATOM      8  C   UNL     1       3.315   4.597  18.051  0.00  0.00    +0.000 A 
ATOM      9 CL   UNL     1       1.610   4.826  17.987  0.00  0.00    +0.000 Cl
ATOM     10  S   UNL     1       4.285   5.408  16.926  0.00  0.00    +0.000 S 
ENDBRANCH   1   4
BRANCH   1  11
ATOM     11  N   UNL     1       7.900   6.507  17.798  0.00  0.00    +0.000 NA
ATOM     12  C   UNL     1       7.929   6.176  19.242  0.00  0.00    +0.000 C 
BRANCH  11  13
ATOM     13  C   UNL     1       7.271   7.821  17.514  0.00  0.00    +0.000 C 
BRANCH  13  15
ATOM     14  C   UNL     1       8.775   9.877  18.324  0.00  0.00    +0.000 C 
ATOM     15  C   UNL     1       8.103   8.945  17.976  0.00  0.00    +0.000 C 
ENDBRANCH  13  15
ENDBRANCH  11  13
ENDBRANCH   1  11
TORSDOF 4
ENDMDL
MODEL 9
REMARK VINA RESULT:      -5.6      3.263      5.112
REMARK  Name = 
REMARK  6 active torsions:
REMARK  status: ('A' for Active; 'I' for Inactive)
REMARK    1  A    between atoms: C_2  and  C_3
REMARK    2  A    between atoms: C_3  and  N_4
REMARK    3  A    between atoms: N_4  and  C_5
REMARK    4  A    between atoms: N_4  and  S_6
REMARK    5  A    between atoms: S_6  and  C_9
REMARK    6  A    between atoms: C_11  and  C_12
REMARK                            x       y       z     vdW  Elec       q    Type
REMARK                         _______ _______ _______ _____ _____    ______ ____
ROOT
ATOM      1  S   UNL     1       3.514   2.399  19.144  0.00  0.00    +0.000 S 
ATOM      2  O   UNL     1       4.116   2.506  20.455  0.00  0.00    +0.000 OA
ATOM      3  O   UNL     1       3.560   1.160  18.394  0.00  0.00    +0.000 OA
ENDROOT
BRANCH   1   4
ATOM      4  C   UNL     1       4.383   3.572  18.130  0.00  0.00    +0.000 A 
ATOM      5  C   UNL     1       4.554   3.675  16.762  0.00  0.00    +0.000 A 
ATOM      6  C   UNL     1       5.316   4.831  16.379  0.00  0.00    +0.000 A 
ATOM      7  C   UNL     1       5.636   5.208  14.973  0.00  0.00    +0.000 C 
ATOM      8  C   UNL     1       5.695   5.529  17.504  0.00  0.00    +0.000 A 
ATOM      9 CL   UNL     1       6.614   6.983  17.561  0.00  0.00    +0.000 Cl
ATOM     10  S   UNL     1       5.161   4.849  18.959  0.00  0.00    +0.000 S 
ENDBRANCH   1   4
BRANCH   1  11
ATOM     11  N   UNL     1       1.877   2.886  19.237  0.00  0.00    +0.000 NA
ATOM     12  C   UNL     1       1.480   3.751  18.101  0.00  0.00    +0.000 C 
BRANCH  11  13
ATOM     13  C   UNL     1       1.531   3.465  20.559  0.00  0.00    +0.000 C 
BRANCH  13  15
ATOM     14  C   UNL     1       1.808   6.124  20.560  0.00  0.00    +0.000 C 
ATOM     15  C   UNL     1       1.677   4.930  20.577  0.00  0.00    +0.000 C 
ENDBRANCH  13  15
ENDBRANCH  11  13
ENDBRANCH   1  11
TORSDOF 4
ENDMDL
