MODEL 1
REMARK VINA RESULT:      -7.4      0.000      0.000
REMARK  Name = 
REMARK  7 active torsions:
REMARK  status: ('A' for Active; 'I' for Inactive)
REMARK    1  A    between atoms: C_1  and  C_2
REMARK    2  A    between atoms: C_3  and  C_4
REMARK    3  A    between atoms: C_4  and  C_5
REMARK    4  A    between atoms: C_5  and  N_6
REMARK    5  A    between atoms: C_10  and  O_11
REMARK    6  A    between atoms: C_13  and  C_14
REMARK    7  A    between atoms: C_13  and  C_15
REMARK                            x       y       z     vdW  Elec       q    Type
REMARK                         _______ _______ _______ _____ _____    ______ ____
ROOT
ATOM      1  C   UNL     1       3.564   4.995  17.516  0.00  0.00    +0.000 C 
ENDROOT
BRANCH   1   4
ATOM      2  C   UNL     1       2.254   6.972  19.455  0.00  0.00    +0.000 C 
ATOM      3  C   UNL     1       2.333   5.481  19.680  0.00  0.00    +0.000 C 
ATOM      4  C   UNL     1       2.855   4.577  18.808  0.00  0.00    +0.000 C 
ATOM      5  C   UNL     1       2.739   3.049  19.065  0.00  0.00    +0.000 C 
ATOM      6  C   UNL     1       2.068   2.325  17.874  0.00  0.00    +0.000 C 
ATOM      7  C   UNL     1       4.143   2.452  19.285  0.00  0.00    +0.000 C 
ATOM      8  C   UNL     1       1.855   2.723  20.302  0.00  0.00    +0.000 C 
ATOM      9  C   UNL     1       2.105   3.676  21.455  0.00  0.00    +0.000 C 
ATOM     10  C   UNL     1       1.746   5.087  21.019  0.00  0.00    +0.000 C 
ENDBRANCH   1   4
BRANCH   1  11
ATOM     11  C   UNL     1       4.797   5.906  17.734  0.00  0.00    +0.000 C 
BRANCH  11  12
ATOM     12  N   UNL     1       6.105   5.319  17.356  0.00  0.00    +0.000 NA
ATOM     13  C   UNL     1       7.005   6.229  16.633  0.00  0.00    +0.000 C 
ATOM     14  C   UNL     1       7.553   7.376  17.488  0.00  0.00    +0.000 C 
ATOM     15  C   UNL     1       8.248   6.851  18.740  0.00  0.00    +0.000 C 
ATOM     16  C   UNL     1       7.363   5.862  19.499  0.00  0.00    +0.000 C 
ATOM     17  C   UNL     1       6.796   4.783  18.549  0.00  0.00    +0.000 C 
BRANCH  16  18
ATOM     18  O   UNL     1       8.113   5.264  20.553  0.00  0.00    +0.000 OA
ATOM     19  H   UNL     1       8.869   5.845  20.750  0.00  0.00    +0.000 HD
ENDBRANCH  16  18
ENDBRANCH  11  12
ENDBRANCH   1  11
TORSDOF 4
ENDMDL
MODEL 2
REMARK VINA RESULT:      -7.2      0.982      2.225
REMARK  Name = 
REMARK  7 active torsions:
REMARK  status: ('A' for Active; 'I' for Inactive)
REMARK    1  A    between atoms: C_1  and  C_2
REMARK    2  A    between atoms: C_3  and  C_4
REMARK    3  A    between atoms: C_4  and  C_5
REMARK    4  A    between atoms: C_5  and  N_6
REMARK    5  A    between atoms: C_10  and  O_11
REMARK    6  A    between atoms: C_13  and  C_14
REMARK    7  A    between atoms: C_13  and  C_15
REMARK                            x       y       z     vdW  Elec       q    Type
REMARK                         _______ _______ _______ _____ _____    ______ ____
ROOT
ATOM      1  C   UNL     1       4.298   3.714  17.756  0.00  0.00    +0.000 C 
ENDROOT
BRANCH   1   4
ATOM      2  C   UNL     1       4.787   2.032  20.269  0.00  0.00    +0.000 C 
ATOM      3  C   UNL     1       3.552   2.866  20.026  0.00  0.00    +0.000 C 
ATOM      4  C   UNL     1       3.338   3.667  18.948  0.00  0.00    +0.000 C 
ATOM      5  C   UNL     1       2.106   4.610  18.876  0.00  0.00    +0.000 C 
ATOM      6  C   UNL     1       2.530   6.078  18.637  0.00  0.00    +0.000 C 
ATOM      7  C   UNL     1       1.179   4.166  17.727  0.00  0.00    +0.000 C 
ATOM      8  C   UNL     1       1.291   4.622  20.201  0.00  0.00    +0.000 C 
ATOM      9  C   UNL     1       1.162   3.238  20.809  0.00  0.00    +0.000 C 
ATOM     10  C   UNL     1       2.548   2.715  21.150  0.00  0.00    +0.000 C 
ENDBRANCH   1   4
BRANCH   1  11
ATOM     11  C   UNL     1       5.091   5.037  17.629  0.00  0.00    +0.000 C 
BRANCH  11  12
ATOM     12  N   UNL     1       6.500   4.904  17.187  0.00  0.00    +0.000 NA
ATOM     13  C   UNL     1       7.041   6.075  16.483  0.00  0.00    +0.000 C 
ATOM     14  C   UNL     1       7.239   7.305  17.374  0.00  0.00    +0.000 C 
ATOM     15  C   UNL     1       8.114   6.980  18.581  0.00  0.00    +0.000 C 
ATOM     16  C   UNL     1       7.613   5.737  19.316  0.00  0.00    +0.000 C 
ATOM     17  C   UNL     1       7.372   4.570  18.333  0.00  0.00    +0.000 C 
BRANCH  16  18
ATOM     18  O   UNL     1       8.555   5.367  20.320  0.00  0.00    +0.000 OA
ATOM     19  H   UNL     1       9.227   6.070  20.375  0.00  0.00    +0.000 HD
ENDBRANCH  16  18
ENDBRANCH  11  12
ENDBRANCH   1  11
TORSDOF 4
ENDMDL
MODEL 3
REMARK VINA RESULT:      -7.2      1.907      2.308
REMARK  Name = 
REMARK  7 active torsions:
REMARK  status: ('A' for Active; 'I' for Inactive)
REMARK    1  A    between atoms: C_1  and  C_2
REMARK    2  A    between atoms: C_3  and  C_4
REMARK    3  A    between atoms: C_4  and  C_5
REMARK    4  A    between atoms: C_5  and  N_6
REMARK    5  A    between atoms: C_10  and  O_11
REMARK    6  A    between atoms: C_13  and  C_14
REMARK    7  A    between atoms: C_13  and  C_15
REMARK                            x       y       z     vdW  Elec       q    Type
REMARK                         _______ _______ _______ _____ _____    ______ ____
ROOT
ATOM      1  C   UNL     1       2.383   4.480  17.454  0.00  0.00    +0.000 C 
ENDROOT
BRANCH   1   4
ATOM      2  C   UNL     1       2.341   6.683  19.582  0.00  0.00    +0.000 C 
ATOM      3  C   UNL     1       2.195   5.209  19.875  0.00  0.00    +0.000 C 
ATOM      4  C   UNL     1       2.150   4.218  18.945  0.00  0.00    +0.000 C 
ATOM      5  C   UNL     1       1.832   2.750  19.343  0.00  0.00    +0.000 C 
ATOM      6  C   UNL     1       0.626   2.197  18.549  0.00  0.00    +0.000 C 
ATOM      7  C   UNL     1       3.061   1.860  19.070  0.00  0.00    +0.000 C 
ATOM      8  C   UNL     1       1.440   2.616  20.842  0.00  0.00    +0.000 C 
ATOM      9  C   UNL     1       2.298   3.486  21.742  0.00  0.00    +0.000 C 
ATOM     10  C   UNL     1       2.095   4.944  21.363  0.00  0.00    +0.000 C 
ENDBRANCH   1   4
BRANCH   1  11
ATOM     11  C   UNL     1       3.861   4.363  17.011  0.00  0.00    +0.000 C 
BRANCH  11  12
ATOM     12  N   UNL     1       4.672   5.597  17.146  0.00  0.00    +0.000 NA
ATOM     13  C   UNL     1       5.530   5.645  18.339  0.00  0.00    +0.000 C 
ATOM     14  C   UNL     1       6.697   4.654  18.311  0.00  0.00    +0.000 C 
ATOM     15  C   UNL     1       7.548   4.834  17.058  0.00  0.00    +0.000 C 
ATOM     16  C   UNL     1       6.689   4.838  15.794  0.00  0.00    +0.000 C 
ATOM     17  C   UNL     1       5.496   5.810  15.936  0.00  0.00    +0.000 C 
BRANCH  16  18
ATOM     18  O   UNL     1       7.495   5.187  14.671  0.00  0.00    +0.000 OA
ATOM     19  H   UNL     1       7.675   4.374  14.167  0.00  0.00    +0.000 HD
ENDBRANCH  16  18
ENDBRANCH  11  12
ENDBRANCH   1  11
TORSDOF 4
ENDMDL
MODEL 4
REMARK VINA RESULT:      -7.1      0.926      1.049
REMARK  Name = 
REMARK  7 active torsions:
REMARK  status: ('A' for Active; 'I' for Inactive)
REMARK    1  A    between atoms: C_1  and  C_2
REMARK    2  A    between atoms: C_3  and  C_4
REMARK    3  A    between atoms: C_4  and  C_5
REMARK    4  A    between atoms: C_5  and  N_6
REMARK    5  A    between atoms: C_10  and  O_11
REMARK    6  A    between atoms: C_13  and  C_14
REMARK    7  A    between atoms: C_13  and  C_15
REMARK                            x       y       z     vdW  Elec       q    Type
REMARK                         _______ _______ _______ _____ _____    ______ ____
ROOT
ATOM      1  C   UNL     1       4.549   5.152  19.454  0.00  0.00    +0.000 C 
ENDROOT
BRANCH   1   4
ATOM      2  C   UNL     1       1.894   6.378  20.368  0.00  0.00    +0.000 C 
ATOM      3  C   UNL     1       2.110   4.907  20.105  0.00  0.00    +0.000 C 
ATOM      4  C   UNL     1       3.260   4.346  19.642  0.00  0.00    +0.000 C 
ATOM      5  C   UNL     1       3.324   2.845  19.249  0.00  0.00    +0.000 C 
ATOM      6  C   UNL     1       3.816   2.661  17.794  0.00  0.00    +0.000 C 
ATOM      7  C   UNL     1       4.285   2.101  20.198  0.00  0.00    +0.000 C 
ATOM      8  C   UNL     1       1.930   2.158  19.307  0.00  0.00    +0.000 C 
ATOM      9  C   UNL     1       1.120   2.601  20.511  0.00  0.00    +0.000 C 
ATOM     10  C   UNL     1       0.869   4.097  20.417  0.00  0.00    +0.000 C 
ENDBRANCH   1   4
BRANCH   1  11
ATOM     11  C   UNL     1       4.732   5.735  18.032  0.00  0.00    +0.000 C 
BRANCH  11  12
ATOM     12  N   UNL     1       5.995   5.372  17.346  0.00  0.00    +0.000 NA
ATOM     13  C   UNL     1       6.624   6.465  16.590  0.00  0.00    +0.000 C 
ATOM     14  C   UNL     1       7.201   7.581  17.466  0.00  0.00    +0.000 C 
ATOM     15  C   UNL     1       8.187   7.029  18.490  0.00  0.00    +0.000 C 
ATOM     16  C   UNL     1       7.589   5.858  19.268  0.00  0.00    +0.000 C 
ATOM     17  C   UNL     1       6.967   4.815  18.311  0.00  0.00    +0.000 C 
BRANCH  16  18
ATOM     18  O   UNL     1       8.597   5.261  20.080  0.00  0.00    +0.000 OA
ATOM     19  H   UNL     1       8.225   5.126  20.970  0.00  0.00    +0.000 HD
ENDBRANCH  16  18
ENDBRANCH  11  12
ENDBRANCH   1  11
TORSDOF 4
ENDMDL
MODEL 5
REMARK VINA RESULT:      -7.1      1.447      1.743
REMARK  Name = 
REMARK  7 active torsions:
REMARK  status: ('A' for Active; 'I' for Inactive)
REMARK    1  A    between atoms: C_1  and  C_2
REMARK    2  A    between atoms: C_3  and  C_4
REMARK    3  A    between atoms: C_4  and  C_5
REMARK    4  A    between atoms: C_5  and  N_6
REMARK    5  A    between atoms: C_10  and  O_11
REMARK    6  A    between atoms: C_13  and  C_14
REMARK    7  A    between atoms: C_13  and  C_15
REMARK                            x       y       z     vdW  Elec       q    Type
REMARK                         _______ _______ _______ _____ _____    ______ ____
ROOT
ATOM      1  C   UNL     1       2.773   4.227  17.087  0.00  0.00    +0.000 C 
ENDROOT
BRANCH   1   4
ATOM      2  C   UNL     1       2.381   6.980  18.370  0.00  0.00    +0.000 C 
ATOM      3  C   UNL     1       2.203   5.668  19.095  0.00  0.00    +0.000 C 
ATOM      4  C   UNL     1       2.312   4.433  18.533  0.00  0.00    +0.000 C 
ATOM      5  C   UNL     1       1.947   3.150  19.329  0.00  0.00    +0.000 C 
ATOM      6  C   UNL     1       0.885   2.306  18.586  0.00  0.00    +0.000 C 
ATOM      7  C   UNL     1       3.210   2.291  19.536  0.00  0.00    +0.000 C 
ATOM      8  C   UNL     1       1.326   3.472  20.718  0.00  0.00    +0.000 C 
ATOM      9  C   UNL     1       2.026   4.627  21.408  0.00  0.00    +0.000 C 
ATOM     10  C   UNL     1       1.873   5.878  20.558  0.00  0.00    +0.000 C 
ENDBRANCH   1   4
BRANCH   1  11
ATOM     11  C   UNL     1       4.234   3.736  16.950  0.00  0.00    +0.000 C 
BRANCH  11  12
ATOM     12  N   UNL     1       5.090   4.516  16.024  0.00  0.00    +0.000 NA
ATOM     13  C   UNL     1       5.013   5.975  16.191  0.00  0.00    +0.000 C 
ATOM     14  C   UNL     1       5.630   6.488  17.495  0.00  0.00    +0.000 C 
ATOM     15  C   UNL     1       7.077   6.029  17.643  0.00  0.00    +0.000 C 
ATOM     16  C   UNL     1       7.210   4.521  17.430  0.00  0.00    +0.000 C 
ATOM     17  C   UNL     1       6.499   4.079  16.131  0.00  0.00    +0.000 C 
BRANCH  16  18
ATOM     18  O   UNL     1       8.590   4.165  17.398  0.00  0.00    +0.000 OA
ATOM     19  H   UNL     1       8.672   3.255  17.735  0.00  0.00    +0.000 HD
ENDBRANCH  16  18
ENDBRANCH  11  12
ENDBRANCH   1  11
TORSDOF 4
ENDMDL
MODEL 6
REMARK VINA RESULT:      -7.0      2.051      2.573
REMARK  Name = 
REMARK  7 active torsions:
REMARK  status: ('A' for Active; 'I' for Inactive)
REMARK    1  A    between atoms: C_1  and  C_2
REMARK    2  A    between atoms: C_3  and  C_4
REMARK    3  A    between atoms: C_4  and  C_5
REMARK    4  A    between atoms: C_5  and  N_6
REMARK    5  A    between atoms: C_10  and  O_11
REMARK    6  A    between atoms: C_13  and  C_14
REMARK    7  A    between atoms: C_13  and  C_15
REMARK                            x       y       z     vdW  Elec       q    Type
REMARK                         _______ _______ _______ _____ _____    ______ ____
ROOT
ATOM      1  C   UNL     1       4.410   5.366  19.129  0.00  0.00    +0.000 C 
ENDROOT
BRANCH   1   4
ATOM      2  C   UNL     1       1.849   6.476  20.391  0.00  0.00    +0.000 C 
ATOM      3  C   UNL     1       2.116   5.009  20.148  0.00  0.00    +0.000 C 
ATOM      4  C   UNL     1       3.217   4.497  19.536  0.00  0.00    +0.000 C 
ATOM      5  C   UNL     1       3.317   2.986  19.188  0.00  0.00    +0.000 C 
ATOM      6  C   UNL     1       3.598   2.769  17.684  0.00  0.00    +0.000 C 
ATOM      7  C   UNL     1       4.453   2.340  20.006  0.00  0.00    +0.000 C 
ATOM      8  C   UNL     1       1.993   2.223  19.479  0.00  0.00    +0.000 C 
ATOM      9  C   UNL     1       1.345   2.670  20.776  0.00  0.00    +0.000 C 
ATOM     10  C   UNL     1       0.989   4.144  20.671  0.00  0.00    +0.000 C 
ENDBRANCH   1   4
BRANCH   1  11
ATOM     11  C   UNL     1       4.217   6.127  17.795  0.00  0.00    +0.000 C 
BRANCH  11  12
ATOM     12  N   UNL     1       5.455   6.639  17.161  0.00  0.00    +0.000 NA
ATOM     13  C   UNL     1       6.704   6.218  17.813  0.00  0.00    +0.000 C 
ATOM     14  C   UNL     1       7.017   4.727  17.660  0.00  0.00    +0.000 C 
ATOM     15  C   UNL     1       7.038   4.312  16.192  0.00  0.00    +0.000 C 
ATOM     16  C   UNL     1       5.776   4.772  15.463  0.00  0.00    +0.000 C 
ATOM     17  C   UNL     1       5.495   6.268  15.730  0.00  0.00    +0.000 C 
BRANCH  16  18
ATOM     18  O   UNL     1       5.916   4.525  14.066  0.00  0.00    +0.000 OA
ATOM     19  H   UNL     1       5.446   5.232  13.588  0.00  0.00    +0.000 HD
ENDBRANCH  16  18
ENDBRANCH  11  12
ENDBRANCH   1  11
TORSDOF 4
ENDMDL
MODEL 7
REMARK VINA RESULT:      -6.9      1.358      2.539
REMARK  Name = 
REMARK  7 active torsions:
REMARK  status: ('A' for Active; 'I' for Inactive)
REMARK    1  A    between atoms: C_1  and  C_2
REMARK    2  A    between atoms: C_3  and  C_4
REMARK    3  A    between atoms: C_4  and  C_5
REMARK    4  A    between atoms: C_5  and  N_6
REMARK    5  A    between atoms: C_10  and  O_11
REMARK    6  A    between atoms: C_13  and  C_14
REMARK    7  A    between atoms: C_13  and  C_15
REMARK                            x       y       z     vdW  Elec       q    Type
REMARK                         _______ _______ _______ _____ _____    ______ ____
ROOT
ATOM      1  C   UNL     1       4.330   3.634  18.016  0.00  0.00    +0.000 C 
ENDROOT
BRANCH   1   4
ATOM      2  C   UNL     1       4.486   1.894  20.532  0.00  0.00    +0.000 C 
ATOM      3  C   UNL     1       3.314   2.777  20.175  0.00  0.00    +0.000 C 
ATOM      4  C   UNL     1       3.246   3.603  19.097  0.00  0.00    +0.000 C 
ATOM      5  C   UNL     1       2.062   4.591  18.912  0.00  0.00    +0.000 C 
ATOM      6  C   UNL     1       2.559   6.047  18.750  0.00  0.00    +0.000 C 
ATOM      7  C   UNL     1       1.250   4.200  17.661  0.00  0.00    +0.000 C 
ATOM      8  C   UNL     1       1.109   4.611  20.141  0.00  0.00    +0.000 C 
ATOM      9  C   UNL     1       0.868   3.223  20.704  0.00  0.00    +0.000 C 
ATOM     10  C   UNL     1       2.190   2.644  21.181  0.00  0.00    +0.000 C 
ENDBRANCH   1   4
BRANCH   1  11
ATOM     11  C   UNL     1       5.709   4.133  18.512  0.00  0.00    +0.000 C 
BRANCH  11  12
ATOM     12  N   UNL     1       6.678   4.505  17.454  0.00  0.00    +0.000 NA
ATOM     13  C   UNL     1       6.107   5.267  16.333  0.00  0.00    +0.000 C 
ATOM     14  C   UNL     1       5.673   6.689  16.700  0.00  0.00    +0.000 C 
ATOM     15  C   UNL     1       6.820   7.476  17.325  0.00  0.00    +0.000 C 
ATOM     16  C   UNL     1       7.474   6.698  18.467  0.00  0.00    +0.000 C 
ATOM     17  C   UNL     1       7.814   5.254  18.033  0.00  0.00    +0.000 C 
BRANCH  16  18
ATOM     18  O   UNL     1       8.646   7.384  18.900  0.00  0.00    +0.000 OA
ATOM     19  H   UNL     1       9.396   6.765  18.840  0.00  0.00    +0.000 HD
ENDBRANCH  16  18
ENDBRANCH  11  12
ENDBRANCH   1  11
TORSDOF 4
ENDMDL
MODEL 8
REMARK VINA RESULT:      -6.9      1.943      3.021
REMARK  Name = 
REMARK  7 active torsions:
REMARK  status: ('A' for Active; 'I' for Inactive)
REMARK    1  A    between atoms: C_1  and  C_2
REMARK    2  A    between atoms: C_3  and  C_4
REMARK    3  A    between atoms: C_4  and  C_5
REMARK    4  A    between atoms: C_5  and  N_6
REMARK    5  A    between atoms: C_10  and  O_11
REMARK    6  A    between atoms: C_13  and  C_14
REMARK    7  A    between atoms: C_13  and  C_15
REMARK                            x       y       z     vdW  Elec       q    Type
REMARK                         _______ _______ _______ _____ _____    ______ ____
ROOT
ATOM      1  C   UNL     1       3.445   2.406  17.704  0.00  0.00    +0.000 C 
ENDROOT
BRANCH   1   4
ATOM      2  C   UNL     1       4.881   1.994  20.378  0.00  0.00    +0.000 C 
ATOM      3  C   UNL     1       3.464   2.497  20.238  0.00  0.00    +0.000 C 
ATOM      4  C   UNL     1       2.825   2.745  19.063  0.00  0.00    +0.000 C 
ATOM      5  C   UNL     1       1.425   3.418  19.032  0.00  0.00    +0.000 C 
ATOM      6  C   UNL     1       1.429   4.693  18.157  0.00  0.00    +0.000 C 
ATOM      7  C   UNL     1       0.387   2.428  18.467  0.00  0.00    +0.000 C 
ATOM      8  C   UNL     1       0.960   3.881  20.442  0.00  0.00    +0.000 C 
ATOM      9  C   UNL     1       1.301   2.872  21.522  0.00  0.00    +0.000 C 
ATOM     10  C   UNL     1       2.811   2.708  21.589  0.00  0.00    +0.000 C 
ENDBRANCH   1   4
BRANCH   1  11
ATOM     11  C   UNL     1       4.756   3.168  17.395  0.00  0.00    +0.000 C 
BRANCH  11  12
ATOM     12  N   UNL     1       4.618   4.629  17.188  0.00  0.00    +0.000 NA
ATOM     13  C   UNL     1       4.976   5.456  18.351  0.00  0.00    +0.000 C 
ATOM     14  C   UNL     1       6.471   5.453  18.683  0.00  0.00    +0.000 C 
ATOM     15  C   UNL     1       7.308   5.870  17.478  0.00  0.00    +0.000 C 
ATOM     16  C   UNL     1       6.934   5.067  16.233  0.00  0.00    +0.000 C 
ATOM     17  C   UNL     1       5.405   5.062  16.013  0.00  0.00    +0.000 C 
BRANCH  16  18
ATOM     18  O   UNL     1       7.606   5.607  15.098  0.00  0.00    +0.000 OA
ATOM     19  H   UNL     1       7.057   6.327  14.739  0.00  0.00    +0.000 HD
ENDBRANCH  16  18
ENDBRANCH  11  12
ENDBRANCH   1  11
TORSDOF 4
ENDMDL
MODEL 9
REMARK VINA RESULT:      -6.8      1.246      1.565
REMARK  Name = 
REMARK  7 active torsions:
REMARK  status: ('A' for Active; 'I' for Inactive)
REMARK    1  A    between atoms: C_1  and  C_2
REMARK    2  A    between atoms: C_3  and  C_4
REMARK    3  A    between atoms: C_4  and  C_5
REMARK    4  A    between atoms: C_5  and  N_6
REMARK    5  A    between atoms: C_10  and  O_11
REMARK    6  A    between atoms: C_13  and  C_14
REMARK    7  A    between atoms: C_13  and  C_15
REMARK                            x       y       z     vdW  Elec       q    Type
REMARK                         _______ _______ _______ _____ _____    ______ ____
ROOT
ATOM      1  C   UNL     1       4.171   5.227  18.466  0.00  0.00    +0.000 C 
ENDROOT
BRANCH   1   4
ATOM      2  C   UNL     1       2.049   6.516  20.260  0.00  0.00    +0.000 C 
ATOM      3  C   UNL     1       2.052   5.063  19.850  0.00  0.00    +0.000 C 
ATOM      4  C   UNL     1       2.947   4.481  19.007  0.00  0.00    +0.000 C 
ATOM      5  C   UNL     1       2.763   3.017  18.521  0.00  0.00    +0.000 C 
ATOM      6  C   UNL     1       2.754   2.931  16.977  0.00  0.00    +0.000 C 
ATOM      7  C   UNL     1       3.912   2.143  19.062  0.00  0.00    +0.000 C 
ATOM      8  C   UNL     1       1.409   2.406  18.981  0.00  0.00    +0.000 C 
ATOM      9  C   UNL     1       1.060   2.790  20.407  0.00  0.00    +0.000 C 
ATOM     10  C   UNL     1       0.913   4.300  20.493  0.00  0.00    +0.000 C 
ENDBRANCH   1   4
BRANCH   1  11
ATOM     11  C   UNL     1       5.392   5.220  19.417  0.00  0.00    +0.000 C 
BRANCH  11  12
ATOM     12  N   UNL     1       6.682   4.821  18.805  0.00  0.00    +0.000 NA
ATOM     13  C   UNL     1       6.652   4.668  17.343  0.00  0.00    +0.000 C 
ATOM     14  C   UNL     1       6.480   5.985  16.580  0.00  0.00    +0.000 C 
ATOM     15  C   UNL     1       7.553   6.997  16.969  0.00  0.00    +0.000 C 
ATOM     16  C   UNL     1       7.651   7.152  18.487  0.00  0.00    +0.000 C 
ATOM     17  C   UNL     1       7.749   5.774  19.181  0.00  0.00    +0.000 C 
BRANCH  16  18
ATOM     18  O   UNL     1       8.778   7.962  18.811  0.00  0.00    +0.000 OA
ATOM     19  H   UNL     1       9.533   7.371  18.983  0.00  0.00    +0.000 HD
ENDBRANCH  16  18
ENDBRANCH  11  12
ENDBRANCH   1  11
TORSDOF 4
ENDMDL
