MODEL 1
REMARK VINA RESULT:      -7.3      0.000      0.000
REMARK  Name = 
REMARK  15 active torsions:
REMARK  status: ('A' for Active; 'I' for Inactive)
REMARK    1  A    between atoms: C_1  and  O_2
REMARK    2  A    between atoms: O_2  and  C_3
REMARK    3  A    between atoms: C_5  and  O_6
REMARK    4  A    between atoms: O_6  and  C_7
REMARK    5  A    between atoms: C_9  and  C_10
REMARK    6  A    between atoms: N_12  and  C_13
REMARK    7  A    between atoms: C_13  and  C_14
REMARK    8  A    between atoms: C_14  and  C_15
REMARK    9  A    between atoms: C_15  and  C_16
REMARK   10  A    between atoms: C_16  and  N_17
REMARK   11  A    between atoms: C_18  and  C_20
REMARK   12  A    between atoms: C_22  and  O_23
REMARK   13  A    between atoms: O_23  and  C_24
REMARK   14  A    between atoms: C_26  and  O_27
REMARK   15  A    between atoms: O_27  and  C_28
REMARK                            x       y       z     vdW  Elec       q    Type
REMARK                         _______ _______ _______ _____ _____    ______ ____
ROOT
ATOM      1  C   UNL     1       0.721   3.583  19.700  0.00  0.00    +0.000 C 
ENDROOT
BRANCH   1   2
ATOM      2  C   UNL     1       1.238   2.955  18.407  0.00  0.00    +0.000 C 
BRANCH   2   5
ATOM      3  C   UNL     1       3.609   2.894  17.766  0.00  0.00    +0.000 C 
ATOM      4  O   UNL     1       3.716   1.700  18.021  0.00  0.00    +0.000 OA
ATOM      5  N   UNL     1       2.441   3.610  17.941  0.00  0.00    +0.000 N 
ATOM      6  H   UNL     1       2.357   4.546  17.569  0.00  0.00    +0.000 HD
BRANCH   3  11
ATOM      7  C   UNL     1       6.616   5.172  17.396  0.00  0.00    +0.000 A 
ATOM      8  C   UNL     1       6.904   4.970  16.041  0.00  0.00    +0.000 A 
ATOM      9  C   UNL     1       6.133   4.105  15.259  0.00  0.00    +0.000 A 
ATOM     10  C   UNL     1       5.071   3.425  15.846  0.00  0.00    +0.000 A 
ATOM     11  C   UNL     1       4.764   3.635  17.197  0.00  0.00    +0.000 A 
ATOM     12  C   UNL     1       5.541   4.499  17.976  0.00  0.00    +0.000 A 
BRANCH   7  14
ATOM     13  C   UNL     1       7.488   7.382  17.541  0.00  0.00    +0.000 C 
ATOM     14  O   UNL     1       7.448   6.050  18.037  0.00  0.00    +0.000 OA
ENDBRANCH   7  14
BRANCH   9  15
ATOM     15  O   UNL     1       6.506   4.021  13.945  0.00  0.00    +0.000 OA
ATOM     16  C   UNL     1       7.429   5.000  13.477  0.00  0.00    +0.000 C 
ENDBRANCH   9  15
ENDBRANCH   3  11
ENDBRANCH   2   5
ENDBRANCH   1   2
BRANCH   1  17
ATOM     17  C   UNL     1       1.655   3.336  20.885  0.00  0.00    +0.000 C 
BRANCH  17  18
ATOM     18  C   UNL     1       2.704   4.433  21.035  0.00  0.00    +0.000 C 
BRANCH  18  19
ATOM     19  N   UNL     1       2.111   5.748  21.097  0.00  0.00    +0.000 N 
ATOM     20  C   UNL     1       2.252   6.648  20.055  0.00  0.00    +0.000 C 
ATOM     21  O   UNL     1       2.878   6.397  19.031  0.00  0.00    +0.000 OA
ATOM     22  H   UNL     1       1.699   6.034  21.970  0.00  0.00    +0.000 HD
BRANCH  20  23
ATOM     23  C   UNL     1       1.639   7.988  20.253  0.00  0.00    +0.000 A 
ATOM     24  C   UNL     1       1.122   8.300  21.516  0.00  0.00    +0.000 A 
ATOM     25  C   UNL     1       0.469   9.515  21.729  0.00  0.00    +0.000 A 
ATOM     26  C   UNL     1       0.367  10.427  20.679  0.00  0.00    +0.000 A 
ATOM     27  C   UNL     1       0.901  10.134  19.421  0.00  0.00    +0.000 A 
ATOM     28  C   UNL     1       1.552   8.922  19.212  0.00  0.00    +0.000 A 
BRANCH  25  29
ATOM     29  O   UNL     1      -0.046   9.679  22.986  0.00  0.00    +0.000 OA
ATOM     30  C   UNL     1      -1.066  10.658  23.138  0.00  0.00    +0.000 C 
ENDBRANCH  25  29
BRANCH  27  31
ATOM     31  O   UNL     1       0.702  11.108  18.476  0.00  0.00    +0.000 OA
ATOM     32  C   UNL     1       1.257  12.390  18.745  0.00  0.00    +0.000 C 
ENDBRANCH  27  31
ENDBRANCH  20  23
ENDBRANCH  18  19
ENDBRANCH  17  18
ENDBRANCH   1  17
TORSDOF 11
ENDMDL
MODEL 2
REMARK VINA RESULT:      -7.3      1.323      2.500
REMARK  Name = 
REMARK  15 active torsions:
REMARK  status: ('A' for Active; 'I' for Inactive)
REMARK    1  A    between atoms: C_1  and  O_2
REMARK    2  A    between atoms: O_2  and  C_3
REMARK    3  A    between atoms: C_5  and  O_6
REMARK    4  A    between atoms: O_6  and  C_7
REMARK    5  A    between atoms: C_9  and  C_10
REMARK    6  A    between atoms: N_12  and  C_13
REMARK    7  A    between atoms: C_13  and  C_14
REMARK    8  A    between atoms: C_14  and  C_15
REMARK    9  A    between atoms: C_15  and  C_16
REMARK   10  A    between atoms: C_16  and  N_17
REMARK   11  A    between atoms: C_18  and  C_20
REMARK   12  A    between atoms: C_22  and  O_23
REMARK   13  A    between atoms: O_23  and  C_24
REMARK   14  A    between atoms: C_26  and  O_27
REMARK   15  A    between atoms: O_27  and  C_28
REMARK                            x       y       z     vdW  Elec       q    Type
REMARK                         _______ _______ _______ _____ _____    ______ ____
ROOT
ATOM      1  C   UNL     1       1.822   3.247  20.620  0.00  0.00    +0.000 C 
ENDROOT
BRANCH   1   2
ATOM      2  C   UNL     1       2.413   2.588  19.375  0.00  0.00    +0.000 C 
BRANCH   2   5
ATOM      3  C   UNL     1       4.650   3.533  19.000  0.00  0.00    +0.000 C 
ATOM      4  O   UNL     1       5.153   2.874  19.902  0.00  0.00    +0.000 OA
ATOM      5  N   UNL     1       3.309   3.482  18.673  0.00  0.00    +0.000 N 
ATOM      6  H   UNL     1       2.974   3.919  17.825  0.00  0.00    +0.000 HD
BRANCH   3  11
ATOM      7  C   UNL     1       6.277   5.220  16.020  0.00  0.00    +0.000 A 
ATOM      8  C   UNL     1       7.139   6.100  16.685  0.00  0.00    +0.000 A 
ATOM      9  C   UNL     1       7.190   6.146  18.082  0.00  0.00    +0.000 A 
ATOM     10  C   UNL     1       6.358   5.310  18.818  0.00  0.00    +0.000 A 
ATOM     11  C   UNL     1       5.505   4.413  18.162  0.00  0.00    +0.000 A 
ATOM     12  C   UNL     1       5.455   4.374  16.764  0.00  0.00    +0.000 A 
BRANCH   7  14
ATOM     13  C   UNL     1       6.293   4.042  13.953  0.00  0.00    +0.000 C 
ATOM     14  O   UNL     1       6.336   5.278  14.654  0.00  0.00    +0.000 OA
ENDBRANCH   7  14
BRANCH   9  15
ATOM     15  O   UNL     1       8.095   7.031  18.601  0.00  0.00    +0.000 OA
ATOM     16  C   UNL     1       8.132   8.329  18.015  0.00  0.00    +0.000 C 
ENDBRANCH   9  15
ENDBRANCH   3  11
ENDBRANCH   2   5
ENDBRANCH   1   2
BRANCH   1  17
ATOM     17  C   UNL     1       1.287   4.651  20.341  0.00  0.00    +0.000 C 
BRANCH  17  18
ATOM     18  C   UNL     1       2.213   5.742  20.868  0.00  0.00    +0.000 C 
BRANCH  18  19
ATOM     19  N   UNL     1       1.558   7.027  20.932  0.00  0.00    +0.000 N 
ATOM     20  C   UNL     1       1.660   7.937  19.895  0.00  0.00    +0.000 C 
ATOM     21  O   UNL     1       2.301   7.720  18.873  0.00  0.00    +0.000 OA
ATOM     22  H   UNL     1       1.130   7.290  21.805  0.00  0.00    +0.000 HD
BRANCH  20  23
ATOM     23  C   UNL     1       0.984   9.245  20.095  0.00  0.00    +0.000 A 
ATOM     24  C   UNL     1       0.655   9.628  21.401  0.00  0.00    +0.000 A 
ATOM     25  C   UNL     1      -0.048  10.811  21.633  0.00  0.00    +0.000 A 
ATOM     26  C   UNL     1      -0.391  11.623  20.551  0.00  0.00    +0.000 A 
ATOM     27  C   UNL     1      -0.047  11.261  19.246  0.00  0.00    +0.000 A 
ATOM     28  C   UNL     1       0.655  10.080  19.019  0.00  0.00    +0.000 A 
BRANCH  25  29
ATOM     29  O   UNL     1      -0.363  11.046  22.943  0.00  0.00    +0.000 OA
ATOM     30  C   UNL     1      -1.391  11.997  23.194  0.00  0.00    +0.000 C 
ENDBRANCH  25  29
BRANCH  27  31
ATOM     31  O   UNL     1      -0.472  12.136  18.281  0.00  0.00    +0.000 OA
ATOM     32  C   UNL     1      -0.293  13.522  18.542  0.00  0.00    +0.000 C 
ENDBRANCH  27  31
ENDBRANCH  20  23
ENDBRANCH  18  19
ENDBRANCH  17  18
ENDBRANCH   1  17
TORSDOF 11
ENDMDL
MODEL 3
REMARK VINA RESULT:      -7.2      1.115      8.145
REMARK  Name = 
REMARK  15 active torsions:
REMARK  status: ('A' for Active; 'I' for Inactive)
REMARK    1  A    between atoms: C_1  and  O_2
REMARK    2  A    between atoms: O_2  and  C_3
REMARK    3  A    between atoms: C_5  and  O_6
REMARK    4  A    between atoms: O_6  and  C_7
REMARK    5  A    between atoms: C_9  and  C_10
REMARK    6  A    between atoms: N_12  and  C_13
REMARK    7  A    between atoms: C_13  and  C_14
REMARK    8  A    between atoms: C_14  and  C_15
REMARK    9  A    between atoms: C_15  and  C_16
REMARK   10  A    between atoms: C_16  and  N_17
REMARK   11  A    between atoms: C_18  and  C_20
REMARK   12  A    between atoms: C_22  and  O_23
REMARK   13  A    between atoms: O_23  and  C_24
REMARK   14  A    between atoms: C_26  and  O_27
REMARK   15  A    between atoms: O_27  and  C_28
REMARK                            x       y       z     vdW  Elec       q    Type
REMARK                         _______ _______ _______ _____ _____    ______ ____
ROOT
ATOM      1  C   UNL     1       1.325   4.361  19.645  0.00  0.00    +0.000 C 
ENDROOT
BRANCH   1   2
ATOM      2  C   UNL     1       2.238   5.150  20.582  0.00  0.00    +0.000 C 
BRANCH   2   5
ATOM      3  C   UNL     1       1.897   7.512  19.997  0.00  0.00    +0.000 C 
ATOM      4  O   UNL     1       2.553   7.420  18.965  0.00  0.00    +0.000 OA
ATOM      5  N   UNL     1       1.699   6.461  20.871  0.00  0.00    +0.000 N 
ATOM      6  H   UNL     1       1.024   6.541  21.619  0.00  0.00    +0.000 HD
BRANCH   3  11
ATOM      7  C   UNL     1       0.205  10.311  21.913  0.00  0.00    +0.000 A 
ATOM      8  C   UNL     1      -0.013  11.217  20.868  0.00  0.00    +0.000 A 
ATOM      9  C   UNL     1       0.384  10.925  19.560  0.00  0.00    +0.000 A 
ATOM     10  C   UNL     1       1.021   9.715  19.300  0.00  0.00    +0.000 A 
ATOM     11  C   UNL     1       1.227   8.793  20.336  0.00  0.00    +0.000 A 
ATOM     12  C   UNL     1       0.830   9.094  21.643  0.00  0.00    +0.000 A 
BRANCH   7  14
ATOM     13  C   UNL     1      -1.538  11.307  23.190  0.00  0.00    +0.000 C 
ATOM     14  O   UNL     1      -0.241  10.726  23.138  0.00  0.00    +0.000 OA
ENDBRANCH   7  14
BRANCH   9  15
ATOM     15  O   UNL     1       0.086  11.885  18.633  0.00  0.00    +0.000 OA
ATOM     16  C   UNL     1      -1.212  12.467  18.706  0.00  0.00    +0.000 C 
ENDBRANCH   9  15
ENDBRANCH   3  11
ENDBRANCH   2   5
ENDBRANCH   1   2
BRANCH   1  17
ATOM     17  C   UNL     1       1.514   2.850  19.779  0.00  0.00    +0.000 C 
BRANCH  17  18
ATOM     18  C   UNL     1       1.899   2.193  18.457  0.00  0.00    +0.000 C 
BRANCH  18  19
ATOM     19  N   UNL     1       2.775   3.028  17.670  0.00  0.00    +0.000 N 
ATOM     20  C   UNL     1       4.101   3.209  18.023  0.00  0.00    +0.000 C 
ATOM     21  O   UNL     1       4.612   2.685  19.006  0.00  0.00    +0.000 OA
ATOM     22  H   UNL     1       2.361   3.574  16.932  0.00  0.00    +0.000 HD
BRANCH  20  23
ATOM     23  C   UNL     1       4.892   4.130  17.166  0.00  0.00    +0.000 A 
ATOM     24  C   UNL     1       5.354   3.655  15.932  0.00  0.00    +0.000 A 
ATOM     25  C   UNL     1       6.164   4.457  15.127  0.00  0.00    +0.000 A 
ATOM     26  C   UNL     1       6.482   5.747  15.550  0.00  0.00    +0.000 A 
ATOM     27  C   UNL     1       6.006   6.239  16.769  0.00  0.00    +0.000 A 
ATOM     28  C   UNL     1       5.197   5.437  17.569  0.00  0.00    +0.000 A 
BRANCH  25  29
ATOM     29  O   UNL     1       6.602   3.861  13.976  0.00  0.00    +0.000 OA
ATOM     30  C   UNL     1       5.616   3.554  12.998  0.00  0.00    +0.000 C 
ENDBRANCH  25  29
BRANCH  27  31
ATOM     31  O   UNL     1       6.420   7.511  17.071  0.00  0.00    +0.000 OA
ATOM     32  C   UNL     1       7.720   7.651  17.630  0.00  0.00    +0.000 C 
ENDBRANCH  27  31
ENDBRANCH  20  23
ENDBRANCH  18  19
ENDBRANCH  17  18
ENDBRANCH   1  17
TORSDOF 11
ENDMDL
MODEL 4
REMARK VINA RESULT:      -7.0      1.571      8.362
REMARK  Name = 
REMARK  15 active torsions:
REMARK  status: ('A' for Active; 'I' for Inactive)
REMARK    1  A    between atoms: C_1  and  O_2
REMARK    2  A    between atoms: O_2  and  C_3
REMARK    3  A    between atoms: C_5  and  O_6
REMARK    4  A    between atoms: O_6  and  C_7
REMARK    5  A    between atoms: C_9  and  C_10
REMARK    6  A    between atoms: N_12  and  C_13
REMARK    7  A    between atoms: C_13  and  C_14
REMARK    8  A    between atoms: C_14  and  C_15
REMARK    9  A    between atoms: C_15  and  C_16
REMARK   10  A    between atoms: C_16  and  N_17
REMARK   11  A    between atoms: C_18  and  C_20
REMARK   12  A    between atoms: C_22  and  O_23
REMARK   13  A    between atoms: O_23  and  C_24
REMARK   14  A    between atoms: C_26  and  O_27
REMARK   15  A    between atoms: O_27  and  C_28
REMARK                            x       y       z     vdW  Elec       q    Type
REMARK                         _______ _______ _______ _____ _____    ______ ____
ROOT
ATOM      1  C   UNL     1       1.926   4.962  19.874  0.00  0.00    +0.000 C 
ENDROOT
BRANCH   1   2
ATOM      2  C   UNL     1       2.821   6.200  19.908  0.00  0.00    +0.000 C 
BRANCH   2   5
ATOM      3  C   UNL     1       1.801   8.314  19.181  0.00  0.00    +0.000 C 
ATOM      4  O   UNL     1       2.216   8.197  18.034  0.00  0.00    +0.000 OA
ATOM      5  N   UNL     1       2.059   7.400  20.183  0.00  0.00    +0.000 N 
ATOM      6  H   UNL     1       1.567   7.457  21.064  0.00  0.00    +0.000 HD
BRANCH   3  11
ATOM      7  C   UNL     1      -0.006  11.005  21.146  0.00  0.00    +0.000 A 
ATOM      8  C   UNL     1      -0.708  11.629  20.107  0.00  0.00    +0.000 A 
ATOM      9  C   UNL     1      -0.595  11.183  18.787  0.00  0.00    +0.000 A 
ATOM     10  C   UNL     1       0.242  10.109  18.504  0.00  0.00    +0.000 A 
ATOM     11  C   UNL     1       0.934   9.466  19.540  0.00  0.00    +0.000 A 
ATOM     12  C   UNL     1       0.820   9.920  20.858  0.00  0.00    +0.000 A 
BRANCH   7  14
ATOM     13  C   UNL     1      -1.277  10.992  23.158  0.00  0.00    +0.000 C 
ATOM     14  O   UNL     1      -0.217  11.543  22.387  0.00  0.00    +0.000 OA
ENDBRANCH   7  14
BRANCH   9  15
ATOM     15  O   UNL     1      -1.356  11.864  17.876  0.00  0.00    +0.000 OA
ATOM     16  C   UNL     1      -2.312  11.103  17.143  0.00  0.00    +0.000 C 
ENDBRANCH   9  15
ENDBRANCH   3  11
ENDBRANCH   2   5
ENDBRANCH   1   2
BRANCH   1  17
ATOM     17  C   UNL     1       2.545   3.772  20.606  0.00  0.00    +0.000 C 
BRANCH  17  18
ATOM     18  C   UNL     1       3.094   2.721  19.646  0.00  0.00    +0.000 C 
BRANCH  18  19
ATOM     19  N   UNL     1       4.133   3.252  18.795  0.00  0.00    +0.000 N 
ATOM     20  C   UNL     1       3.905   3.496  17.453  0.00  0.00    +0.000 C 
ATOM     21  O   UNL     1       2.829   3.283  16.904  0.00  0.00    +0.000 OA
ATOM     22  H   UNL     1       5.062   3.320  19.179  0.00  0.00    +0.000 HD
BRANCH  20  23
ATOM     23  C   UNL     1       5.063   3.996  16.667  0.00  0.00    +0.000 A 
ATOM     24  C   UNL     1       5.954   4.880  17.288  0.00  0.00    +0.000 A 
ATOM     25  C   UNL     1       7.012   5.435  16.568  0.00  0.00    +0.000 A 
ATOM     26  C   UNL     1       7.191   5.075  15.233  0.00  0.00    +0.000 A 
ATOM     27  C   UNL     1       6.322   4.176  14.610  0.00  0.00    +0.000 A 
ATOM     28  C   UNL     1       5.267   3.623  15.332  0.00  0.00    +0.000 A 
BRANCH  25  29
ATOM     29  O   UNL     1       7.776   6.330  17.266  0.00  0.00    +0.000 OA
ATOM     30  C   UNL     1       7.745   6.231  18.685  0.00  0.00    +0.000 C 
ENDBRANCH  25  29
BRANCH  27  31
ATOM     31  O   UNL     1       6.599   3.935  13.290  0.00  0.00    +0.000 OA
ATOM     32  C   UNL     1       5.556   3.374  12.503  0.00  0.00    +0.000 C 
ENDBRANCH  27  31
ENDBRANCH  20  23
ENDBRANCH  18  19
ENDBRANCH  17  18
ENDBRANCH   1  17
TORSDOF 11
ENDMDL
MODEL 5
REMARK VINA RESULT:      -6.9      1.133      1.306
REMARK  Name = 
REMARK  15 active torsions:
REMARK  status: ('A' for Active; 'I' for Inactive)
REMARK    1  A    between atoms: C_1  and  O_2
REMARK    2  A    between atoms: O_2  and  C_3
REMARK    3  A    between atoms: C_5  and  O_6
REMARK    4  A    between atoms: O_6  and  C_7
REMARK    5  A    between atoms: C_9  and  C_10
REMARK    6  A    between atoms: N_12  and  C_13
REMARK    7  A    between atoms: C_13  and  C_14
REMARK    8  A    between atoms: C_14  and  C_15
REMARK    9  A    between atoms: C_15  and  C_16
REMARK   10  A    between atoms: C_16  and  N_17
REMARK   11  A    between atoms: C_18  and  C_20
REMARK   12  A    between atoms: C_22  and  O_23
REMARK   13  A    between atoms: O_23  and  C_24
REMARK   14  A    between atoms: C_26  and  O_27
REMARK   15  A    between atoms: O_27  and  C_28
REMARK                            x       y       z     vdW  Elec       q    Type
REMARK                         _______ _______ _______ _____ _____    ______ ____
ROOT
ATOM      1  C   UNL     1       1.946   2.010  19.009  0.00  0.00    +0.000 C 
ENDROOT
BRANCH   1   2
ATOM      2  C   UNL     1       3.413   1.638  18.797  0.00  0.00    +0.000 C 
BRANCH   2   5
ATOM      3  C   UNL     1       4.963   3.502  18.401  0.00  0.00    +0.000 C 
ATOM      4  O   UNL     1       5.217   3.632  19.593  0.00  0.00    +0.000 OA
ATOM      5  N   UNL     1       4.075   2.567  17.907  0.00  0.00    +0.000 N 
ATOM      6  H   UNL     1       4.020   2.392  16.913  0.00  0.00    +0.000 HD
BRANCH   3  11
ATOM      7  C   UNL     1       6.735   6.406  16.728  0.00  0.00    +0.000 A 
ATOM      8  C   UNL     1       6.963   5.850  15.464  0.00  0.00    +0.000 A 
ATOM      9  C   UNL     1       6.549   4.550  15.159  0.00  0.00    +0.000 A 
ATOM     10  C   UNL     1       5.911   3.795  16.138  0.00  0.00    +0.000 A 
ATOM     11  C   UNL     1       5.662   4.349  17.400  0.00  0.00    +0.000 A 
ATOM     12  C   UNL     1       6.082   5.649  17.701  0.00  0.00    +0.000 A 
BRANCH   7  14
ATOM     13  C   UNL     1       8.049   7.939  17.987  0.00  0.00    +0.000 C 
ATOM     14  O   UNL     1       7.188   7.688  16.884  0.00  0.00    +0.000 OA
ENDBRANCH   7  14
BRANCH   9  15
ATOM     15  O   UNL     1       6.810   4.141  13.879  0.00  0.00    +0.000 OA
ATOM     16  C   UNL     1       5.698   3.692  13.110  0.00  0.00    +0.000 C 
ENDBRANCH   9  15
ENDBRANCH   3  11
ENDBRANCH   2   5
ENDBRANCH   1   2
BRANCH   1  17
ATOM     17  C   UNL     1       1.724   3.523  19.030  0.00  0.00    +0.000 C 
BRANCH  17  18
ATOM     18  C   UNL     1       1.877   4.113  20.428  0.00  0.00    +0.000 C 
BRANCH  18  19
ATOM     19  N   UNL     1       1.365   5.461  20.507  0.00  0.00    +0.000 N 
ATOM     20  C   UNL     1       2.113   6.539  20.068  0.00  0.00    +0.000 C 
ATOM     21  O   UNL     1       3.237   6.428  19.593  0.00  0.00    +0.000 OA
ATOM     22  H   UNL     1       0.502   5.604  21.007  0.00  0.00    +0.000 HD
BRANCH  20  23
ATOM     23  C   UNL     1       1.501   7.882  20.246  0.00  0.00    +0.000 A 
ATOM     24  C   UNL     1       0.798   8.139  21.430  0.00  0.00    +0.000 A 
ATOM     25  C   UNL     1       0.143   9.357  21.610  0.00  0.00    +0.000 A 
ATOM     26  C   UNL     1       0.223  10.329  20.611  0.00  0.00    +0.000 A 
ATOM     27  C   UNL     1       0.942  10.091  19.437  0.00  0.00    +0.000 A 
ATOM     28  C   UNL     1       1.595   8.874  19.261  0.00  0.00    +0.000 A 
BRANCH  25  29
ATOM     29  O   UNL     1      -0.559   9.467  22.778  0.00  0.00    +0.000 OA
ATOM     30  C   UNL     1      -1.052  10.759  23.113  0.00  0.00    +0.000 C 
ENDBRANCH  25  29
BRANCH  27  31
ATOM     31  O   UNL     1       0.912  11.120  18.532  0.00  0.00    +0.000 OA
ATOM     32  C   UNL     1       0.241  12.310  18.929  0.00  0.00    +0.000 C 
ENDBRANCH  27  31
ENDBRANCH  20  23
ENDBRANCH  18  19
ENDBRANCH  17  18
ENDBRANCH   1  17
TORSDOF 11
ENDMDL
MODEL 6
REMARK VINA RESULT:      -6.8      0.979      3.019
REMARK  Name = 
REMARK  15 active torsions:
REMARK  status: ('A' for Active; 'I' for Inactive)
REMARK    1  A    between atoms: C_1  and  O_2
REMARK    2  A    between atoms: O_2  and  C_3
REMARK    3  A    between atoms: C_5  and  O_6
REMARK    4  A    between atoms: O_6  and  C_7
REMARK    5  A    between atoms: C_9  and  C_10
REMARK    6  A    between atoms: N_12  and  C_13
REMARK    7  A    between atoms: C_13  and  C_14
REMARK    8  A    between atoms: C_14  and  C_15
REMARK    9  A    between atoms: C_15  and  C_16
REMARK   10  A    between atoms: C_16  and  N_17
REMARK   11  A    between atoms: C_18  and  C_20
REMARK   12  A    between atoms: C_22  and  O_23
REMARK   13  A    between atoms: O_23  and  C_24
REMARK   14  A    between atoms: C_26  and  O_27
REMARK   15  A    between atoms: O_27  and  C_28
REMARK                            x       y       z     vdW  Elec       q    Type
REMARK                         _______ _______ _______ _____ _____    ______ ____
ROOT
ATOM      1  C   UNL     1       1.350   2.658  19.932  0.00  0.00    +0.000 C 
ENDROOT
BRANCH   1   2
ATOM      2  C   UNL     1       2.013   1.977  18.736  0.00  0.00    +0.000 C 
BRANCH   2   5
ATOM      3  C   UNL     1       4.071   3.244  18.293  0.00  0.00    +0.000 C 
ATOM      4  O   UNL     1       4.636   2.804  19.288  0.00  0.00    +0.000 OA
ATOM      5  N   UNL     1       2.776   2.917  17.943  0.00  0.00    +0.000 N 
ATOM      6  H   UNL     1       2.413   3.176  17.037  0.00  0.00    +0.000 HD
BRANCH   3  11
ATOM      7  C   UNL     1       5.813   4.637  15.228  0.00  0.00    +0.000 A 
ATOM      8  C   UNL     1       6.167   5.904  15.709  0.00  0.00    +0.000 A 
ATOM      9  C   UNL     1       5.844   6.300  17.011  0.00  0.00    +0.000 A 
ATOM     10  C   UNL     1       5.145   5.421  17.833  0.00  0.00    +0.000 A 
ATOM     11  C   UNL     1       4.803   4.145  17.366  0.00  0.00    +0.000 A 
ATOM     12  C   UNL     1       5.125   3.756  16.062  0.00  0.00    +0.000 A 
BRANCH   7  14
ATOM     13  C   UNL     1       7.531   4.728  13.585  0.00  0.00    +0.000 C 
ATOM     14  O   UNL     1       6.198   4.383  13.940  0.00  0.00    +0.000 OA
ENDBRANCH   7  14
BRANCH   9  15
ATOM     15  O   UNL     1       6.273   7.551  17.361  0.00  0.00    +0.000 OA
ATOM     16  C   UNL     1       7.681   7.758  17.401  0.00  0.00    +0.000 C 
ENDBRANCH   9  15
ENDBRANCH   3  11
ENDBRANCH   2   5
ENDBRANCH   1   2
BRANCH   1  17
ATOM     17  C   UNL     1       1.212   4.168  19.743  0.00  0.00    +0.000 C 
BRANCH  17  18
ATOM     18  C   UNL     1       2.011   4.959  20.775  0.00  0.00    +0.000 C 
BRANCH  18  19
ATOM     19  N   UNL     1       1.472   6.282  20.981  0.00  0.00    +0.000 N 
ATOM     20  C   UNL     1       1.828   7.337  20.160  0.00  0.00    +0.000 C 
ATOM     21  O   UNL     1       2.609   7.224  19.222  0.00  0.00    +0.000 OA
ATOM     22  H   UNL     1       0.930   6.441  21.815  0.00  0.00    +0.000 HD
BRANCH  20  23
ATOM     23  C   UNL     1       1.248   8.663  20.500  0.00  0.00    +0.000 A 
ATOM     24  C   UNL     1       1.295   9.675  19.533  0.00  0.00    +0.000 A 
ATOM     25  C   UNL     1       0.833  10.957  19.832  0.00  0.00    +0.000 A 
ATOM     26  C   UNL     1       0.294  11.210  21.094  0.00  0.00    +0.000 A 
ATOM     27  C   UNL     1       0.221  10.201  22.058  0.00  0.00    +0.000 A 
ATOM     28  C   UNL     1       0.683   8.923  21.755  0.00  0.00    +0.000 A 
BRANCH  25  29
ATOM     29  O   UNL     1       0.987  11.873  18.828  0.00  0.00    +0.000 OA
ATOM     30  C   UNL     1       2.296  12.020  18.289  0.00  0.00    +0.000 C 
ENDBRANCH  25  29
BRANCH  27  31
ATOM     31  O   UNL     1      -0.303  10.598  23.260  0.00  0.00    +0.000 OA
ATOM     32  C   UNL     1      -1.607  11.167  23.240  0.00  0.00    +0.000 C 
ENDBRANCH  27  31
ENDBRANCH  20  23
ENDBRANCH  18  19
ENDBRANCH  17  18
ENDBRANCH   1  17
TORSDOF 11
ENDMDL
MODEL 7
REMARK VINA RESULT:      -6.7      1.319      2.413
REMARK  Name = 
REMARK  15 active torsions:
REMARK  status: ('A' for Active; 'I' for Inactive)
REMARK    1  A    between atoms: C_1  and  O_2
REMARK    2  A    between atoms: O_2  and  C_3
REMARK    3  A    between atoms: C_5  and  O_6
REMARK    4  A    between atoms: O_6  and  C_7
REMARK    5  A    between atoms: C_9  and  C_10
REMARK    6  A    between atoms: N_12  and  C_13
REMARK    7  A    between atoms: C_13  and  C_14
REMARK    8  A    between atoms: C_14  and  C_15
REMARK    9  A    between atoms: C_15  and  C_16
REMARK   10  A    between atoms: C_16  and  N_17
REMARK   11  A    between atoms: C_18  and  C_20
REMARK   12  A    between atoms: C_22  and  O_23
REMARK   13  A    between atoms: O_23  and  C_24
REMARK   14  A    between atoms: C_26  and  O_27
REMARK   15  A    between atoms: O_27  and  C_28
REMARK                            x       y       z     vdW  Elec       q    Type
REMARK                         _______ _______ _______ _____ _____    ______ ____
ROOT
ATOM      1  C   UNL     1       2.027   2.892  20.570  0.00  0.00    +0.000 C 
ENDROOT
BRANCH   1   2
ATOM      2  C   UNL     1       1.907   2.368  19.140  0.00  0.00    +0.000 C 
BRANCH   2   5
ATOM      3  C   UNL     1       2.883   3.975  17.558  0.00  0.00    +0.000 C 
ATOM      4  O   UNL     1       1.860   4.648  17.509  0.00  0.00    +0.000 OA
ATOM      5  N   UNL     1       3.003   2.824  18.312  0.00  0.00    +0.000 N 
ATOM      6  H   UNL     1       3.908   2.395  18.446  0.00  0.00    +0.000 HD
BRANCH   3  11
ATOM      7  C   UNL     1       5.811   4.066  15.153  0.00  0.00    +0.000 A 
ATOM      8  C   UNL     1       6.348   5.317  15.477  0.00  0.00    +0.000 A 
ATOM      9  C   UNL     1       5.766   6.122  16.461  0.00  0.00    +0.000 A 
ATOM     10  C   UNL     1       4.626   5.671  17.118  0.00  0.00    +0.000 A 
ATOM     11  C   UNL     1       4.092   4.411  16.814  0.00  0.00    +0.000 A 
ATOM     12  C   UNL     1       4.677   3.613  15.825  0.00  0.00    +0.000 A 
BRANCH   7  14
ATOM     13  C   UNL     1       6.462   3.940  12.868  0.00  0.00    +0.000 C 
ATOM     14  O   UNL     1       6.486   3.385  14.176  0.00  0.00    +0.000 OA
ENDBRANCH   7  14
BRANCH   9  15
ATOM     15  O   UNL     1       6.406   7.308  16.697  0.00  0.00    +0.000 OA
ATOM     16  C   UNL     1       7.549   7.262  17.548  0.00  0.00    +0.000 C 
ENDBRANCH   9  15
ENDBRANCH   3  11
ENDBRANCH   2   5
ENDBRANCH   1   2
BRANCH   1  17
ATOM     17  C   UNL     1       1.294   4.218  20.771  0.00  0.00    +0.000 C 
BRANCH  17  18
ATOM     18  C   UNL     1       2.252   5.399  20.891  0.00  0.00    +0.000 C 
BRANCH  18  19
ATOM     19  N   UNL     1       1.559   6.666  20.852  0.00  0.00    +0.000 N 
ATOM     20  C   UNL     1       1.891   7.637  19.925  0.00  0.00    +0.000 C 
ATOM     21  O   UNL     1       2.777   7.493  19.090  0.00  0.00    +0.000 OA
ATOM     22  H   UNL     1       0.915   6.869  21.600  0.00  0.00    +0.000 HD
BRANCH  20  23
ATOM     23  C   UNL     1       1.143   8.918  20.014  0.00  0.00    +0.000 A 
ATOM     24  C   UNL     1       0.919   9.468  21.282  0.00  0.00    +0.000 A 
ATOM     25  C   UNL     1       0.157  10.628  21.423  0.00  0.00    +0.000 A 
ATOM     26  C   UNL     1      -0.352  11.252  20.283  0.00  0.00    +0.000 A 
ATOM     27  C   UNL     1      -0.114  10.724  19.011  0.00  0.00    +0.000 A 
ATOM     28  C   UNL     1       0.648   9.566  18.875  0.00  0.00    +0.000 A 
BRANCH  25  29
ATOM     29  O   UNL     1      -0.042  11.033  22.714  0.00  0.00    +0.000 OA
ATOM     30  C   UNL     1      -1.293  10.701  23.305  0.00  0.00    +0.000 C 
ENDBRANCH  25  29
BRANCH  27  31
ATOM     31  O   UNL     1      -0.698  11.422  17.986  0.00  0.00    +0.000 OA
ATOM     32  C   UNL     1      -2.053  11.814  18.162  0.00  0.00    +0.000 C 
ENDBRANCH  27  31
ENDBRANCH  20  23
ENDBRANCH  18  19
ENDBRANCH  17  18
ENDBRANCH   1  17
TORSDOF 11
ENDMDL
MODEL 8
REMARK VINA RESULT:      -6.7      3.993      9.327
REMARK  Name = 
REMARK  15 active torsions:
REMARK  status: ('A' for Active; 'I' for Inactive)
REMARK    1  A    between atoms: C_1  and  O_2
REMARK    2  A    between atoms: O_2  and  C_3
REMARK    3  A    between atoms: C_5  and  O_6
REMARK    4  A    between atoms: O_6  and  C_7
REMARK    5  A    between atoms: C_9  and  C_10
REMARK    6  A    between atoms: N_12  and  C_13
REMARK    7  A    between atoms: C_13  and  C_14
REMARK    8  A    between atoms: C_14  and  C_15
REMARK    9  A    between atoms: C_15  and  C_16
REMARK   10  A    between atoms: C_16  and  N_17
REMARK   11  A    between atoms: C_18  and  C_20
REMARK   12  A    between atoms: C_22  and  O_23
REMARK   13  A    between atoms: O_23  and  C_24
REMARK   14  A    between atoms: C_26  and  O_27
REMARK   15  A    between atoms: O_27  and  C_28
REMARK                            x       y       z     vdW  Elec       q    Type
REMARK                         _______ _______ _______ _____ _____    ______ ____
ROOT
ATOM      1  C   UNL     1      -0.807  10.532  22.614  0.00  0.00    +0.000 C 
ENDROOT
BRANCH   1   2
ATOM      2  C   UNL     1      -0.409  11.513  21.513  0.00  0.00    +0.000 C 
BRANCH   2   5
ATOM      3  C   UNL     1      -1.600  11.066  19.410  0.00  0.00    +0.000 C 
ATOM      4  O   UNL     1      -0.771  10.244  19.038  0.00  0.00    +0.000 OA
ATOM      5  N   UNL     1      -1.504  11.761  20.600  0.00  0.00    +0.000 N 
ATOM      6  H   UNL     1      -2.287  12.306  20.935  0.00  0.00    +0.000 HD
BRANCH   3  11
ATOM      7  C   UNL     1      -5.055  12.163  18.302  0.00  0.00    +0.000 A 
ATOM      8  C   UNL     1      -5.012  11.767  16.959  0.00  0.00    +0.000 A 
ATOM      9  C   UNL     1      -3.877  11.154  16.421  0.00  0.00    +0.000 A 
ATOM     10  C   UNL     1      -2.767  10.949  17.235  0.00  0.00    +0.000 A 
ATOM     11  C   UNL     1      -2.808  11.324  18.584  0.00  0.00    +0.000 A 
ATOM     12  C   UNL     1      -3.945  11.941  19.116  0.00  0.00    +0.000 A 
BRANCH   7  14
ATOM     13  C   UNL     1      -7.226  12.925  17.694  0.00  0.00    +0.000 C 
ATOM     14  O   UNL     1      -6.230  12.744  18.693  0.00  0.00    +0.000 OA
ENDBRANCH   7  14
BRANCH   9  15
ATOM     15  O   UNL     1      -3.979  10.793  15.105  0.00  0.00    +0.000 OA
ATOM     16  C   UNL     1      -2.900  10.038  14.562  0.00  0.00    +0.000 C 
ENDBRANCH   9  15
ENDBRANCH   3  11
ENDBRANCH   2   5
ENDBRANCH   1   2
BRANCH   1  17
ATOM     17  C   UNL     1       0.204   9.397  22.779  0.00  0.00    +0.000 C 
BRANCH  17  18
ATOM     18  C   UNL     1       1.274   9.409  21.692  0.00  0.00    +0.000 C 
BRANCH  18  19
ATOM     19  N   UNL     1       1.647   8.076  21.282  0.00  0.00    +0.000 N 
ATOM     20  C   UNL     1       1.952   7.790  19.963  0.00  0.00    +0.000 C 
ATOM     21  O   UNL     1       1.927   8.630  19.071  0.00  0.00    +0.000 OA
ATOM     22  H   UNL     1       1.555   7.336  21.960  0.00  0.00    +0.000 HD
BRANCH  20  23
ATOM     23  C   UNL     1       2.273   6.372  19.652  0.00  0.00    +0.000 A 
ATOM     24  C   UNL     1       2.201   5.433  20.689  0.00  0.00    +0.000 A 
ATOM     25  C   UNL     1       2.566   4.106  20.464  0.00  0.00    +0.000 A 
ATOM     26  C   UNL     1       2.974   3.718  19.187  0.00  0.00    +0.000 A 
ATOM     27  C   UNL     1       3.027   4.643  18.141  0.00  0.00    +0.000 A 
ATOM     28  C   UNL     1       2.661   5.966  18.369  0.00  0.00    +0.000 A 
BRANCH  25  29
ATOM     29  O   UNL     1       2.511   3.299  21.567  0.00  0.00    +0.000 OA
ATOM     30  C   UNL     1       1.327   2.528  21.739  0.00  0.00    +0.000 C 
ENDBRANCH  25  29
BRANCH  27  31
ATOM     31  O   UNL     1       3.472   4.130  16.950  0.00  0.00    +0.000 OA
ATOM     32  C   UNL     1       4.859   3.830  16.855  0.00  0.00    +0.000 C 
ENDBRANCH  27  31
ENDBRANCH  20  23
ENDBRANCH  18  19
ENDBRANCH  17  18
ENDBRANCH   1  17
TORSDOF 11
ENDMDL
MODEL 9
REMARK VINA RESULT:      -6.6      2.601      3.830
REMARK  Name = 
REMARK  15 active torsions:
REMARK  status: ('A' for Active; 'I' for Inactive)
REMARK    1  A    between atoms: C_1  and  O_2
REMARK    2  A    between atoms: O_2  and  C_3
REMARK    3  A    between atoms: C_5  and  O_6
REMARK    4  A    between atoms: O_6  and  C_7
REMARK    5  A    between atoms: C_9  and  C_10
REMARK    6  A    between atoms: N_12  and  C_13
REMARK    7  A    between atoms: C_13  and  C_14
REMARK    8  A    between atoms: C_14  and  C_15
REMARK    9  A    between atoms: C_15  and  C_16
REMARK   10  A    between atoms: C_16  and  N_17
REMARK   11  A    between atoms: C_18  and  C_20
REMARK   12  A    between atoms: C_22  and  O_23
REMARK   13  A    between atoms: O_23  and  C_24
REMARK   14  A    between atoms: C_26  and  O_27
REMARK   15  A    between atoms: O_27  and  C_28
REMARK                            x       y       z     vdW  Elec       q    Type
REMARK                         _______ _______ _______ _____ _____    ______ ____
ROOT
ATOM      1  C   UNL     1       1.923   5.474  20.839  0.00  0.00    +0.000 C 
ENDROOT
BRANCH   1   2
ATOM      2  C   UNL     1       2.577   4.255  20.191  0.00  0.00    +0.000 C 
BRANCH   2   5
ATOM      3  C   UNL     1       4.655   3.998  18.905  0.00  0.00    +0.000 C 
ATOM      4  O   UNL     1       5.085   3.122  19.647  0.00  0.00    +0.000 OA
ATOM      5  N   UNL     1       3.444   4.634  19.096  0.00  0.00    +0.000 N 
ATOM      6  H   UNL     1       3.062   5.230  18.375  0.00  0.00    +0.000 HD
BRANCH   3  11
ATOM      7  C   UNL     1       6.167   4.033  15.429  0.00  0.00    +0.000 A 
ATOM      8  C   UNL     1       6.907   5.219  15.502  0.00  0.00    +0.000 A 
ATOM      9  C   UNL     1       6.914   5.998  16.663  0.00  0.00    +0.000 A 
ATOM     10  C   UNL     1       6.159   5.589  17.758  0.00  0.00    +0.000 A 
ATOM     11  C   UNL     1       5.430   4.393  17.701  0.00  0.00    +0.000 A 
ATOM     12  C   UNL     1       5.423   3.621  16.534  0.00  0.00    +0.000 A 
BRANCH   7  14
ATOM     13  C   UNL     1       6.349   4.166  13.060  0.00  0.00    +0.000 C 
ATOM     14  O   UNL     1       6.257   3.371  14.235  0.00  0.00    +0.000 OA
ENDBRANCH   7  14
BRANCH   9  15
ATOM     15  O   UNL     1       7.700   7.116  16.609  0.00  0.00    +0.000 OA
ATOM     16  C   UNL     1       7.863   7.845  17.822  0.00  0.00    +0.000 C 
ENDBRANCH   9  15
ENDBRANCH   3  11
ENDBRANCH   2   5
ENDBRANCH   1   2
BRANCH   1  17
ATOM     17  C   UNL     1       2.305   6.781  20.144  0.00  0.00    +0.000 C 
BRANCH  17  18
ATOM     18  C   UNL     1       1.697   8.002  20.828  0.00  0.00    +0.000 C 
BRANCH  18  19
ATOM     19  N   UNL     1       0.671   8.620  20.022  0.00  0.00    +0.000 N 
ATOM     20  C   UNL     1       0.402   9.974  20.119  0.00  0.00    +0.000 C 
ATOM     21  O   UNL     1       1.002  10.725  20.879  0.00  0.00    +0.000 OA
ATOM     22  H   UNL     1       0.073   8.015  19.482  0.00  0.00    +0.000 HD
BRANCH  20  23
ATOM     23  C   UNL     1      -0.709  10.488  19.276  0.00  0.00    +0.000 A 
ATOM     24  C   UNL     1      -1.532  11.491  19.803  0.00  0.00    +0.000 A 
ATOM     25  C   UNL     1      -2.633  11.951  19.081  0.00  0.00    +0.000 A 
ATOM     26  C   UNL     1      -2.886  11.424  17.814  0.00  0.00    +0.000 A 
ATOM     27  C   UNL     1      -2.057  10.440  17.269  0.00  0.00    +0.000 A 
ATOM     28  C   UNL     1      -0.959   9.984  17.993  0.00  0.00    +0.000 A 
BRANCH  25  29
ATOM     29  O   UNL     1      -3.395  12.887  19.726  0.00  0.00    +0.000 OA
ATOM     30  C   UNL     1      -4.774  12.582  19.900  0.00  0.00    +0.000 C 
ENDBRANCH  25  29
BRANCH  27  31
ATOM     31  O   UNL     1      -2.440   9.993  16.031  0.00  0.00    +0.000 OA
ATOM     32  C   UNL     1      -3.257  10.861  15.256  0.00  0.00    +0.000 C 
ENDBRANCH  27  31
ENDBRANCH  20  23
ENDBRANCH  18  19
ENDBRANCH  17  18
ENDBRANCH   1  17
TORSDOF 11
ENDMDL
