MODEL 1
REMARK VINA RESULT:      -8.1      0.000      0.000
REMARK  Name = 
REMARK  4 active torsions:
REMARK  status: ('A' for Active; 'I' for Inactive)
REMARK    1  A    between atoms: C_1  and  C_2
REMARK    2  A    between atoms: C_9  and  N_10
REMARK    3  A    between atoms: C_15  and  C_16
REMARK    4  A    between atoms: C_17  and  C_18
REMARK                            x       y       z     vdW  Elec       q    Type
REMARK                         _______ _______ _______ _____ _____    ______ ____
ROOT
ATOM      1  N   UNL     1       3.312   3.380  19.809  0.00  0.00    +0.000 N 
ATOM      2  C   UNL     1       3.801   2.375  20.655  0.00  0.00    +0.000 C 
ATOM      3  O   UNL     1       4.897   1.828  20.567  0.00  0.00    +0.000 OA
ATOM      4  C   UNL     1       2.793   1.968  21.705  0.00  0.00    +0.000 C 
ATOM      5  S   UNL     1       1.395   3.091  21.555  0.00  0.00    +0.000 S 
ATOM      6  C   UNL     1       1.885   3.625  19.900  0.00  0.00    +0.000 C 
ENDROOT
BRANCH   1  15
ATOM      7  C   UNL     1       6.621   4.506  14.150  0.00  0.00    +0.000 C 
ATOM      8  C   UNL     1       6.593   5.202  15.477  0.00  0.00    +0.000 A 
ATOM      9  C   UNL     1       7.363   6.279  15.711  0.00  0.00    +0.000 A 
ATOM     10  C   UNL     1       7.365   6.991  17.010  0.00  0.00    +0.000 A 
ATOM     11  O   UNL     1       8.058   7.984  17.182  0.00  0.00    +0.000 OA
ATOM     12  N   UNL     1       6.565   6.471  17.987  0.00  0.00    +0.000 N 
ATOM     13  C   UNL     1       5.749   5.347  17.806  0.00  0.00    +0.000 A 
ATOM     14  C   UNL     1       4.974   4.891  18.877  0.00  0.00    +0.000 A 
ATOM     15  C   UNL     1       4.099   3.814  18.708  0.00  0.00    +0.000 A 
ATOM     16  C   UNL     1       4.029   3.187  17.462  0.00  0.00    +0.000 A 
ATOM     17  C   UNL     1       4.848   3.612  16.406  0.00  0.00    +0.000 A 
ATOM     18  C   UNL     1       5.714   4.703  16.559  0.00  0.00    +0.000 A 
ATOM     19  H   UNL     1       6.578   6.956  18.874  0.00  0.00    +0.000 HD
ENDBRANCH   1  15
BRANCH   6  20
ATOM     20  C   UNL     1       1.547   5.081  19.735  0.00  0.00    +0.000 C 
ATOM     21  C   UNL     1       2.075   6.081  20.459  0.00  0.00    +0.000 C 
BRANCH  21  22
ATOM     22  C   UNL     1       1.636   7.466  20.275  0.00  0.00    +0.000 A 
ATOM     23  C   UNL     1       0.949   8.116  21.305  0.00  0.00    +0.000 A 
ATOM     24  C   UNL     1       0.486   9.424  21.129  0.00  0.00    +0.000 A 
ATOM     25  C   UNL     1       0.707  10.088  19.922  0.00  0.00    +0.000 A 
ATOM     26  C   UNL     1       1.395   9.446  18.894  0.00  0.00    +0.000 A 
ATOM     27  C   UNL     1       1.860   8.134  19.073  0.00  0.00    +0.000 A 
ENDBRANCH  21  22
ENDBRANCH   6  20
TORSDOF 3
ENDMDL
MODEL 2
REMARK VINA RESULT:      -7.6      2.627      6.486
REMARK  Name = 
REMARK  4 active torsions:
REMARK  status: ('A' for Active; 'I' for Inactive)
REMARK    1  A    between atoms: C_1  and  C_2
REMARK    2  A    between atoms: C_9  and  N_10
REMARK    3  A    between atoms: C_15  and  C_16
REMARK    4  A    between atoms: C_17  and  C_18
REMARK                            x       y       z     vdW  Elec       q    Type
REMARK                         _______ _______ _______ _____ _____    ______ ____
ROOT
ATOM      1  N   UNL     1       2.573   4.113  19.256  0.00  0.00    +0.000 N 
ATOM      2  C   UNL     1       1.564   3.237  19.677  0.00  0.00    +0.000 C 
ATOM      3  O   UNL     1       0.421   3.554  19.995  0.00  0.00    +0.000 OA
ATOM      4  C   UNL     1       2.041   1.805  19.757  0.00  0.00    +0.000 C 
ATOM      5  S   UNL     1       3.714   1.772  19.092  0.00  0.00    +0.000 S 
ATOM      6  C   UNL     1       3.914   3.559  19.263  0.00  0.00    +0.000 C 
ENDROOT
BRANCH   1  15
ATOM      7  C   UNL     1       1.735  10.597  18.030  0.00  0.00    +0.000 C 
ATOM      8  C   UNL     1       1.577   9.757  19.262  0.00  0.00    +0.000 A 
ATOM      9  C   UNL     1       1.215  10.307  20.433  0.00  0.00    +0.000 A 
ATOM     10  C   UNL     1       1.052   9.512  21.672  0.00  0.00    +0.000 A 
ATOM     11  O   UNL     1       0.695  10.039  22.717  0.00  0.00    +0.000 OA
ATOM     12  N   UNL     1       1.330   8.178  21.576  0.00  0.00    +0.000 N 
ATOM     13  C   UNL     1       1.721   7.550  20.387  0.00  0.00    +0.000 A 
ATOM     14  C   UNL     1       1.992   6.178  20.401  0.00  0.00    +0.000 A 
ATOM     15  C   UNL     1       2.318   5.510  19.216  0.00  0.00    +0.000 A 
ATOM     16  C   UNL     1       2.393   6.238  18.027  0.00  0.00    +0.000 A 
ATOM     17  C   UNL     1       2.177   7.623  18.027  0.00  0.00    +0.000 A 
ATOM     18  C   UNL     1       1.828   8.299  19.204  0.00  0.00    +0.000 A 
ATOM     19  H   UNL     1       1.226   7.643  22.427  0.00  0.00    +0.000 HD
ENDBRANCH   1  15
BRANCH   6  20
ATOM     20  C   UNL     1       4.746   4.070  18.118  0.00  0.00    +0.000 C 
ATOM     21  C   UNL     1       4.684   3.613  16.857  0.00  0.00    +0.000 C 
BRANCH  21  22
ATOM     22  C   UNL     1       5.581   4.124  15.819  0.00  0.00    +0.000 A 
ATOM     23  C   UNL     1       5.448   3.666  14.504  0.00  0.00    +0.000 A 
ATOM     24  C   UNL     1       6.324   4.113  13.510  0.00  0.00    +0.000 A 
ATOM     25  C   UNL     1       7.337   5.018  13.824  0.00  0.00    +0.000 A 
ATOM     26  C   UNL     1       7.471   5.481  15.132  0.00  0.00    +0.000 A 
ATOM     27  C   UNL     1       6.591   5.033  16.129  0.00  0.00    +0.000 A 
ENDBRANCH  21  22
ENDBRANCH   6  20
TORSDOF 3
ENDMDL
MODEL 3
REMARK VINA RESULT:      -7.5      6.795     10.900
REMARK  Name = 
REMARK  4 active torsions:
REMARK  status: ('A' for Active; 'I' for Inactive)
REMARK    1  A    between atoms: C_1  and  C_2
REMARK    2  A    between atoms: C_9  and  N_10
REMARK    3  A    between atoms: C_15  and  C_16
REMARK    4  A    between atoms: C_17  and  C_18
REMARK                            x       y       z     vdW  Elec       q    Type
REMARK                         _______ _______ _______ _____ _____    ______ ____
ROOT
ATOM      1  N   UNL     1      -0.021  10.682  21.660  0.00  0.00    +0.000 N 
ATOM      2  C   UNL     1       0.492   9.756  22.578  0.00  0.00    +0.000 C 
ATOM      3  O   UNL     1       0.308   9.766  23.792  0.00  0.00    +0.000 OA
ATOM      4  C   UNL     1       1.374   8.720  21.918  0.00  0.00    +0.000 C 
ATOM      5  S   UNL     1       1.269   8.996  20.142  0.00  0.00    +0.000 S 
ATOM      6  C   UNL     1       0.600  10.661  20.349  0.00  0.00    +0.000 C 
ENDROOT
BRANCH   1  15
ATOM      7  C   UNL     1      -2.707  16.382  23.789  0.00  0.00    +0.000 C 
ATOM      8  C   UNL     1      -3.245  14.992  23.629  0.00  0.00    +0.000 A 
ATOM      9  C   UNL     1      -4.511  14.696  23.968  0.00  0.00    +0.000 A 
ATOM     10  C   UNL     1      -5.077  13.334  23.828  0.00  0.00    +0.000 A 
ATOM     11  O   UNL     1      -6.242  13.102  24.121  0.00  0.00    +0.000 OA
ATOM     12  N   UNL     1      -4.227  12.369  23.368  0.00  0.00    +0.000 N 
ATOM     13  C   UNL     1      -2.895  12.615  23.009  0.00  0.00    +0.000 A 
ATOM     14  C   UNL     1      -2.106  11.552  22.558  0.00  0.00    +0.000 A 
ATOM     15  C   UNL     1      -0.795  11.777  22.128  0.00  0.00    +0.000 A 
ATOM     16  C   UNL     1      -0.280  13.074  22.178  0.00  0.00    +0.000 A 
ATOM     17  C   UNL     1      -1.055  14.128  22.683  0.00  0.00    +0.000 A 
ATOM     18  C   UNL     1      -2.377  13.917  23.098  0.00  0.00    +0.000 A 
ATOM     19  H   UNL     1      -4.616  11.440  23.284  0.00  0.00    +0.000 HD
ENDBRANCH   1  15
BRANCH   6  20
ATOM     20  C   UNL     1      -0.388  10.933  19.247  0.00  0.00    +0.000 C 
ATOM     21  C   UNL     1      -1.461  10.174  18.972  0.00  0.00    +0.000 C 
BRANCH  21  22
ATOM     22  C   UNL     1      -2.333  10.477  17.836  0.00  0.00    +0.000 A 
ATOM     23  C   UNL     1      -3.462  11.281  18.027  0.00  0.00    +0.000 A 
ATOM     24  C   UNL     1      -4.329  11.545  16.961  0.00  0.00    +0.000 A 
ATOM     25  C   UNL     1      -4.073  11.006  15.701  0.00  0.00    +0.000 A 
ATOM     26  C   UNL     1      -2.947  10.208  15.504  0.00  0.00    +0.000 A 
ATOM     27  C   UNL     1      -2.078   9.944  16.574  0.00  0.00    +0.000 A 
ENDBRANCH  21  22
ENDBRANCH   6  20
TORSDOF 3
ENDMDL
MODEL 4
REMARK VINA RESULT:      -7.3      1.499      2.072
REMARK  Name = 
REMARK  4 active torsions:
REMARK  status: ('A' for Active; 'I' for Inactive)
REMARK    1  A    between atoms: C_1  and  C_2
REMARK    2  A    between atoms: C_9  and  N_10
REMARK    3  A    between atoms: C_15  and  C_16
REMARK    4  A    between atoms: C_17  and  C_18
REMARK                            x       y       z     vdW  Elec       q    Type
REMARK                         _______ _______ _______ _____ _____    ______ ____
ROOT
ATOM      1  N   UNL     1       3.354   3.542  19.947  0.00  0.00    +0.000 N 
ATOM      2  C   UNL     1       3.759   2.460  20.739  0.00  0.00    +0.000 C 
ATOM      3  O   UNL     1       4.883   1.967  20.766  0.00  0.00    +0.000 OA
ATOM      4  C   UNL     1       2.624   1.892  21.560  0.00  0.00    +0.000 C 
ATOM      5  S   UNL     1       1.207   2.976  21.317  0.00  0.00    +0.000 S 
ATOM      6  C   UNL     1       1.919   3.724  19.835  0.00  0.00    +0.000 C 
ENDROOT
BRANCH   1  15
ATOM      7  C   UNL     1       7.819   7.070  16.501  0.00  0.00    +0.000 C 
ATOM      8  C   UNL     1       6.987   5.866  16.172  0.00  0.00    +0.000 A 
ATOM      9  C   UNL     1       7.046   5.296  14.956  0.00  0.00    +0.000 A 
ATOM     10  C   UNL     1       6.237   4.109  14.592  0.00  0.00    +0.000 A 
ATOM     11  O   UNL     1       6.333   3.597  13.485  0.00  0.00    +0.000 OA
ATOM     12  N   UNL     1       5.387   3.638  15.552  0.00  0.00    +0.000 N 
ATOM     13  C   UNL     1       5.275   4.197  16.832  0.00  0.00    +0.000 A 
ATOM     14  C   UNL     1       4.364   3.642  17.736  0.00  0.00    +0.000 A 
ATOM     15  C   UNL     1       4.278   4.134  19.043  0.00  0.00    +0.000 A 
ATOM     16  C   UNL     1       5.096   5.200  19.421  0.00  0.00    +0.000 A 
ATOM     17  C   UNL     1       5.968   5.790  18.494  0.00  0.00    +0.000 A 
ATOM     18  C   UNL     1       6.077   5.292  17.188  0.00  0.00    +0.000 A 
ATOM     19  H   UNL     1       4.831   2.835  15.293  0.00  0.00    +0.000 HD
ENDBRANCH   1  15
BRANCH   6  20
ATOM     20  C   UNL     1       1.533   5.177  19.785  0.00  0.00    +0.000 C 
ATOM     21  C   UNL     1       1.811   6.081  20.738  0.00  0.00    +0.000 C 
BRANCH  21  22
ATOM     22  C   UNL     1       1.336   7.462  20.637  0.00  0.00    +0.000 A 
ATOM     23  C   UNL     1       0.506   7.982  21.635  0.00  0.00    +0.000 A 
ATOM     24  C   UNL     1       0.009   9.286  21.531  0.00  0.00    +0.000 A 
ATOM     25  C   UNL     1       0.339  10.075  20.430  0.00  0.00    +0.000 A 
ATOM     26  C   UNL     1       1.170   9.563  19.435  0.00  0.00    +0.000 A 
ATOM     27  C   UNL     1       1.669   8.255  19.541  0.00  0.00    +0.000 A 
ENDBRANCH  21  22
ENDBRANCH   6  20
TORSDOF 3
ENDMDL
MODEL 5
REMARK VINA RESULT:      -7.1      3.423      6.631
REMARK  Name = 
REMARK  4 active torsions:
REMARK  status: ('A' for Active; 'I' for Inactive)
REMARK    1  A    between atoms: C_1  and  C_2
REMARK    2  A    between atoms: C_9  and  N_10
REMARK    3  A    between atoms: C_15  and  C_16
REMARK    4  A    between atoms: C_17  and  C_18
REMARK                            x       y       z     vdW  Elec       q    Type
REMARK                         _______ _______ _______ _____ _____    ______ ____
ROOT
ATOM      1  N   UNL     1       5.050   5.536  17.298  0.00  0.00    +0.000 N 
ATOM      2  C   UNL     1       4.646   4.441  16.523  0.00  0.00    +0.000 C 
ATOM      3  O   UNL     1       3.499   4.018  16.415  0.00  0.00    +0.000 OA
ATOM      4  C   UNL     1       5.810   3.762  15.838  0.00  0.00    +0.000 C 
ATOM      5  S   UNL     1       7.269   4.766  16.161  0.00  0.00    +0.000 S 
ATOM      6  C   UNL     1       6.478   5.634  17.534  0.00  0.00    +0.000 C 
ENDROOT
BRANCH   1  15
ATOM      7  C   UNL     1       0.570   7.891  21.614  0.00  0.00    +0.000 C 
ATOM      8  C   UNL     1       1.129   8.418  20.327  0.00  0.00    +0.000 A 
ATOM      9  C   UNL     1       0.709   9.588  19.817  0.00  0.00    +0.000 A 
ATOM     10  C   UNL     1       1.235  10.140  18.546  0.00  0.00    +0.000 A 
ATOM     11  O   UNL     1       0.852  11.221  18.122  0.00  0.00    +0.000 OA
ATOM     12  N   UNL     1       2.153   9.372  17.887  0.00  0.00    +0.000 N 
ATOM     13  C   UNL     1       2.621   8.141  18.363  0.00  0.00    +0.000 A 
ATOM     14  C   UNL     1       3.555   7.429  17.604  0.00  0.00    +0.000 A 
ATOM     15  C   UNL     1       4.091   6.231  18.084  0.00  0.00    +0.000 A 
ATOM     16  C   UNL     1       3.662   5.744  19.321  0.00  0.00    +0.000 A 
ATOM     17  C   UNL     1       2.684   6.431  20.054  0.00  0.00    +0.000 A 
ATOM     18  C   UNL     1       2.155   7.644  19.591  0.00  0.00    +0.000 A 
ATOM     19  H   UNL     1       2.501   9.750  17.016  0.00  0.00    +0.000 HD
ENDBRANCH   1  15
BRANCH   6  20
ATOM     20  C   UNL     1       6.955   7.061  17.552  0.00  0.00    +0.000 C 
ATOM     21  C   UNL     1       7.996   7.515  18.270  0.00  0.00    +0.000 C 
BRANCH  21  22
ATOM     22  C   UNL     1       8.349   8.936  18.279  0.00  0.00    +0.000 A 
ATOM     23  C   UNL     1       9.282   9.410  19.207  0.00  0.00    +0.000 A 
ATOM     24  C   UNL     1       9.598  10.772  19.257  0.00  0.00    +0.000 A 
ATOM     25  C   UNL     1       8.983  11.665  18.380  0.00  0.00    +0.000 A 
ATOM     26  C   UNL     1       8.057  11.197  17.450  0.00  0.00    +0.000 A 
ATOM     27  C   UNL     1       7.741   9.830  17.401  0.00  0.00    +0.000 A 
ENDBRANCH  21  22
ENDBRANCH   6  20
TORSDOF 3
ENDMDL
MODEL 6
REMARK VINA RESULT:      -6.8      6.830     10.634
REMARK  Name = 
REMARK  4 active torsions:
REMARK  status: ('A' for Active; 'I' for Inactive)
REMARK    1  A    between atoms: C_1  and  C_2
REMARK    2  A    between atoms: C_9  and  N_10
REMARK    3  A    between atoms: C_15  and  C_16
REMARK    4  A    between atoms: C_17  and  C_18
REMARK                            x       y       z     vdW  Elec       q    Type
REMARK                         _______ _______ _______ _____ _____    ______ ____
ROOT
ATOM      1  N   UNL     1      -0.081  10.707  21.755  0.00  0.00    +0.000 N 
ATOM      2  C   UNL     1       0.469   9.767  22.637  0.00  0.00    +0.000 C 
ATOM      3  O   UNL     1       0.353   9.771  23.859  0.00  0.00    +0.000 OA
ATOM      4  C   UNL     1       1.300   8.726  21.922  0.00  0.00    +0.000 C 
ATOM      5  S   UNL     1       1.100   9.016  20.157  0.00  0.00    +0.000 S 
ATOM      6  C   UNL     1       0.466  10.688  20.412  0.00  0.00    +0.000 C 
ENDROOT
BRANCH   1  15
ATOM      7  C   UNL     1      -4.350  15.155  24.253  0.00  0.00    +0.000 C 
ATOM      8  C   UNL     1      -2.942  15.256  23.748  0.00  0.00    +0.000 A 
ATOM      9  C   UNL     1      -2.299  16.436  23.722  0.00  0.00    +0.000 A 
ATOM     10  C   UNL     1      -0.909  16.576  23.227  0.00  0.00    +0.000 A 
ATOM     11  O   UNL     1      -0.342  17.660  23.241  0.00  0.00    +0.000 OA
ATOM     12  N   UNL     1      -0.317  15.439  22.755  0.00  0.00    +0.000 N 
ATOM     13  C   UNL     1      -0.940  14.185  22.748  0.00  0.00    +0.000 A 
ATOM     14  C   UNL     1      -0.246  13.086  22.232  0.00  0.00    +0.000 A 
ATOM     15  C   UNL     1      -0.814  11.808  22.273  0.00  0.00    +0.000 A 
ATOM     16  C   UNL     1      -2.092  11.653  22.813  0.00  0.00    +0.000 A 
ATOM     17  C   UNL     1      -2.807  12.766  23.278  0.00  0.00    +0.000 A 
ATOM     18  C   UNL     1      -2.239  14.047  23.261  0.00  0.00    +0.000 A 
ATOM     19  H   UNL     1       0.627  15.544  22.410  0.00  0.00    +0.000 HD
ENDBRANCH   1  15
BRANCH   6  20
ATOM     20  C   UNL     1      -0.578  10.981  19.369  0.00  0.00    +0.000 C 
ATOM     21  C   UNL     1      -1.352  10.058  18.774  0.00  0.00    +0.000 C 
BRANCH  21  22
ATOM     22  C   UNL     1      -2.297  10.426  17.719  0.00  0.00    +0.000 A 
ATOM     23  C   UNL     1      -3.368  11.275  18.016  0.00  0.00    +0.000 A 
ATOM     24  C   UNL     1      -4.304  11.602  17.030  0.00  0.00    +0.000 A 
ATOM     25  C   UNL     1      -4.175  11.081  15.742  0.00  0.00    +0.000 A 
ATOM     26  C   UNL     1      -3.107  10.238  15.440  0.00  0.00    +0.000 A 
ATOM     27  C   UNL     1      -2.168   9.911  16.430  0.00  0.00    +0.000 A 
ENDBRANCH  21  22
ENDBRANCH   6  20
TORSDOF 3
ENDMDL
MODEL 7
REMARK VINA RESULT:      -6.7      8.846     10.106
REMARK  Name = 
REMARK  4 active torsions:
REMARK  status: ('A' for Active; 'I' for Inactive)
REMARK    1  A    between atoms: C_1  and  C_2
REMARK    2  A    between atoms: C_9  and  N_10
REMARK    3  A    between atoms: C_15  and  C_16
REMARK    4  A    between atoms: C_17  and  C_18
REMARK                            x       y       z     vdW  Elec       q    Type
REMARK                         _______ _______ _______ _____ _____    ______ ____
ROOT
ATOM      1  N   UNL     1      -0.231  13.438  21.576  0.00  0.00    +0.000 N 
ATOM      2  C   UNL     1      -0.526  14.143  22.750  0.00  0.00    +0.000 C 
ATOM      3  O   UNL     1      -0.034  15.215  23.091  0.00  0.00    +0.000 OA
ATOM      4  C   UNL     1      -1.514  13.409  23.629  0.00  0.00    +0.000 C 
ATOM      5  S   UNL     1      -2.065  11.965  22.706  0.00  0.00    +0.000 S 
ATOM      6  C   UNL     1      -0.674  12.057  21.557  0.00  0.00    +0.000 C 
ENDROOT
BRANCH   1  15
ATOM      7  C   UNL     1       5.024  15.035  17.824  0.00  0.00    +0.000 C 
ATOM      8  C   UNL     1       3.657  15.631  17.982  0.00  0.00    +0.000 A 
ATOM      9  C   UNL     1       3.297  16.729  17.296  0.00  0.00    +0.000 A 
ATOM     10  C   UNL     1       1.958  17.349  17.427  0.00  0.00    +0.000 A 
ATOM     11  O   UNL     1       1.651  18.333  16.769  0.00  0.00    +0.000 OA
ATOM     12  N   UNL     1       1.106  16.766  18.323  0.00  0.00    +0.000 N 
ATOM     13  C   UNL     1       1.428  15.628  19.073  0.00  0.00    +0.000 A 
ATOM     14  C   UNL     1       0.485  15.117  19.970  0.00  0.00    +0.000 A 
ATOM     15  C   UNL     1       0.751  13.944  20.683  0.00  0.00    +0.000 A 
ATOM     16  C   UNL     1       1.980  13.306  20.503  0.00  0.00    +0.000 A 
ATOM     17  C   UNL     1       2.945  13.852  19.645  0.00  0.00    +0.000 A 
ATOM     18  C   UNL     1       2.681  15.016  18.910  0.00  0.00    +0.000 A 
ATOM     19  H   UNL     1       0.198  17.200  18.415  0.00  0.00    +0.000 HD
ENDBRANCH   1  15
BRANCH   6  20
ATOM     20  C   UNL     1      -1.138  11.627  20.191  0.00  0.00    +0.000 C 
ATOM     21  C   UNL     1      -2.342  11.905  19.665  0.00  0.00    +0.000 C 
BRANCH  21  22
ATOM     22  C   UNL     1      -2.734  11.389  18.352  0.00  0.00    +0.000 A 
ATOM     23  C   UNL     1      -3.985  11.726  17.823  0.00  0.00    +0.000 A 
ATOM     24  C   UNL     1      -4.391  11.206  16.590  0.00  0.00    +0.000 A 
ATOM     25  C   UNL     1      -3.551  10.348  15.880  0.00  0.00    +0.000 A 
ATOM     26  C   UNL     1      -2.302  10.014  16.401  0.00  0.00    +0.000 A 
ATOM     27  C   UNL     1      -1.895  10.536  17.638  0.00  0.00    +0.000 A 
ENDBRANCH  21  22
ENDBRANCH   6  20
TORSDOF 3
ENDMDL
MODEL 8
REMARK VINA RESULT:      -6.6      4.583      7.510
REMARK  Name = 
REMARK  4 active torsions:
REMARK  status: ('A' for Active; 'I' for Inactive)
REMARK    1  A    between atoms: C_1  and  C_2
REMARK    2  A    between atoms: C_9  and  N_10
REMARK    3  A    between atoms: C_15  and  C_16
REMARK    4  A    between atoms: C_17  and  C_18
REMARK                            x       y       z     vdW  Elec       q    Type
REMARK                         _______ _______ _______ _____ _____    ______ ____
ROOT
ATOM      1  N   UNL     1       0.275  11.480  20.365  0.00  0.00    +0.000 N 
ATOM      2  C   UNL     1       0.998  12.504  20.990  0.00  0.00    +0.000 C 
ATOM      3  O   UNL     1       2.218  12.546  21.127  0.00  0.00    +0.000 OA
ATOM      4  C   UNL     1       0.099  13.582  21.553  0.00  0.00    +0.000 C 
ATOM      5  S   UNL     1      -1.578  13.194  21.026  0.00  0.00    +0.000 S 
ATOM      6  C   UNL     1      -1.153  11.485  20.623  0.00  0.00    +0.000 C 
ENDROOT
BRANCH   1  15
ATOM      7  C   UNL     1       3.623   6.749  17.101  0.00  0.00    +0.000 C 
ATOM      8  C   UNL     1       2.949   6.790  18.440  0.00  0.00    +0.000 A 
ATOM      9  C   UNL     1       2.926   5.709  19.237  0.00  0.00    +0.000 A 
ATOM     10  C   UNL     1       2.268   5.710  20.565  0.00  0.00    +0.000 A 
ATOM     11  O   UNL     1       2.288   4.717  21.278  0.00  0.00    +0.000 OA
ATOM     12  N   UNL     1       1.641   6.868  20.929  0.00  0.00    +0.000 N 
ATOM     13  C   UNL     1       1.622   8.023  20.136  0.00  0.00    +0.000 A 
ATOM     14  C   UNL     1       0.942   9.153  20.600  0.00  0.00    +0.000 A 
ATOM     15  C   UNL     1       0.962  10.342  19.864  0.00  0.00    +0.000 A 
ATOM     16  C   UNL     1       1.650  10.374  18.649  0.00  0.00    +0.000 A 
ATOM     17  C   UNL     1       2.284   9.223  18.160  0.00  0.00    +0.000 A 
ATOM     18  C   UNL     1       2.288   8.032  18.900  0.00  0.00    +0.000 A 
ATOM     19  H   UNL     1       1.186   6.858  21.831  0.00  0.00    +0.000 HD
ENDBRANCH   1  15
BRANCH   6  20
ATOM     20  C   UNL     1      -1.949  11.053  19.421  0.00  0.00    +0.000 C 
ATOM     21  C   UNL     1      -1.676  11.399  18.152  0.00  0.00    +0.000 C 
BRANCH  21  22
ATOM     22  C   UNL     1      -2.546  10.986  17.049  0.00  0.00    +0.000 A 
ATOM     23  C   UNL     1      -2.088  10.041  16.126  0.00  0.00    +0.000 A 
ATOM     24  C   UNL     1      -2.890   9.667  15.042  0.00  0.00    +0.000 A 
ATOM     25  C   UNL     1      -4.152  10.237  14.877  0.00  0.00    +0.000 A 
ATOM     26  C   UNL     1      -4.615  11.176  15.797  0.00  0.00    +0.000 A 
ATOM     27  C   UNL     1      -3.809  11.549  16.884  0.00  0.00    +0.000 A 
ENDBRANCH  21  22
ENDBRANCH   6  20
TORSDOF 3
ENDMDL
MODEL 9
REMARK VINA RESULT:      -6.5      6.528      9.948
REMARK  Name = 
REMARK  4 active torsions:
REMARK  status: ('A' for Active; 'I' for Inactive)
REMARK    1  A    between atoms: C_1  and  C_2
REMARK    2  A    between atoms: C_9  and  N_10
REMARK    3  A    between atoms: C_15  and  C_16
REMARK    4  A    between atoms: C_17  and  C_18
REMARK                            x       y       z     vdW  Elec       q    Type
REMARK                         _______ _______ _______ _____ _____    ______ ____
ROOT
ATOM      1  N   UNL     1      -1.978  13.264  22.823  0.00  0.00    +0.000 N 
ATOM      2  C   UNL     1      -1.273  14.336  23.385  0.00  0.00    +0.000 C 
ATOM      3  O   UNL     1      -0.051  14.443  23.446  0.00  0.00    +0.000 OA
ATOM      4  C   UNL     1      -2.191  15.377  23.984  0.00  0.00    +0.000 C 
ATOM      5  S   UNL     1      -3.874  14.894  23.568  0.00  0.00    +0.000 S 
ATOM      6  C   UNL     1      -3.386  13.202  23.168  0.00  0.00    +0.000 C 
ENDROOT
BRANCH   1  15
ATOM      7  C   UNL     1       1.204   7.608  21.361  0.00  0.00    +0.000 C 
ATOM      8  C   UNL     1       0.988   8.888  20.609  0.00  0.00    +0.000 A 
ATOM      9  C   UNL     1       1.508   9.067  19.383  0.00  0.00    +0.000 A 
ATOM     10  C   UNL     1       1.320  10.317  18.611  0.00  0.00    +0.000 A 
ATOM     11  O   UNL     1       1.784  10.439  17.486  0.00  0.00    +0.000 OA
ATOM     12  N   UNL     1       0.615  11.310  19.229  0.00  0.00    +0.000 N 
ATOM     13  C   UNL     1       0.057  11.186  20.509  0.00  0.00    +0.000 A 
ATOM     14  C   UNL     1      -0.639  12.269  21.054  0.00  0.00    +0.000 A 
ATOM     15  C   UNL     1      -1.264  12.153  22.299  0.00  0.00    +0.000 A 
ATOM     16  C   UNL     1      -1.162  10.948  22.999  0.00  0.00    +0.000 A 
ATOM     17  C   UNL     1      -0.415   9.883  22.474  0.00  0.00    +0.000 A 
ATOM     18  C   UNL     1       0.198   9.982  21.218  0.00  0.00    +0.000 A 
ATOM     19  H   UNL     1       0.498  12.164  18.701  0.00  0.00    +0.000 HD
ENDBRANCH   1  15
BRANCH   6  20
ATOM     20  C   UNL     1      -4.230  12.706  22.025  0.00  0.00    +0.000 C 
ATOM     21  C   UNL     1      -4.335  13.308  20.829  0.00  0.00    +0.000 C 
BRANCH  21  22
ATOM     22  C   UNL     1      -5.234  12.790  19.795  0.00  0.00    +0.000 A 
ATOM     23  C   UNL     1      -6.593  13.118  19.835  0.00  0.00    +0.000 A 
ATOM     24  C   UNL     1      -7.473  12.596  18.880  0.00  0.00    +0.000 A 
ATOM     25  C   UNL     1      -6.998  11.745  17.882  0.00  0.00    +0.000 A 
ATOM     26  C   UNL     1      -5.643  11.419  17.836  0.00  0.00    +0.000 A 
ATOM     27  C   UNL     1      -4.762  11.943  18.794  0.00  0.00    +0.000 A 
ENDBRANCH  21  22
ENDBRANCH   6  20
TORSDOF 3
ENDMDL
