MODEL 1
REMARK VINA RESULT:      -8.4      0.000      0.000
REMARK  Name = 
REMARK  5 active torsions:
REMARK  status: ('A' for Active; 'I' for Inactive)
REMARK    1  A    between atoms: C_4  and  O_5
REMARK    2  A    between atoms: C_7  and  S_8
REMARK    3  A    between atoms: S_8  and  C_9
REMARK    4  A    between atoms: C_9  and  C_10
REMARK    5  A    between atoms: N_12  and  C_13
REMARK                            x       y       z     vdW  Elec       q    Type
REMARK                         _______ _______ _______ _____ _____    ______ ____
ROOT
ATOM      1  C   UNL     1       5.109   4.635  15.567  0.00  0.00    +0.000 C 
ENDROOT
BRANCH   1   2
ATOM      2  C   UNL     1       4.329   4.430  16.867  0.00  0.00    +0.000 C 
ATOM      3  O   UNL     1       3.426   5.183  17.229  0.00  0.00    +0.000 OA
ATOM      4  N   UNL     1       4.727   3.336  17.615  0.00  0.00    +0.000 N 
ATOM      5  H   UNL     1       5.376   2.680  17.200  0.00  0.00    +0.000 HD
BRANCH   4   6
ATOM      6  C   UNL     1       4.182   3.019  18.945  0.00  0.00    +0.000 C 
ATOM      7  C   UNL     1       3.601   4.276  19.617  0.00  0.00    +0.000 C 
ATOM      8  C   UNL     1       2.997   4.081  21.014  0.00  0.00    +0.000 C 
ATOM      9  C   UNL     1       1.689   3.292  21.175  0.00  0.00    +0.000 C 
ATOM     10  C   UNL     1       0.649   3.442  20.065  0.00  0.00    +0.000 C 
ATOM     11  C   UNL     1       0.656   2.327  19.014  0.00  0.00    +0.000 C 
ATOM     12  C   UNL     1       1.877   2.256  18.101  0.00  0.00    +0.000 C 
ATOM     13  C   UNL     1       3.182   1.864  18.803  0.00  0.00    +0.000 C 
ENDBRANCH   4   6
ENDBRANCH   1   2
BRANCH   1  14
ATOM     14  S   UNL     1       6.850   4.147  15.816  0.00  0.00    +0.000 S 
BRANCH  14  20
ATOM     15  N   UNL     1       7.926   8.783  17.320  0.00  0.00    +0.000 N 
ATOM     16  C   UNL     1       7.791   7.445  17.694  0.00  0.00    +0.000 A 
ATOM     17  C   UNL     1       8.085   7.057  18.977  0.00  0.00    +0.000 A 
ATOM     18  C   UNL     1       7.954   5.716  19.229  0.00  0.00    +0.000 A 
ATOM     19  N   UNL     1       7.576   4.806  18.325  0.00  0.00    +0.000 NA
ATOM     20  C   UNL     1       7.337   5.280  17.096  0.00  0.00    +0.000 A 
ATOM     21  N   UNL     1       7.425   6.577  16.744  0.00  0.00    +0.000 NA
ATOM     22  H   UNL     1       7.430   9.419  17.932  0.00  0.00    +0.000 HD
ATOM     23  H   UNL     1       7.621   8.872  16.353  0.00  0.00    +0.000 HD
BRANCH  18  24
ATOM     24  O   UNL     1       8.212   5.207  20.471  0.00  0.00    +0.000 OA
ATOM     25  H   UNL     1       8.807   4.451  20.375  0.00  0.00    +0.000 HD
ENDBRANCH  18  24
ENDBRANCH  14  20
ENDBRANCH   1  14
TORSDOF 5
ENDMDL
MODEL 2
REMARK VINA RESULT:      -8.3      2.793      3.997
REMARK  Name = 
REMARK  5 active torsions:
REMARK  status: ('A' for Active; 'I' for Inactive)
REMARK    1  A    between atoms: C_4  and  O_5
REMARK    2  A    between atoms: C_7  and  S_8
REMARK    3  A    between atoms: S_8  and  C_9
REMARK    4  A    between atoms: C_9  and  C_10
REMARK    5  A    between atoms: N_12  and  C_13
REMARK                            x       y       z     vdW  Elec       q    Type
REMARK                         _______ _______ _______ _____ _____    ______ ____
ROOT
ATOM      1  C   UNL     1       6.563   5.582  17.353  0.00  0.00    +0.000 C 
ENDROOT
BRANCH   1   2
ATOM      2  C   UNL     1       6.029   4.969  18.649  0.00  0.00    +0.000 C 
ATOM      3  O   UNL     1       6.681   4.944  19.692  0.00  0.00    +0.000 OA
ATOM      4  N   UNL     1       4.757   4.432  18.555  0.00  0.00    +0.000 N 
ATOM      5  H   UNL     1       4.222   4.606  17.715  0.00  0.00    +0.000 HD
BRANCH   4   6
ATOM      6  C   UNL     1       4.100   3.703  19.652  0.00  0.00    +0.000 C 
ATOM      7  C   UNL     1       3.052   4.587  20.351  0.00  0.00    +0.000 C 
ATOM      8  C   UNL     1       2.291   3.944  21.517  0.00  0.00    +0.000 C 
ATOM      9  C   UNL     1       1.278   2.821  21.240  0.00  0.00    +0.000 C 
ATOM     10  C   UNL     1       0.464   2.927  19.950  0.00  0.00    +0.000 C 
ATOM     11  C   UNL     1       1.003   2.107  18.774  0.00  0.00    +0.000 C 
ATOM     12  C   UNL     1       2.334   2.559  18.178  0.00  0.00    +0.000 C 
ATOM     13  C   UNL     1       3.544   2.384  19.102  0.00  0.00    +0.000 C 
ENDBRANCH   4   6
ENDBRANCH   1   2
BRANCH   1  14
ATOM     14  S   UNL     1       5.245   5.581  16.090  0.00  0.00    +0.000 S 
BRANCH  14  20
ATOM     15  N   UNL     1       5.776   2.610  12.114  0.00  0.00    +0.000 N 
ATOM     16  C   UNL     1       6.302   3.679  12.840  0.00  0.00    +0.000 A 
ATOM     17  C   UNL     1       7.495   4.244  12.465  0.00  0.00    +0.000 A 
ATOM     18  C   UNL     1       7.941   5.263  13.266  0.00  0.00    +0.000 A 
ATOM     19  N   UNL     1       7.302   5.710  14.353  0.00  0.00    +0.000 NA
ATOM     20  C   UNL     1       6.160   5.077  14.651  0.00  0.00    +0.000 A 
ATOM     21  N   UNL     1       5.629   4.074  13.926  0.00  0.00    +0.000 NA
ATOM     22  H   UNL     1       5.702   2.802  11.122  0.00  0.00    +0.000 HD
ATOM     23  H   UNL     1       4.876   2.366  12.521  0.00  0.00    +0.000 HD
BRANCH  18  24
ATOM     24  O   UNL     1       9.113   5.911  12.994  0.00  0.00    +0.000 OA
ATOM     25  H   UNL     1       8.915   6.835  12.795  0.00  0.00    +0.000 HD
ENDBRANCH  18  24
ENDBRANCH  14  20
ENDBRANCH   1  14
TORSDOF 5
ENDMDL
MODEL 3
REMARK VINA RESULT:      -8.2      2.893      4.317
REMARK  Name = 
REMARK  5 active torsions:
REMARK  status: ('A' for Active; 'I' for Inactive)
REMARK    1  A    between atoms: C_4  and  O_5
REMARK    2  A    between atoms: C_7  and  S_8
REMARK    3  A    between atoms: S_8  and  C_9
REMARK    4  A    between atoms: C_9  and  C_10
REMARK    5  A    between atoms: N_12  and  C_13
REMARK                            x       y       z     vdW  Elec       q    Type
REMARK                         _______ _______ _______ _____ _____    ______ ____
ROOT
ATOM      1  C   UNL     1       6.021   6.323  16.856  0.00  0.00    +0.000 C 
ENDROOT
BRANCH   1   2
ATOM      2  C   UNL     1       4.524   6.237  17.159  0.00  0.00    +0.000 C 
ATOM      3  O   UNL     1       3.789   7.223  17.173  0.00  0.00    +0.000 OA
ATOM      4  N   UNL     1       4.060   4.961  17.428  0.00  0.00    +0.000 N 
ATOM      5  H   UNL     1       4.681   4.179  17.265  0.00  0.00    +0.000 HD
BRANCH   4   6
ATOM      6  C   UNL     1       2.679   4.670  17.844  0.00  0.00    +0.000 C 
ATOM      7  C   UNL     1       2.441   3.153  17.946  0.00  0.00    +0.000 C 
ATOM      8  C   UNL     1       1.035   2.714  18.374  0.00  0.00    +0.000 C 
ATOM      9  C   UNL     1       0.563   2.966  19.815  0.00  0.00    +0.000 C 
ATOM     10  C   UNL     1       1.614   2.845  20.918  0.00  0.00    +0.000 C 
ATOM     11  C   UNL     1       2.231   4.171  21.374  0.00  0.00    +0.000 C 
ATOM     12  C   UNL     1       3.119   4.895  20.366  0.00  0.00    +0.000 C 
ATOM     13  C   UNL     1       2.383   5.440  19.137  0.00  0.00    +0.000 C 
ENDBRANCH   4   6
ENDBRANCH   1   2
BRANCH   1  14
ATOM     14  S   UNL     1       6.696   4.642  16.629  0.00  0.00    +0.000 S 
BRANCH  14  20
ATOM     15  N   UNL     1       5.711   2.643  12.163  0.00  0.00    +0.000 N 
ATOM     16  C   UNL     1       6.398   3.637  12.862  0.00  0.00    +0.000 A 
ATOM     17  C   UNL     1       7.244   4.487  12.195  0.00  0.00    +0.000 A 
ATOM     18  C   UNL     1       7.896   5.402  12.980  0.00  0.00    +0.000 A 
ATOM     19  N   UNL     1       7.759   5.500  14.307  0.00  0.00    +0.000 NA
ATOM     20  C   UNL     1       6.930   4.610  14.868  0.00  0.00    +0.000 A 
ATOM     21  N   UNL     1       6.235   3.678  14.189  0.00  0.00    +0.000 NA
ATOM     22  H   UNL     1       5.192   3.001  11.370  0.00  0.00    +0.000 HD
ATOM     23  H   UNL     1       5.110   2.153  12.822  0.00  0.00    +0.000 HD
BRANCH  18  24
ATOM     24  O   UNL     1       8.761   6.308  12.432  0.00  0.00    +0.000 OA
ATOM     25  H   UNL     1       8.944   6.046  11.521  0.00  0.00    +0.000 HD
ENDBRANCH  18  24
ENDBRANCH  14  20
ENDBRANCH   1  14
TORSDOF 5
ENDMDL
MODEL 4
REMARK VINA RESULT:      -8.2      1.369      2.000
REMARK  Name = 
REMARK  5 active torsions:
REMARK  status: ('A' for Active; 'I' for Inactive)
REMARK    1  A    between atoms: C_4  and  O_5
REMARK    2  A    between atoms: C_7  and  S_8
REMARK    3  A    between atoms: S_8  and  C_9
REMARK    4  A    between atoms: C_9  and  C_10
REMARK    5  A    between atoms: N_12  and  C_13
REMARK                            x       y       z     vdW  Elec       q    Type
REMARK                         _______ _______ _______ _____ _____    ______ ____
ROOT
ATOM      1  C   UNL     1       4.916   4.499  15.671  0.00  0.00    +0.000 C 
ENDROOT
BRANCH   1   2
ATOM      2  C   UNL     1       4.284   4.112  17.009  0.00  0.00    +0.000 C 
ATOM      3  O   UNL     1       3.953   4.942  17.855  0.00  0.00    +0.000 OA
ATOM      4  N   UNL     1       4.123   2.751  17.202  0.00  0.00    +0.000 N 
ATOM      5  H   UNL     1       4.284   2.132  16.418  0.00  0.00    +0.000 HD
BRANCH   4   6
ATOM      6  C   UNL     1       3.633   2.161  18.458  0.00  0.00    +0.000 C 
ATOM      7  C   UNL     1       4.139   2.955  19.675  0.00  0.00    +0.000 C 
ATOM      8  C   UNL     1       3.697   2.443  21.051  0.00  0.00    +0.000 C 
ATOM      9  C   UNL     1       2.226   2.573  21.477  0.00  0.00    +0.000 C 
ATOM     10  C   UNL     1       1.478   3.821  21.010  0.00  0.00    +0.000 C 
ATOM     11  C   UNL     1       0.623   3.634  19.754  0.00  0.00    +0.000 C 
ATOM     12  C   UNL     1       1.371   3.380  18.448  0.00  0.00    +0.000 C 
ATOM     13  C   UNL     1       2.106   2.037  18.379  0.00  0.00    +0.000 C 
ENDBRANCH   4   6
ENDBRANCH   1   2
BRANCH   1  14
ATOM     14  S   UNL     1       6.705   4.140  15.714  0.00  0.00    +0.000 S 
BRANCH  14  20
ATOM     15  N   UNL     1       8.380   5.204  20.295  0.00  0.00    +0.000 N 
ATOM     16  C   UNL     1       8.041   5.708  19.038  0.00  0.00    +0.000 A 
ATOM     17  C   UNL     1       8.087   7.060  18.805  0.00  0.00    +0.000 A 
ATOM     18  C   UNL     1       7.700   7.453  17.550  0.00  0.00    +0.000 A 
ATOM     19  N   UNL     1       7.291   6.621  16.586  0.00  0.00    +0.000 NA
ATOM     20  C   UNL     1       7.256   5.325  16.920  0.00  0.00    +0.000 A 
ATOM     21  N   UNL     1       7.624   4.832  18.118  0.00  0.00    +0.000 NA
ATOM     22  H   UNL     1       9.287   5.519  20.618  0.00  0.00    +0.000 HD
ATOM     23  H   UNL     1       8.324   4.189  20.252  0.00  0.00    +0.000 HD
BRANCH  18  24
ATOM     24  O   UNL     1       7.708   8.772  17.193  0.00  0.00    +0.000 OA
ATOM     25  H   UNL     1       8.589   8.997  16.866  0.00  0.00    +0.000 HD
ENDBRANCH  18  24
ENDBRANCH  14  20
ENDBRANCH   1  14
TORSDOF 5
ENDMDL
MODEL 5
REMARK VINA RESULT:      -8.0      2.648      4.116
REMARK  Name = 
REMARK  5 active torsions:
REMARK  status: ('A' for Active; 'I' for Inactive)
REMARK    1  A    between atoms: C_4  and  O_5
REMARK    2  A    between atoms: C_7  and  S_8
REMARK    3  A    between atoms: S_8  and  C_9
REMARK    4  A    between atoms: C_9  and  C_10
REMARK    5  A    between atoms: N_12  and  C_13
REMARK                            x       y       z     vdW  Elec       q    Type
REMARK                         _______ _______ _______ _____ _____    ______ ____
ROOT
ATOM      1  C   UNL     1       5.919   6.437  16.803  0.00  0.00    +0.000 C 
ENDROOT
BRANCH   1   2
ATOM      2  C   UNL     1       4.438   6.339  17.172  0.00  0.00    +0.000 C 
ATOM      3  O   UNL     1       3.716   7.327  17.302  0.00  0.00    +0.000 OA
ATOM      4  N   UNL     1       3.972   5.049  17.362  0.00  0.00    +0.000 N 
ATOM      5  H   UNL     1       4.575   4.278  17.106  0.00  0.00    +0.000 HD
BRANCH   4   6
ATOM      6  C   UNL     1       2.609   4.737  17.823  0.00  0.00    +0.000 C 
ATOM      7  C   UNL     1       2.397   3.217  17.926  0.00  0.00    +0.000 C 
ATOM      8  C   UNL     1       1.012   2.755  18.398  0.00  0.00    +0.000 C 
ATOM      9  C   UNL     1       0.585   2.995  19.855  0.00  0.00    +0.000 C 
ATOM     10  C   UNL     1       1.673   2.886  20.922  0.00  0.00    +0.000 C 
ATOM     11  C   UNL     1       2.286   4.218  21.363  0.00  0.00    +0.000 C 
ATOM     12  C   UNL     1       3.130   4.959  20.329  0.00  0.00    +0.000 C 
ATOM     13  C   UNL     1       2.346   5.498  19.128  0.00  0.00    +0.000 C 
ENDBRANCH   4   6
ENDBRANCH   1   2
BRANCH   1  14
ATOM     14  S   UNL     1       6.633   4.761  16.691  0.00  0.00    +0.000 S 
BRANCH  14  20
ATOM     15  N   UNL     1       8.725   6.284  12.423  0.00  0.00    +0.000 N 
ATOM     16  C   UNL     1       7.872   5.362  13.031  0.00  0.00    +0.000 A 
ATOM     17  C   UNL     1       7.205   4.437  12.268  0.00  0.00    +0.000 A 
ATOM     18  C   UNL     1       6.365   3.603  12.959  0.00  0.00    +0.000 A 
ATOM     19  N   UNL     1       6.167   3.648  14.282  0.00  0.00    +0.000 NA
ATOM     20  C   UNL     1       6.844   4.603  14.933  0.00  0.00    +0.000 A 
ATOM     21  N   UNL     1       7.700   5.465  14.353  0.00  0.00    +0.000 NA
ATOM     22  H   UNL     1       9.420   5.850  11.827  0.00  0.00    +0.000 HD
ATOM     23  H   UNL     1       9.152   6.848  13.155  0.00  0.00    +0.000 HD
BRANCH  18  24
ATOM     24  O   UNL     1       5.648   2.634  12.314  0.00  0.00    +0.000 OA
ATOM     25  H   UNL     1       5.341   1.992  12.967  0.00  0.00    +0.000 HD
ENDBRANCH  18  24
ENDBRANCH  14  20
ENDBRANCH   1  14
TORSDOF 5
ENDMDL
MODEL 6
REMARK VINA RESULT:      -8.0      2.634      3.939
REMARK  Name = 
REMARK  5 active torsions:
REMARK  status: ('A' for Active; 'I' for Inactive)
REMARK    1  A    between atoms: C_4  and  O_5
REMARK    2  A    between atoms: C_7  and  S_8
REMARK    3  A    between atoms: S_8  and  C_9
REMARK    4  A    between atoms: C_9  and  C_10
REMARK    5  A    between atoms: N_12  and  C_13
REMARK                            x       y       z     vdW  Elec       q    Type
REMARK                         _______ _______ _______ _____ _____    ______ ____
ROOT
ATOM      1  C   UNL     1       6.599   5.608  17.176  0.00  0.00    +0.000 C 
ENDROOT
BRANCH   1   2
ATOM      2  C   UNL     1       6.111   5.024  18.503  0.00  0.00    +0.000 C 
ATOM      3  O   UNL     1       6.868   4.776  19.441  0.00  0.00    +0.000 OA
ATOM      4  N   UNL     1       4.750   4.783  18.566  0.00  0.00    +0.000 N 
ATOM      5  H   UNL     1       4.165   5.135  17.819  0.00  0.00    +0.000 HD
BRANCH   4   6
ATOM      6  C   UNL     1       4.091   4.129  19.708  0.00  0.00    +0.000 C 
ATOM      7  C   UNL     1       2.858   4.928  20.165  0.00  0.00    +0.000 C 
ATOM      8  C   UNL     1       2.078   4.351  21.353  0.00  0.00    +0.000 C 
ATOM      9  C   UNL     1       1.273   3.053  21.178  0.00  0.00    +0.000 C 
ATOM     10  C   UNL     1       0.594   2.837  19.826  0.00  0.00    +0.000 C 
ATOM     11  C   UNL     1       1.368   1.950  18.846  0.00  0.00    +0.000 C 
ATOM     12  C   UNL     1       2.675   2.514  18.297  0.00  0.00    +0.000 C 
ATOM     13  C   UNL     1       3.793   2.672  19.334  0.00  0.00    +0.000 C 
ENDBRANCH   4   6
ENDBRANCH   1   2
BRANCH   1  14
ATOM     14  S   UNL     1       5.254   5.529  15.944  0.00  0.00    +0.000 S 
BRANCH  14  20
ATOM     15  N   UNL     1       9.160   5.929  12.863  0.00  0.00    +0.000 N 
ATOM     16  C   UNL     1       7.988   5.235  13.163  0.00  0.00    +0.000 A 
ATOM     17  C   UNL     1       7.551   4.232  12.335  0.00  0.00    +0.000 A 
ATOM     18  C   UNL     1       6.371   3.639  12.701  0.00  0.00    +0.000 A 
ATOM     19  N   UNL     1       5.651   3.980  13.776  0.00  0.00    +0.000 NA
ATOM     20  C   UNL     1       6.147   4.986  14.507  0.00  0.00    +0.000 A 
ATOM     21  N   UNL     1       7.301   5.629  14.241  0.00  0.00    +0.000 NA
ATOM     22  H   UNL     1       9.955   5.320  12.708  0.00  0.00    +0.000 HD
ATOM     23  H   UNL     1       9.333   6.594  13.613  0.00  0.00    +0.000 HD
BRANCH  18  24
ATOM     24  O   UNL     1       5.834   2.623  11.961  0.00  0.00    +0.000 OA
ATOM     25  H   UNL     1       5.118   2.219  12.467  0.00  0.00    +0.000 HD
ENDBRANCH  18  24
ENDBRANCH  14  20
ENDBRANCH   1  14
TORSDOF 5
ENDMDL
MODEL 7
REMARK VINA RESULT:      -7.9      1.118      1.592
REMARK  Name = 
REMARK  5 active torsions:
REMARK  status: ('A' for Active; 'I' for Inactive)
REMARK    1  A    between atoms: C_4  and  O_5
REMARK    2  A    between atoms: C_7  and  S_8
REMARK    3  A    between atoms: S_8  and  C_9
REMARK    4  A    between atoms: C_9  and  C_10
REMARK    5  A    between atoms: N_12  and  C_13
REMARK                            x       y       z     vdW  Elec       q    Type
REMARK                         _______ _______ _______ _____ _____    ______ ____
ROOT
ATOM      1  C   UNL     1       5.355   4.916  15.136  0.00  0.00    +0.000 C 
ENDROOT
BRANCH   1   2
ATOM      2  C   UNL     1       4.582   5.473  16.333  0.00  0.00    +0.000 C 
ATOM      3  O   UNL     1       4.370   6.675  16.489  0.00  0.00    +0.000 OA
ATOM      4  N   UNL     1       4.147   4.519  17.237  0.00  0.00    +0.000 N 
ATOM      5  H   UNL     1       4.230   3.543  16.983  0.00  0.00    +0.000 HD
BRANCH   4   6
ATOM      6  C   UNL     1       3.477   4.848  18.505  0.00  0.00    +0.000 C 
ATOM      7  C   UNL     1       2.020   4.356  18.503  0.00  0.00    +0.000 C 
ATOM      8  C   UNL     1       1.207   4.635  19.774  0.00  0.00    +0.000 C 
ATOM      9  C   UNL     1       1.542   3.887  21.073  0.00  0.00    +0.000 C 
ATOM     10  C   UNL     1       2.001   2.435  20.937  0.00  0.00    +0.000 C 
ATOM     11  C   UNL     1       3.518   2.229  20.965  0.00  0.00    +0.000 C 
ATOM     12  C   UNL     1       4.305   2.773  19.776  0.00  0.00    +0.000 C 
ATOM     13  C   UNL     1       4.323   4.301  19.663  0.00  0.00    +0.000 C 
ENDBRANCH   4   6
ENDBRANCH   1   2
BRANCH   1  14
ATOM     14  S   UNL     1       6.927   4.187  15.711  0.00  0.00    +0.000 S 
BRANCH  14  20
ATOM     15  N   UNL     1       8.034   8.799  17.269  0.00  0.00    +0.000 N 
ATOM     16  C   UNL     1       7.836   7.467  17.638  0.00  0.00    +0.000 A 
ATOM     17  C   UNL     1       8.034   7.077  18.939  0.00  0.00    +0.000 A 
ATOM     18  C   UNL     1       7.848   5.742  19.186  0.00  0.00    +0.000 A 
ATOM     19  N   UNL     1       7.505   4.838  18.261  0.00  0.00    +0.000 NA
ATOM     20  C   UNL     1       7.361   5.312  17.017  0.00  0.00    +0.000 A 
ATOM     21  N   UNL     1       7.510   6.605  16.669  0.00  0.00    +0.000 NA
ATOM     22  H   UNL     1       7.517   9.452  17.846  0.00  0.00    +0.000 HD
ATOM     23  H   UNL     1       7.797   8.891  16.284  0.00  0.00    +0.000 HD
BRANCH  18  24
ATOM     24  O   UNL     1       8.008   5.231  20.444  0.00  0.00    +0.000 OA
ATOM     25  H   UNL     1       7.385   5.671  21.036  0.00  0.00    +0.000 HD
ENDBRANCH  18  24
ENDBRANCH  14  20
ENDBRANCH   1  14
TORSDOF 5
ENDMDL
MODEL 8
REMARK VINA RESULT:      -7.9      2.828      3.982
REMARK  Name = 
REMARK  5 active torsions:
REMARK  status: ('A' for Active; 'I' for Inactive)
REMARK    1  A    between atoms: C_4  and  O_5
REMARK    2  A    between atoms: C_7  and  S_8
REMARK    3  A    between atoms: S_8  and  C_9
REMARK    4  A    between atoms: C_9  and  C_10
REMARK    5  A    between atoms: N_12  and  C_13
REMARK                            x       y       z     vdW  Elec       q    Type
REMARK                         _______ _______ _______ _____ _____    ______ ____
ROOT
ATOM      1  C   UNL     1       5.479   5.800  16.696  0.00  0.00    +0.000 C 
ENDROOT
BRANCH   1   2
ATOM      2  C   UNL     1       4.470   5.243  17.702  0.00  0.00    +0.000 C 
ATOM      3  O   UNL     1       3.325   5.679  17.808  0.00  0.00    +0.000 OA
ATOM      4  N   UNL     1       4.950   4.216  18.496  0.00  0.00    +0.000 N 
ATOM      5  H   UNL     1       5.849   3.811  18.268  0.00  0.00    +0.000 HD
BRANCH   4   6
ATOM      6  C   UNL     1       4.180   3.612  19.596  0.00  0.00    +0.000 C 
ATOM      7  C   UNL     1       3.147   4.605  20.156  0.00  0.00    +0.000 C 
ATOM      8  C   UNL     1       2.274   4.096  21.311  0.00  0.00    +0.000 C 
ATOM      9  C   UNL     1       1.214   3.016  21.047  0.00  0.00    +0.000 C 
ATOM     10  C   UNL     1       0.491   3.070  19.701  0.00  0.00    +0.000 C 
ATOM     11  C   UNL     1       1.052   2.135  18.625  0.00  0.00    +0.000 C 
ATOM     12  C   UNL     1       2.443   2.463  18.090  0.00  0.00    +0.000 C 
ATOM     13  C   UNL     1       3.579   2.289  19.105  0.00  0.00    +0.000 C 
ENDBRANCH   4   6
ENDBRANCH   1   2
BRANCH   1  14
ATOM     14  S   UNL     1       6.846   4.609  16.480  0.00  0.00    +0.000 S 
BRANCH  14  20
ATOM     15  N   UNL     1       5.711   2.563  12.070  0.00  0.00    +0.000 N 
ATOM     16  C   UNL     1       6.393   3.585  12.733  0.00  0.00    +0.000 A 
ATOM     17  C   UNL     1       7.170   4.466  12.023  0.00  0.00    +0.000 A 
ATOM     18  C   UNL     1       7.825   5.408  12.773  0.00  0.00    +0.000 A 
ATOM     19  N   UNL     1       7.753   5.503  14.105  0.00  0.00    +0.000 NA
ATOM     20  C   UNL     1       6.990   4.582  14.708  0.00  0.00    +0.000 A 
ATOM     21  N   UNL     1       6.297   3.622  14.066  0.00  0.00    +0.000 NA
ATOM     22  H   UNL     1       5.138   2.899  11.306  0.00  0.00    +0.000 HD
ATOM     23  H   UNL     1       5.164   2.052  12.759  0.00  0.00    +0.000 HD
BRANCH  18  24
ATOM     24  O   UNL     1       8.625   6.345  12.182  0.00  0.00    +0.000 OA
ATOM     25  H   UNL     1       9.367   5.894  11.759  0.00  0.00    +0.000 HD
ENDBRANCH  18  24
ENDBRANCH  14  20
ENDBRANCH   1  14
TORSDOF 5
ENDMDL
MODEL 9
REMARK VINA RESULT:      -7.8      1.633      2.380
REMARK  Name = 
REMARK  5 active torsions:
REMARK  status: ('A' for Active; 'I' for Inactive)
REMARK    1  A    between atoms: C_4  and  O_5
REMARK    2  A    between atoms: C_7  and  S_8
REMARK    3  A    between atoms: S_8  and  C_9
REMARK    4  A    between atoms: C_9  and  C_10
REMARK    5  A    between atoms: N_12  and  C_13
REMARK                            x       y       z     vdW  Elec       q    Type
REMARK                         _______ _______ _______ _____ _____    ______ ____
ROOT
ATOM      1  C   UNL     1       5.177   4.901  15.233  0.00  0.00    +0.000 C 
ENDROOT
BRANCH   1   2
ATOM      2  C   UNL     1       4.471   5.454  16.472  0.00  0.00    +0.000 C 
ATOM      3  O   UNL     1       4.260   6.655  16.639  0.00  0.00    +0.000 OA
ATOM      4  N   UNL     1       4.097   4.499  17.401  0.00  0.00    +0.000 N 
ATOM      5  H   UNL     1       4.173   3.523  17.144  0.00  0.00    +0.000 HD
BRANCH   4   6
ATOM      6  C   UNL     1       3.502   4.824  18.707  0.00  0.00    +0.000 C 
ATOM      7  C   UNL     1       2.017   4.421  18.751  0.00  0.00    +0.000 C 
ATOM      8  C   UNL     1       1.276   4.707  20.064  0.00  0.00    +0.000 C 
ATOM      9  C   UNL     1       1.617   3.897  21.324  0.00  0.00    +0.000 C 
ATOM     10  C   UNL     1       1.980   2.425  21.124  0.00  0.00    +0.000 C 
ATOM     11  C   UNL     1       3.481   2.127  21.080  0.00  0.00    +0.000 C 
ATOM     12  C   UNL     1       4.251   2.662  19.876  0.00  0.00    +0.000 C 
ATOM     13  C   UNL     1       4.358   4.190  19.809  0.00  0.00    +0.000 C 
ENDBRANCH   4   6
ENDBRANCH   1   2
BRANCH   1  14
ATOM     14  S   UNL     1       6.790   4.195  15.713  0.00  0.00    +0.000 S 
BRANCH  14  20
ATOM     15  N   UNL     1       8.185   5.266  20.384  0.00  0.00    +0.000 N 
ATOM     16  C   UNL     1       7.971   5.760  19.097  0.00  0.00    +0.000 A 
ATOM     17  C   UNL     1       8.117   7.101  18.842  0.00  0.00    +0.000 A 
ATOM     18  C   UNL     1       7.848   7.486  17.554  0.00  0.00    +0.000 A 
ATOM     19  N   UNL     1       7.461   6.658  16.578  0.00  0.00    +0.000 NA
ATOM     20  C   UNL     1       7.322   5.374  16.933  0.00  0.00    +0.000 A 
ATOM     21  N   UNL     1       7.570   4.889  18.165  0.00  0.00    +0.000 NA
ATOM     22  H   UNL     1       9.083   5.535  20.769  0.00  0.00    +0.000 HD
ATOM     23  H   UNL     1       8.071   4.256  20.357  0.00  0.00    +0.000 HD
BRANCH  18  24
ATOM     24  O   UNL     1       7.963   8.794  17.173  0.00  0.00    +0.000 OA
ATOM     25  H   UNL     1       7.187   9.275  17.489  0.00  0.00    +0.000 HD
ENDBRANCH  18  24
ENDBRANCH  14  20
ENDBRANCH   1  14
TORSDOF 5
ENDMDL
