MODEL 1
REMARK VINA RESULT:      -9.4      0.000      0.000
REMARK  Name = 
REMARK  6 active torsions:
REMARK  status: ('A' for Active; 'I' for Inactive)
REMARK    1  A    between atoms: C_2  and  O_3
REMARK    2  A    between atoms: C_2  and  C_4
REMARK    3  A    between atoms: N_6  and  C_7
REMARK    4  A    between atoms: C_7  and  C_8
REMARK    5  A    between atoms: C_8  and  C_9
REMARK    6  A    between atoms: C_24  and  O_25
REMARK                            x       y       z     vdW  Elec       q    Type
REMARK                         _______ _______ _______ _____ _____    ______ ____
ROOT
ATOM      1  C   UNL     1       3.108   3.713  19.289  0.00  0.00    +0.000 C 
ATOM      2  C   UNL     1       2.647   3.012  17.991  0.00  0.00    +0.000 C 
ATOM      3  C   UNL     1       1.245   2.475  18.257  0.00  0.00    +0.000 C 
ATOM      4  C   UNL     1       1.158   2.241  19.755  0.00  0.00    +0.000 C 
ATOM      5  C   UNL     1       2.417   2.840  20.377  0.00  0.00    +0.000 C 
ENDROOT
BRANCH   1   6
ATOM      6  C   UNL     1       2.655   5.169  19.486  0.00  0.00    +0.000 A 
ATOM      7  C   UNL     1       1.921   5.486  20.648  0.00  0.00    +0.000 A 
ATOM      8  C   UNL     1       1.581   6.795  20.962  0.00  0.00    +0.000 A 
ATOM      9  C   UNL     1       1.794   7.794  20.017  0.00  0.00    +0.000 A 
ATOM     10  C   UNL     1       1.382   9.096  20.262  0.00  0.00    +0.000 A 
ATOM     11  C   UNL     1       0.912   9.870  19.221  0.00  0.00    +0.000 A 
ATOM     12  C   UNL     1       1.334   9.553  17.941  0.00  0.00    +0.000 A 
ATOM     13  C   UNL     1       2.161   8.439  17.734  0.00  0.00    +0.000 A 
ATOM     14  C   UNL     1       2.308   7.481  18.753  0.00  0.00    +0.000 A 
ATOM     15  C   UNL     1       2.864   6.199  18.549  0.00  0.00    +0.000 A 
ENDBRANCH   1   6
BRANCH   1  16
ATOM     16  C   UNL     1       4.666   3.570  19.451  0.00  0.00    +0.000 C 
BRANCH  16  19
ATOM     17  C   UNL     1       6.242   5.047  16.370  0.00  0.00    +0.000 A 
ATOM     18  C   UNL     1       5.454   4.367  17.211  0.00  0.00    +0.000 A 
ATOM     19  N   UNL     1       5.471   4.473  18.592  0.00  0.00    +0.000 N 
ATOM     20  C   UNL     1       6.424   5.345  19.174  0.00  0.00    +0.000 A 
ATOM     21  C   UNL     1       7.278   6.087  18.455  0.00  0.00    +0.000 A 
ATOM     22  C   UNL     1       7.224   5.996  16.972  0.00  0.00    +0.000 A 
ATOM     23  O   UNL     1       7.960   6.653  16.234  0.00  0.00    +0.000 OA
BRANCH  17  25
ATOM     24  O   UNL     1       5.096   4.374  14.394  0.00  0.00    +0.000 OA
ATOM     25  C   UNL     1       6.109   4.820  14.916  0.00  0.00    +0.000 C 
BRANCH  25  26
ATOM     26  O   UNL     1       7.204   5.147  14.195  0.00  0.00    +0.000 OA
ATOM     27  H   UNL     1       7.235   6.093  13.904  0.00  0.00    +0.000 HD
ENDBRANCH  25  26
ENDBRANCH  17  25
BRANCH  21  28
ATOM     28  O   UNL     1       8.205   6.918  19.060  0.00  0.00    +0.000 OA
ATOM     29  H   UNL     1       8.419   6.598  19.938  0.00  0.00    +0.000 HD
ENDBRANCH  21  28
ENDBRANCH  16  19
ENDBRANCH   1  16
TORSDOF 6
ENDMDL
MODEL 2
REMARK VINA RESULT:      -9.4      0.710      2.256
REMARK  Name = 
REMARK  6 active torsions:
REMARK  status: ('A' for Active; 'I' for Inactive)
REMARK    1  A    between atoms: C_2  and  O_3
REMARK    2  A    between atoms: C_2  and  C_4
REMARK    3  A    between atoms: N_6  and  C_7
REMARK    4  A    between atoms: C_7  and  C_8
REMARK    5  A    between atoms: C_8  and  C_9
REMARK    6  A    between atoms: C_24  and  O_25
REMARK                            x       y       z     vdW  Elec       q    Type
REMARK                         _______ _______ _______ _____ _____    ______ ____
ROOT
ATOM      1  C   UNL     1       3.109   3.955  19.295  0.00  0.00    +0.000 C 
ATOM      2  C   UNL     1       2.747   3.271  17.958  0.00  0.00    +0.000 C 
ATOM      3  C   UNL     1       1.335   2.718  18.117  0.00  0.00    +0.000 C 
ATOM      4  C   UNL     1       1.146   2.459  19.601  0.00  0.00    +0.000 C 
ATOM      5  C   UNL     1       2.353   3.059  20.319  0.00  0.00    +0.000 C 
ENDROOT
BRANCH   1   6
ATOM      6  C   UNL     1       2.630   5.404  19.483  0.00  0.00    +0.000 A 
ATOM      7  C   UNL     1       1.848   5.703  20.618  0.00  0.00    +0.000 A 
ATOM      8  C   UNL     1       1.479   7.006  20.926  0.00  0.00    +0.000 A 
ATOM      9  C   UNL     1       1.714   8.014  19.995  0.00  0.00    +0.000 A 
ATOM     10  C   UNL     1       1.275   9.309  20.231  0.00  0.00    +0.000 A 
ATOM     11  C   UNL     1       0.835  10.083  19.177  0.00  0.00    +0.000 A 
ATOM     12  C   UNL     1       1.309   9.779  17.913  0.00  0.00    +0.000 A 
ATOM     13  C   UNL     1       2.159   8.677  17.731  0.00  0.00    +0.000 A 
ATOM     14  C   UNL     1       2.279   7.715  18.750  0.00  0.00    +0.000 A 
ATOM     15  C   UNL     1       2.861   6.442  18.560  0.00  0.00    +0.000 A 
ENDBRANCH   1   6
BRANCH   1  16
ATOM     16  C   UNL     1       4.654   3.823  19.564  0.00  0.00    +0.000 C 
BRANCH  16  19
ATOM     17  C   UNL     1       6.957   6.052  17.592  0.00  0.00    +0.000 A 
ATOM     18  C   UNL     1       6.252   5.478  18.576  0.00  0.00    +0.000 A 
ATOM     19  N   UNL     1       5.525   4.304  18.464  0.00  0.00    +0.000 N 
ATOM     20  C   UNL     1       5.489   3.670  17.198  0.00  0.00    +0.000 A 
ATOM     21  C   UNL     1       6.143   4.132  16.124  0.00  0.00    +0.000 A 
ATOM     22  C   UNL     1       6.954   5.370  16.264  0.00  0.00    +0.000 A 
ATOM     23  O   UNL     1       7.600   5.857  15.335  0.00  0.00    +0.000 OA
BRANCH  17  25
ATOM     24  O   UNL     1       7.536   8.327  17.197  0.00  0.00    +0.000 OA
ATOM     25  C   UNL     1       7.678   7.312  17.864  0.00  0.00    +0.000 C 
BRANCH  25  26
ATOM     26  O   UNL     1       8.517   7.261  18.923  0.00  0.00    +0.000 OA
ATOM     27  H   UNL     1       9.237   6.586  18.842  0.00  0.00    +0.000 HD
ENDBRANCH  25  26
ENDBRANCH  17  25
BRANCH  21  28
ATOM     28  O   UNL     1       6.073   3.492  14.899  0.00  0.00    +0.000 OA
ATOM     29  H   UNL     1       5.158   3.363  14.641  0.00  0.00    +0.000 HD
ENDBRANCH  21  28
ENDBRANCH  16  19
ENDBRANCH   1  16
TORSDOF 6
ENDMDL
MODEL 3
REMARK VINA RESULT:      -9.1      0.988      2.737
REMARK  Name = 
REMARK  6 active torsions:
REMARK  status: ('A' for Active; 'I' for Inactive)
REMARK    1  A    between atoms: C_2  and  O_3
REMARK    2  A    between atoms: C_2  and  C_4
REMARK    3  A    between atoms: N_6  and  C_7
REMARK    4  A    between atoms: C_7  and  C_8
REMARK    5  A    between atoms: C_8  and  C_9
REMARK    6  A    between atoms: C_24  and  O_25
REMARK                            x       y       z     vdW  Elec       q    Type
REMARK                         _______ _______ _______ _____ _____    ______ ____
ROOT
ATOM      1  C   UNL     1       2.887   4.467  19.409  0.00  0.00    +0.000 C 
ATOM      2  C   UNL     1       2.606   3.627  18.143  0.00  0.00    +0.000 C 
ATOM      3  C   UNL     1       1.187   3.085  18.282  0.00  0.00    +0.000 C 
ATOM      4  C   UNL     1       0.910   3.001  19.772  0.00  0.00    +0.000 C 
ATOM      5  C   UNL     1       2.072   3.691  20.484  0.00  0.00    +0.000 C 
ENDROOT
BRANCH   1   6
ATOM      6  C   UNL     1       2.396   5.923  19.396  0.00  0.00    +0.000 A 
ATOM      7  C   UNL     1       2.709   6.720  18.275  0.00  0.00    +0.000 A 
ATOM      8  C   UNL     1       2.201   8.004  18.128  0.00  0.00    +0.000 A 
ATOM      9  C   UNL     1       1.529   8.592  19.196  0.00  0.00    +0.000 A 
ATOM     10  C   UNL     1       1.089   9.906  19.117  0.00  0.00    +0.000 A 
ATOM     11  C   UNL     1       1.110  10.702  20.243  0.00  0.00    +0.000 A 
ATOM     12  C   UNL     1       1.060  10.075  21.477  0.00  0.00    +0.000 A 
ATOM     13  C   UNL     1       1.051   8.674  21.548  0.00  0.00    +0.000 A 
ATOM     14  C   UNL     1       1.401   7.916  20.416  0.00  0.00    +0.000 A 
ATOM     15  C   UNL     1       1.709   6.538  20.460  0.00  0.00    +0.000 A 
ENDBRANCH   1   6
BRANCH   1  16
ATOM     16  C   UNL     1       4.413   4.379  19.782  0.00  0.00    +0.000 C 
BRANCH  16  19
ATOM     17  C   UNL     1       6.946   6.257  17.729  0.00  0.00    +0.000 A 
ATOM     18  C   UNL     1       6.171   5.817  18.728  0.00  0.00    +0.000 A 
ATOM     19  N   UNL     1       5.348   4.705  18.678  0.00  0.00    +0.000 N 
ATOM     20  C   UNL     1       5.287   3.985  17.458  0.00  0.00    +0.000 A 
ATOM     21  C   UNL     1       6.004   4.312  16.374  0.00  0.00    +0.000 A 
ATOM     22  C   UNL     1       6.915   5.484  16.452  0.00  0.00    +0.000 A 
ATOM     23  O   UNL     1       7.623   5.846  15.510  0.00  0.00    +0.000 OA
BRANCH  17  25
ATOM     24  O   UNL     1       7.697   8.459  17.220  0.00  0.00    +0.000 OA
ATOM     25  C   UNL     1       7.767   7.468  17.934  0.00  0.00    +0.000 C 
BRANCH  25  26
ATOM     26  O   UNL     1       8.613   7.401  18.985  0.00  0.00    +0.000 OA
ATOM     27  H   UNL     1       8.735   6.491  19.355  0.00  0.00    +0.000 HD
ENDBRANCH  25  26
ENDBRANCH  17  25
BRANCH  21  28
ATOM     28  O   UNL     1       5.907   3.594  15.196  0.00  0.00    +0.000 OA
ATOM     29  H   UNL     1       5.099   3.077  15.183  0.00  0.00    +0.000 HD
ENDBRANCH  21  28
ENDBRANCH  16  19
ENDBRANCH   1  16
TORSDOF 6
ENDMDL
MODEL 4
REMARK VINA RESULT:      -8.5      0.686      1.518
REMARK  Name = 
REMARK  6 active torsions:
REMARK  status: ('A' for Active; 'I' for Inactive)
REMARK    1  A    between atoms: C_2  and  O_3
REMARK    2  A    between atoms: C_2  and  C_4
REMARK    3  A    between atoms: N_6  and  C_7
REMARK    4  A    between atoms: C_7  and  C_8
REMARK    5  A    between atoms: C_8  and  C_9
REMARK    6  A    between atoms: C_24  and  O_25
REMARK                            x       y       z     vdW  Elec       q    Type
REMARK                         _______ _______ _______ _____ _____    ______ ____
ROOT
ATOM      1  C   UNL     1       2.880   4.217  19.451  0.00  0.00    +0.000 C 
ATOM      2  C   UNL     1       2.495   3.348  18.232  0.00  0.00    +0.000 C 
ATOM      3  C   UNL     1       1.083   2.834  18.488  0.00  0.00    +0.000 C 
ATOM      4  C   UNL     1       0.913   2.795  19.996  0.00  0.00    +0.000 C 
ATOM      5  C   UNL     1       2.133   3.484  20.604  0.00  0.00    +0.000 C 
ENDROOT
BRANCH   1   6
ATOM      6  C   UNL     1       2.410   5.680  19.433  0.00  0.00    +0.000 A 
ATOM      7  C   UNL     1       2.736   6.469  18.309  0.00  0.00    +0.000 A 
ATOM      8  C   UNL     1       2.247   7.760  18.158  0.00  0.00    +0.000 A 
ATOM      9  C   UNL     1       1.585   8.362  19.223  0.00  0.00    +0.000 A 
ATOM     10  C   UNL     1       1.164   9.681  19.138  0.00  0.00    +0.000 A 
ATOM     11  C   UNL     1       1.198  10.482  20.262  0.00  0.00    +0.000 A 
ATOM     12  C   UNL     1       1.138   9.860  21.498  0.00  0.00    +0.000 A 
ATOM     13  C   UNL     1       1.108   8.460  21.574  0.00  0.00    +0.000 A 
ATOM     14  C   UNL     1       1.446   7.692  20.445  0.00  0.00    +0.000 A 
ATOM     15  C   UNL     1       1.733   6.310  20.495  0.00  0.00    +0.000 A 
ENDBRANCH   1   6
BRANCH   1  16
ATOM     16  C   UNL     1       4.427   4.113  19.716  0.00  0.00    +0.000 C 
BRANCH  16  19
ATOM     17  C   UNL     1       6.044   4.984  16.432  0.00  0.00    +0.000 A 
ATOM     18  C   UNL     1       5.224   4.502  17.374  0.00  0.00    +0.000 A 
ATOM     19  N   UNL     1       5.281   4.810  18.724  0.00  0.00    +0.000 N 
ATOM     20  C   UNL     1       6.312   5.680  19.158  0.00  0.00    +0.000 A 
ATOM     21  C   UNL     1       7.206   6.234  18.327  0.00  0.00    +0.000 A 
ATOM     22  C   UNL     1       7.111   5.929  16.875  0.00  0.00    +0.000 A 
ATOM     23  O   UNL     1       7.879   6.407  16.039  0.00  0.00    +0.000 OA
BRANCH  17  25
ATOM     24  O   UNL     1       4.767   4.478  14.487  0.00  0.00    +0.000 OA
ATOM     25  C   UNL     1       5.860   4.555  15.030  0.00  0.00    +0.000 C 
BRANCH  25  26
ATOM     26  O   UNL     1       7.006   4.251  14.382  0.00  0.00    +0.000 OA
ATOM     27  H   UNL     1       6.965   3.421  13.845  0.00  0.00    +0.000 HD
ENDBRANCH  25  26
ENDBRANCH  17  25
BRANCH  21  28
ATOM     28  O   UNL     1       8.208   7.068  18.790  0.00  0.00    +0.000 OA
ATOM     29  H   UNL     1       8.909   6.555  19.198  0.00  0.00    +0.000 HD
ENDBRANCH  21  28
ENDBRANCH  16  19
ENDBRANCH   1  16
TORSDOF 6
ENDMDL
MODEL 5
REMARK VINA RESULT:      -8.3      1.643      3.594
REMARK  Name = 
REMARK  6 active torsions:
REMARK  status: ('A' for Active; 'I' for Inactive)
REMARK    1  A    between atoms: C_2  and  O_3
REMARK    2  A    between atoms: C_2  and  C_4
REMARK    3  A    between atoms: N_6  and  C_7
REMARK    4  A    between atoms: C_7  and  C_8
REMARK    5  A    between atoms: C_8  and  C_9
REMARK    6  A    between atoms: C_24  and  O_25
REMARK                            x       y       z     vdW  Elec       q    Type
REMARK                         _______ _______ _______ _____ _____    ______ ____
ROOT
ATOM      1  C   UNL     1       2.402   6.150  18.913  0.00  0.00    +0.000 C 
ATOM      2  C   UNL     1       1.537   4.912  18.584  0.00  0.00    +0.000 C 
ATOM      3  C   UNL     1       1.356   4.145  19.889  0.00  0.00    +0.000 C 
ATOM      4  C   UNL     1       2.564   4.478  20.748  0.00  0.00    +0.000 C 
ATOM      5  C   UNL     1       3.325   5.595  20.038  0.00  0.00    +0.000 C 
ENDROOT
BRANCH   1   6
ATOM      6  C   UNL     1       1.666   7.382  19.464  0.00  0.00    +0.000 A 
ATOM      7  C   UNL     1       1.759   8.590  18.743  0.00  0.00    +0.000 A 
ATOM      8  C   UNL     1       1.027   9.713  19.103  0.00  0.00    +0.000 A 
ATOM      9  C   UNL     1       0.338   9.712  20.313  0.00  0.00    +0.000 A 
ATOM     10  C   UNL     1      -0.328  10.850  20.747  0.00  0.00    +0.000 A 
ATOM     11  C   UNL     1      -0.369  11.143  22.095  0.00  0.00    +0.000 A 
ATOM     12  C   UNL     1      -0.226  10.095  22.987  0.00  0.00    +0.000 A 
ATOM     13  C   UNL     1       0.014   8.798  22.509  0.00  0.00    +0.000 A 
ATOM     14  C   UNL     1       0.412   8.610  21.173  0.00  0.00    +0.000 A 
ATOM     15  C   UNL     1       0.956   7.404  20.681  0.00  0.00    +0.000 A 
ENDBRANCH   1   6
BRANCH   1  16
ATOM     16  C   UNL     1       3.297   6.523  17.674  0.00  0.00    +0.000 C 
BRANCH  16  19
ATOM     17  C   UNL     1       6.941   5.732  18.181  0.00  0.00    +0.000 A 
ATOM     18  C   UNL     1       5.707   6.240  18.293  0.00  0.00    +0.000 A 
ATOM     19  N   UNL     1       4.592   5.803  17.597  0.00  0.00    +0.000 N 
ATOM     20  C   UNL     1       4.769   4.756  16.659  0.00  0.00    +0.000 A 
ATOM     21  C   UNL     1       5.947   4.156  16.440  0.00  0.00    +0.000 A 
ATOM     22  C   UNL     1       7.129   4.604  17.222  0.00  0.00    +0.000 A 
ATOM     23  O   UNL     1       8.246   4.098  17.097  0.00  0.00    +0.000 OA
BRANCH  17  25
ATOM     24  O   UNL     1       8.492   7.429  18.800  0.00  0.00    +0.000 OA
ATOM     25  C   UNL     1       8.033   6.311  18.989  0.00  0.00    +0.000 C 
BRANCH  25  26
ATOM     26  O   UNL     1       8.494   5.503  19.970  0.00  0.00    +0.000 OA
ATOM     27  H   UNL     1       7.790   5.005  20.455  0.00  0.00    +0.000 HD
ENDBRANCH  25  26
ENDBRANCH  17  25
BRANCH  21  28
ATOM     28  O   UNL     1       6.085   3.145  15.504  0.00  0.00    +0.000 OA
ATOM     29  H   UNL     1       6.948   2.734  15.580  0.00  0.00    +0.000 HD
ENDBRANCH  21  28
ENDBRANCH  16  19
ENDBRANCH   1  16
TORSDOF 6
ENDMDL
MODEL 6
REMARK VINA RESULT:      -8.3      1.612      2.904
REMARK  Name = 
REMARK  6 active torsions:
REMARK  status: ('A' for Active; 'I' for Inactive)
REMARK    1  A    between atoms: C_2  and  O_3
REMARK    2  A    between atoms: C_2  and  C_4
REMARK    3  A    between atoms: N_6  and  C_7
REMARK    4  A    between atoms: C_7  and  C_8
REMARK    5  A    between atoms: C_8  and  C_9
REMARK    6  A    between atoms: C_24  and  O_25
REMARK                            x       y       z     vdW  Elec       q    Type
REMARK                         _______ _______ _______ _____ _____    ______ ____
ROOT
ATOM      1  C   UNL     1       2.821   6.710  18.533  0.00  0.00    +0.000 C 
ATOM      2  C   UNL     1       2.136   5.547  17.782  0.00  0.00    +0.000 C 
ATOM      3  C   UNL     1       1.752   4.512  18.834  0.00  0.00    +0.000 C 
ATOM      4  C   UNL     1       2.732   4.689  19.980  0.00  0.00    +0.000 C 
ATOM      5  C   UNL     1       3.536   5.955  19.691  0.00  0.00    +0.000 C 
ENDROOT
BRANCH   1   6
ATOM      6  C   UNL     1       1.898   7.772  19.153  0.00  0.00    +0.000 A 
ATOM      7  C   UNL     1       1.613   8.928  18.396  0.00  0.00    +0.000 A 
ATOM      8  C   UNL     1       0.694   9.875  18.830  0.00  0.00    +0.000 A 
ATOM      9  C   UNL     1       0.191   9.786  20.124  0.00  0.00    +0.000 A 
ATOM     10  C   UNL     1      -0.658  10.765  20.621  0.00  0.00    +0.000 A 
ATOM     11  C   UNL     1      -0.587  11.117  21.953  0.00  0.00    +0.000 A 
ATOM     12  C   UNL     1      -0.087  10.181  22.842  0.00  0.00    +0.000 A 
ATOM     13  C   UNL     1       0.381   8.947  22.366  0.00  0.00    +0.000 A 
ATOM     14  C   UNL     1       0.631   8.779  20.992  0.00  0.00    +0.000 A 
ATOM     15  C   UNL     1       1.371   7.701  20.457  0.00  0.00    +0.000 A 
ENDBRANCH   1   6
BRANCH   1  16
ATOM     16  C   UNL     1       3.918   7.368  17.616  0.00  0.00    +0.000 C 
BRANCH  16  19
ATOM     17  C   UNL     1       6.527   5.161  16.039  0.00  0.00    +0.000 A 
ATOM     18  C   UNL     1       5.501   5.997  16.242  0.00  0.00    +0.000 A 
ATOM     19  N   UNL     1       5.160   6.572  17.455  0.00  0.00    +0.000 N 
ATOM     20  C   UNL     1       5.934   6.225  18.589  0.00  0.00    +0.000 A 
ATOM     21  C   UNL     1       6.987   5.398  18.536  0.00  0.00    +0.000 A 
ATOM     22  C   UNL     1       7.370   4.818  17.222  0.00  0.00    +0.000 A 
ATOM     23  O   UNL     1       8.333   4.063  17.078  0.00  0.00    +0.000 OA
BRANCH  17  25
ATOM     24  O   UNL     1       7.290   5.264  13.786  0.00  0.00    +0.000 OA
ATOM     25  C   UNL     1       6.760   4.624  14.683  0.00  0.00    +0.000 C 
BRANCH  25  26
ATOM     26  O   UNL     1       6.340   3.351  14.504  0.00  0.00    +0.000 OA
ATOM     27  H   UNL     1       7.009   2.662  14.744  0.00  0.00    +0.000 HD
ENDBRANCH  25  26
ENDBRANCH  17  25
BRANCH  21  28
ATOM     28  O   UNL     1       7.712   5.070  19.669  0.00  0.00    +0.000 OA
ATOM     29  H   UNL     1       7.174   5.184  20.455  0.00  0.00    +0.000 HD
ENDBRANCH  21  28
ENDBRANCH  16  19
ENDBRANCH   1  16
TORSDOF 6
ENDMDL
MODEL 7
REMARK VINA RESULT:      -8.2      1.101      2.641
REMARK  Name = 
REMARK  6 active torsions:
REMARK  status: ('A' for Active; 'I' for Inactive)
REMARK    1  A    between atoms: C_2  and  O_3
REMARK    2  A    between atoms: C_2  and  C_4
REMARK    3  A    between atoms: N_6  and  C_7
REMARK    4  A    between atoms: C_7  and  C_8
REMARK    5  A    between atoms: C_8  and  C_9
REMARK    6  A    between atoms: C_24  and  O_25
REMARK                            x       y       z     vdW  Elec       q    Type
REMARK                         _______ _______ _______ _____ _____    ______ ____
ROOT
ATOM      1  C   UNL     1       2.294   4.044  19.032  0.00  0.00    +0.000 C 
ATOM      2  C   UNL     1       1.166   3.055  19.402  0.00  0.00    +0.000 C 
ATOM      3  C   UNL     1       1.369   2.687  20.868  0.00  0.00    +0.000 C 
ATOM      4  C   UNL     1       2.853   2.857  21.145  0.00  0.00    +0.000 C 
ATOM      5  C   UNL     1       3.465   3.525  19.917  0.00  0.00    +0.000 C 
ENDROOT
BRANCH   1   6
ATOM      6  C   UNL     1       2.057   5.524  19.373  0.00  0.00    +0.000 A 
ATOM      7  C   UNL     1       1.502   5.835  20.632  0.00  0.00    +0.000 A 
ATOM      8  C   UNL     1       1.371   7.147  21.067  0.00  0.00    +0.000 A 
ATOM      9  C   UNL     1       1.605   8.184  20.169  0.00  0.00    +0.000 A 
ATOM     10  C   UNL     1       1.394   9.504  20.543  0.00  0.00    +0.000 A 
ATOM     11  C   UNL     1       0.916  10.407  19.616  0.00  0.00    +0.000 A 
ATOM     12  C   UNL     1       1.150  10.142  18.277  0.00  0.00    +0.000 A 
ATOM     13  C   UNL     1       1.799   8.956  17.904  0.00  0.00    +0.000 A 
ATOM     14  C   UNL     1       1.932   7.911  18.835  0.00  0.00    +0.000 A 
ATOM     15  C   UNL     1       2.293   6.591  18.485  0.00  0.00    +0.000 A 
ENDBRANCH   1   6
BRANCH   1  16
ATOM     16  C   UNL     1       2.693   3.860  17.521  0.00  0.00    +0.000 C 
BRANCH  16  19
ATOM     17  C   UNL     1       6.292   4.902  17.870  0.00  0.00    +0.000 A 
ATOM     18  C   UNL     1       5.002   4.633  18.106  0.00  0.00    +0.000 A 
ATOM     19  N   UNL     1       4.143   3.982  17.236  0.00  0.00    +0.000 N 
ATOM     20  C   UNL     1       4.655   3.596  15.972  0.00  0.00    +0.000 A 
ATOM     21  C   UNL     1       5.924   3.804  15.597  0.00  0.00    +0.000 A 
ATOM     22  C   UNL     1       6.849   4.467  16.555  0.00  0.00    +0.000 A 
ATOM     23  O   UNL     1       8.035   4.683  16.301  0.00  0.00    +0.000 OA
BRANCH  17  25
ATOM     24  O   UNL     1       7.082   5.299  20.080  0.00  0.00    +0.000 OA
ATOM     25  C   UNL     1       7.079   5.612  18.898  0.00  0.00    +0.000 C 
BRANCH  25  26
ATOM     26  O   UNL     1       7.810   6.648  18.429  0.00  0.00    +0.000 OA
ATOM     27  H   UNL     1       8.624   6.383  17.933  0.00  0.00    +0.000 HD
ENDBRANCH  25  26
ENDBRANCH  17  25
BRANCH  21  28
ATOM     28  O   UNL     1       6.385   3.426  14.348  0.00  0.00    +0.000 OA
ATOM     29  H   UNL     1       7.329   3.260  14.375  0.00  0.00    +0.000 HD
ENDBRANCH  21  28
ENDBRANCH  16  19
ENDBRANCH   1  16
TORSDOF 6
ENDMDL
MODEL 8
REMARK VINA RESULT:      -8.1      1.485      3.228
REMARK  Name = 
REMARK  6 active torsions:
REMARK  status: ('A' for Active; 'I' for Inactive)
REMARK    1  A    between atoms: C_2  and  O_3
REMARK    2  A    between atoms: C_2  and  C_4
REMARK    3  A    between atoms: N_6  and  C_7
REMARK    4  A    between atoms: C_7  and  C_8
REMARK    5  A    between atoms: C_8  and  C_9
REMARK    6  A    between atoms: C_24  and  O_25
REMARK                            x       y       z     vdW  Elec       q    Type
REMARK                         _______ _______ _______ _____ _____    ______ ____
ROOT
ATOM      1  C   UNL     1       2.486   6.123  18.846  0.00  0.00    +0.000 C 
ATOM      2  C   UNL     1       1.495   4.993  18.487  0.00  0.00    +0.000 C 
ATOM      3  C   UNL     1       1.268   4.186  19.761  0.00  0.00    +0.000 C 
ATOM      4  C   UNL     1       2.522   4.359  20.600  0.00  0.00    +0.000 C 
ATOM      5  C   UNL     1       3.374   5.428  19.919  0.00  0.00    +0.000 C 
ENDROOT
BRANCH   1   6
ATOM      6  C   UNL     1       1.888   7.394  19.471  0.00  0.00    +0.000 A 
ATOM      7  C   UNL     1       1.549   7.366  20.840  0.00  0.00    +0.000 A 
ATOM      8  C   UNL     1       1.120   8.505  21.508  0.00  0.00    +0.000 A 
ATOM      9  C   UNL     1       0.829   9.651  20.775  0.00  0.00    +0.000 A 
ATOM     10  C   UNL     1       0.312  10.776  21.399  0.00  0.00    +0.000 A 
ATOM     11  C   UNL     1      -0.606  11.564  20.735  0.00  0.00    +0.000 A 
ATOM     12  C   UNL     1      -0.595  11.537  19.350  0.00  0.00    +0.000 A 
ATOM     13  C   UNL     1       0.288  10.682  18.675  0.00  0.00    +0.000 A 
ATOM     14  C   UNL     1       0.930   9.647  19.378  0.00  0.00    +0.000 A 
ATOM     15  C   UNL     1       1.591   8.568  18.751  0.00  0.00    +0.000 A 
ENDBRANCH   1   6
BRANCH   1  16
ATOM     16  C   UNL     1       3.385   6.463  17.601  0.00  0.00    +0.000 C 
BRANCH  16  19
ATOM     17  C   UNL     1       6.934   5.488  18.382  0.00  0.00    +0.000 A 
ATOM     18  C   UNL     1       5.698   5.999  18.441  0.00  0.00    +0.000 A 
ATOM     19  N   UNL     1       4.677   5.737  17.542  0.00  0.00    +0.000 N 
ATOM     20  C   UNL     1       4.965   4.886  16.447  0.00  0.00    +0.000 A 
ATOM     21  C   UNL     1       6.159   4.307  16.259  0.00  0.00    +0.000 A 
ATOM     22  C   UNL     1       7.236   4.562  17.251  0.00  0.00    +0.000 A 
ATOM     23  O   UNL     1       8.358   4.059  17.167  0.00  0.00    +0.000 OA
BRANCH  17  25
ATOM     24  O   UNL     1       8.124   5.212  20.426  0.00  0.00    +0.000 OA
ATOM     25  C   UNL     1       7.920   5.869  19.415  0.00  0.00    +0.000 C 
BRANCH  25  26
ATOM     26  O   UNL     1       8.590   7.013  19.155  0.00  0.00    +0.000 OA
ATOM     27  H   UNL     1       8.851   7.527  19.960  0.00  0.00    +0.000 HD
ENDBRANCH  25  26
ENDBRANCH  17  25
BRANCH  21  28
ATOM     28  O   UNL     1       6.408   3.492  15.169  0.00  0.00    +0.000 OA
ATOM     29  H   UNL     1       7.088   2.848  15.379  0.00  0.00    +0.000 HD
ENDBRANCH  21  28
ENDBRANCH  16  19
ENDBRANCH   1  16
TORSDOF 6
ENDMDL
MODEL 9
REMARK VINA RESULT:      -8.0      1.534      2.514
REMARK  Name = 
REMARK  6 active torsions:
REMARK  status: ('A' for Active; 'I' for Inactive)
REMARK    1  A    between atoms: C_2  and  O_3
REMARK    2  A    between atoms: C_2  and  C_4
REMARK    3  A    between atoms: N_6  and  C_7
REMARK    4  A    between atoms: C_7  and  C_8
REMARK    5  A    between atoms: C_8  and  C_9
REMARK    6  A    between atoms: C_24  and  O_25
REMARK                            x       y       z     vdW  Elec       q    Type
REMARK                         _______ _______ _______ _____ _____    ______ ____
ROOT
ATOM      1  C   UNL     1       2.798   6.659  18.559  0.00  0.00    +0.000 C 
ATOM      2  C   UNL     1       1.970   5.566  17.847  0.00  0.00    +0.000 C 
ATOM      3  C   UNL     1       1.628   4.518  18.900  0.00  0.00    +0.000 C 
ATOM      4  C   UNL     1       2.726   4.596  19.947  0.00  0.00    +0.000 C 
ATOM      5  C   UNL     1       3.575   5.822  19.616  0.00  0.00    +0.000 C 
ENDROOT
BRANCH   1   6
ATOM      6  C   UNL     1       2.009   7.751  19.300  0.00  0.00    +0.000 A 
ATOM      7  C   UNL     1       1.715   7.549  20.665  0.00  0.00    +0.000 A 
ATOM      8  C   UNL     1       1.117   8.536  21.436  0.00  0.00    +0.000 A 
ATOM      9  C   UNL     1       0.616   9.673  20.809  0.00  0.00    +0.000 A 
ATOM     10  C   UNL     1      -0.069  10.636  21.537  0.00  0.00    +0.000 A 
ATOM     11  C   UNL     1      -1.124  11.308  20.954  0.00  0.00    +0.000 A 
ATOM     12  C   UNL     1      -1.145  11.402  19.573  0.00  0.00    +0.000 A 
ATOM     13  C   UNL     1      -0.147  10.772  18.815  0.00  0.00    +0.000 A 
ATOM     14  C   UNL     1       0.680   9.806  19.417  0.00  0.00    +0.000 A 
ATOM     15  C   UNL     1       1.499   8.913  18.690  0.00  0.00    +0.000 A 
ENDBRANCH   1   6
BRANCH   1  16
ATOM     16  C   UNL     1       3.838   7.283  17.556  0.00  0.00    +0.000 C 
BRANCH  16  19
ATOM     17  C   UNL     1       6.509   5.139  15.998  0.00  0.00    +0.000 A 
ATOM     18  C   UNL     1       5.462   5.950  16.193  0.00  0.00    +0.000 A 
ATOM     19  N   UNL     1       5.099   6.517  17.404  0.00  0.00    +0.000 N 
ATOM     20  C   UNL     1       5.874   6.189  18.544  0.00  0.00    +0.000 A 
ATOM     21  C   UNL     1       6.947   5.387  18.498  0.00  0.00    +0.000 A 
ATOM     22  C   UNL     1       7.352   4.816  17.187  0.00  0.00    +0.000 A 
ATOM     23  O   UNL     1       8.334   4.084  17.050  0.00  0.00    +0.000 OA
BRANCH  17  25
ATOM     24  O   UNL     1       7.303   5.253  13.756  0.00  0.00    +0.000 OA
ATOM     25  C   UNL     1       6.764   4.606  14.644  0.00  0.00    +0.000 C 
BRANCH  25  26
ATOM     26  O   UNL     1       6.355   3.333  14.456  0.00  0.00    +0.000 OA
ATOM     27  H   UNL     1       6.946   2.794  13.873  0.00  0.00    +0.000 HD
ENDBRANCH  25  26
ENDBRANCH  17  25
BRANCH  21  28
ATOM     28  O   UNL     1       7.671   5.078  19.636  0.00  0.00    +0.000 OA
ATOM     29  H   UNL     1       7.875   4.140  19.659  0.00  0.00    +0.000 HD
ENDBRANCH  21  28
ENDBRANCH  16  19
ENDBRANCH   1  16
TORSDOF 6
ENDMDL
