MODEL 1
REMARK VINA RESULT:      -8.2      0.000      0.000
REMARK  Name = 
REMARK  5 active torsions:
REMARK  status: ('A' for Active; 'I' for Inactive)
REMARK    1  A    between atoms: C_4  and  C_5
REMARK    2  A    between atoms: N_14  and  C_15
REMARK    3  A    between atoms: C_15  and  N_16
REMARK    4  A    between atoms: N_19  and  C_20
REMARK    5  A    between atoms: C_24  and  C_25
REMARK                            x       y       z     vdW  Elec       q    Type
REMARK                         _______ _______ _______ _____ _____    ______ ____
ROOT
ATOM      1  N   UNL     1       3.522   6.141  18.103  0.00  0.00    +0.000 NA
ATOM      2  C   UNL     1       2.638   5.622  19.161  0.00  0.00    +0.000 C 
ATOM      3  C   UNL     1       2.224   6.635  20.246  0.00  0.00    +0.000 C 
ATOM      4  N   UNL     1       1.635   7.860  19.679  0.00  0.00    +0.000 N 
ATOM      5  C   UNL     1       2.186   8.363  18.402  0.00  0.00    +0.000 C 
ATOM      6  C   UNL     1       2.827   7.284  17.483  0.00  0.00    +0.000 C 
ENDROOT
BRANCH   4   7
ATOM      7  C   UNL     1       0.936   8.734  20.524  0.00  0.00    +0.000 A 
ATOM      8  C   UNL     1       0.865   8.522  21.911  0.00  0.00    +0.000 A 
ATOM      9  C   UNL     1       0.282   9.446  22.786  0.00  0.00    +0.000 A 
ATOM     10  C   UNL     1      -0.278  10.620  22.295  0.00  0.00    +0.000 A 
ATOM     11  C   UNL     1      -0.276  10.860  20.918  0.00  0.00    +0.000 A 
ATOM     12  C   UNL     1       0.326   9.917  20.057  0.00  0.00    +0.000 A 
BRANCH  11  13
ATOM     13  C   UNL     1      -0.891  12.124  20.358  0.00  0.00    +0.000 C 
ATOM     14  F   UNL     1      -0.642  13.239  21.099  0.00  0.00    +0.000 F 
ATOM     15  F   UNL     1      -0.451  12.401  19.098  0.00  0.00    +0.000 F 
ATOM     16  F   UNL     1      -2.251  12.033  20.262  0.00  0.00    +0.000 F 
ENDBRANCH  11  13
ENDBRANCH   4   7
BRANCH   1  17
ATOM     17  C   UNL     1       4.885   6.482  18.548  0.00  0.00    +0.000 C 
BRANCH  17  24
ATOM     18  O   UNL     1       7.171   4.794  19.205  0.00  0.00    +0.000 OA
ATOM     19  C   UNL     1       6.818   5.016  18.057  0.00  0.00    +0.000 C 
ATOM     20  C   UNL     1       7.384   4.341  16.848  0.00  0.00    +0.000 C 
ATOM     21  C   UNL     1       7.110   5.354  15.743  0.00  0.00    +0.000 C 
ATOM     22  C   UNL     1       6.050   6.255  16.355  0.00  0.00    +0.000 C 
ATOM     23  O   UNL     1       5.564   7.228  15.788  0.00  0.00    +0.000 OA
ATOM     24  N   UNL     1       5.840   5.874  17.652  0.00  0.00    +0.000 N 
BRANCH  21  25
ATOM     25  C   UNL     1       6.700   4.719  14.435  0.00  0.00    +0.000 A 
ATOM     26  C   UNL     1       5.519   3.968  14.337  0.00  0.00    +0.000 A 
ATOM     27  C   UNL     1       5.153   3.379  13.123  0.00  0.00    +0.000 A 
ATOM     28  C   UNL     1       5.959   3.531  11.994  0.00  0.00    +0.000 A 
ATOM     29  C   UNL     1       7.127   4.283  12.075  0.00  0.00    +0.000 A 
ATOM     30  C   UNL     1       7.481   4.871  13.288  0.00  0.00    +0.000 A 
ATOM     31  F   UNL     1       8.595   5.615  13.332  0.00  0.00    +0.000 F 
ENDBRANCH  21  25
ENDBRANCH  17  24
ENDBRANCH   1  17
TORSDOF 5
ENDMDL
MODEL 2
REMARK VINA RESULT:      -8.0      4.717     11.081
REMARK  Name = 
REMARK  5 active torsions:
REMARK  status: ('A' for Active; 'I' for Inactive)
REMARK    1  A    between atoms: C_4  and  C_5
REMARK    2  A    between atoms: N_14  and  C_15
REMARK    3  A    between atoms: C_15  and  N_16
REMARK    4  A    between atoms: N_19  and  C_20
REMARK    5  A    between atoms: C_24  and  C_25
REMARK                            x       y       z     vdW  Elec       q    Type
REMARK                         _______ _______ _______ _____ _____    ______ ____
ROOT
ATOM      1  N   UNL     1       0.940  10.217  19.832  0.00  0.00    +0.000 NA
ATOM      2  C   UNL     1       1.566   9.286  20.787  0.00  0.00    +0.000 C 
ATOM      3  C   UNL     1       1.591   7.805  20.363  0.00  0.00    +0.000 C 
ATOM      4  N   UNL     1       2.191   7.609  19.032  0.00  0.00    +0.000 N 
ATOM      5  C   UNL     1       1.944   8.645  18.005  0.00  0.00    +0.000 C 
ATOM      6  C   UNL     1       1.663  10.073  18.555  0.00  0.00    +0.000 C 
ENDROOT
BRANCH   4   7
ATOM      7  C   UNL     1       2.565   6.317  18.636  0.00  0.00    +0.000 A 
ATOM      8  C   UNL     1       3.629   6.098  17.746  0.00  0.00    +0.000 A 
ATOM      9  C   UNL     1       4.100   4.816  17.436  0.00  0.00    +0.000 A 
ATOM     10  C   UNL     1       3.501   3.694  17.997  0.00  0.00    +0.000 A 
ATOM     11  C   UNL     1       2.409   3.853  18.854  0.00  0.00    +0.000 A 
ATOM     12  C   UNL     1       1.958   5.157  19.157  0.00  0.00    +0.000 A 
BRANCH  11  13
ATOM     13  C   UNL     1       1.731   2.647  19.466  0.00  0.00    +0.000 C 
ATOM     14  F   UNL     1       1.915   2.528  20.810  0.00  0.00    +0.000 F 
ATOM     15  F   UNL     1       0.382   2.655  19.268  0.00  0.00    +0.000 F 
ATOM     16  F   UNL     1       2.177   1.477  18.921  0.00  0.00    +0.000 F 
ENDBRANCH  11  13
ENDBRANCH   4   7
BRANCH   1  17
ATOM     17  C   UNL     1      -0.517  10.057  19.678  0.00  0.00    +0.000 C 
BRANCH  17  24
ATOM     18  O   UNL     1      -0.910  12.501  18.135  0.00  0.00    +0.000 OA
ATOM     19  C   UNL     1      -1.390  12.332  19.245  0.00  0.00    +0.000 C 
ATOM     20  C   UNL     1      -2.367  13.259  19.899  0.00  0.00    +0.000 C 
ATOM     21  C   UNL     1      -2.152  12.976  21.381  0.00  0.00    +0.000 C 
ATOM     22  C   UNL     1      -1.426  11.641  21.377  0.00  0.00    +0.000 C 
ATOM     23  O   UNL     1      -1.045  11.061  22.388  0.00  0.00    +0.000 OA
ATOM     24  N   UNL     1      -1.170  11.280  20.082  0.00  0.00    +0.000 N 
BRANCH  21  25
ATOM     25  C   UNL     1      -3.431  12.980  22.184  0.00  0.00    +0.000 A 
ATOM     26  C   UNL     1      -4.669  12.735  21.571  0.00  0.00    +0.000 A 
ATOM     27  C   UNL     1      -5.847  12.748  22.323  0.00  0.00    +0.000 A 
ATOM     28  C   UNL     1      -5.806  13.007  23.693  0.00  0.00    +0.000 A 
ATOM     29  C   UNL     1      -4.584  13.240  24.316  0.00  0.00    +0.000 A 
ATOM     30  C   UNL     1      -3.414  13.219  23.560  0.00  0.00    +0.000 A 
ATOM     31  F   UNL     1      -2.247  13.418  24.189  0.00  0.00    +0.000 F 
ENDBRANCH  21  25
ENDBRANCH  17  24
ENDBRANCH   1  17
TORSDOF 5
ENDMDL
MODEL 3
REMARK VINA RESULT:      -8.0      0.918      1.454
REMARK  Name = 
REMARK  5 active torsions:
REMARK  status: ('A' for Active; 'I' for Inactive)
REMARK    1  A    between atoms: C_4  and  C_5
REMARK    2  A    between atoms: N_14  and  C_15
REMARK    3  A    between atoms: C_15  and  N_16
REMARK    4  A    between atoms: N_19  and  C_20
REMARK    5  A    between atoms: C_24  and  C_25
REMARK                            x       y       z     vdW  Elec       q    Type
REMARK                         _______ _______ _______ _____ _____    ______ ____
ROOT
ATOM      1  N   UNL     1       3.445   6.346  18.128  0.00  0.00    +0.000 NA
ATOM      2  C   UNL     1       2.523   5.777  19.127  0.00  0.00    +0.000 C 
ATOM      3  C   UNL     1       2.087   6.730  20.256  0.00  0.00    +0.000 C 
ATOM      4  N   UNL     1       1.528   7.993  19.745  0.00  0.00    +0.000 N 
ATOM      5  C   UNL     1       2.123   8.562  18.516  0.00  0.00    +0.000 C 
ATOM      6  C   UNL     1       2.780   7.530  17.555  0.00  0.00    +0.000 C 
ENDROOT
BRANCH   4   7
ATOM      7  C   UNL     1       0.812   8.825  20.617  0.00  0.00    +0.000 A 
ATOM      8  C   UNL     1       0.828   8.624  22.008  0.00  0.00    +0.000 A 
ATOM      9  C   UNL     1       0.226   9.514  22.905  0.00  0.00    +0.000 A 
ATOM     10  C   UNL     1      -0.441  10.640  22.434  0.00  0.00    +0.000 A 
ATOM     11  C   UNL     1      -0.526  10.864  21.057  0.00  0.00    +0.000 A 
ATOM     12  C   UNL     1       0.096   9.955  20.174  0.00  0.00    +0.000 A 
BRANCH  11  13
ATOM     13  C   UNL     1      -1.258  12.074  20.520  0.00  0.00    +0.000 C 
ATOM     14  F   UNL     1      -2.369  11.774  19.793  0.00  0.00    +0.000 F 
ATOM     15  F   UNL     1      -1.668  12.914  21.512  0.00  0.00    +0.000 F 
ATOM     16  F   UNL     1      -0.466  12.830  19.701  0.00  0.00    +0.000 F 
ENDBRANCH  11  13
ENDBRANCH   4   7
BRANCH   1  17
ATOM     17  C   UNL     1       4.797   6.644  18.633  0.00  0.00    +0.000 C 
BRANCH  17  24
ATOM     18  O   UNL     1       6.973   4.864  19.407  0.00  0.00    +0.000 OA
ATOM     19  C   UNL     1       6.689   5.097  18.242  0.00  0.00    +0.000 C 
ATOM     20  C   UNL     1       7.287   4.395  17.065  0.00  0.00    +0.000 C 
ATOM     21  C   UNL     1       7.113   5.416  15.946  0.00  0.00    +0.000 C 
ATOM     22  C   UNL     1       6.063   6.362  16.502  0.00  0.00    +0.000 C 
ATOM     23  O   UNL     1       5.648   7.354  15.911  0.00  0.00    +0.000 OA
ATOM     24  N   UNL     1       5.770   5.994  17.787  0.00  0.00    +0.000 N 
BRANCH  21  25
ATOM     25  C   UNL     1       6.745   4.795  14.619  0.00  0.00    +0.000 A 
ATOM     26  C   UNL     1       7.604   4.894  13.514  0.00  0.00    +0.000 A 
ATOM     27  C   UNL     1       7.249   4.321  12.289  0.00  0.00    +0.000 A 
ATOM     28  C   UNL     1       6.036   3.645  12.150  0.00  0.00    +0.000 A 
ATOM     29  C   UNL     1       5.181   3.531  13.242  0.00  0.00    +0.000 A 
ATOM     30  C   UNL     1       5.545   4.099  14.461  0.00  0.00    +0.000 A 
ATOM     31  F   UNL     1       4.717   3.950  15.504  0.00  0.00    +0.000 F 
ENDBRANCH  21  25
ENDBRANCH  17  24
ENDBRANCH   1  17
TORSDOF 5
ENDMDL
MODEL 4
REMARK VINA RESULT:      -8.0      2.888      4.079
REMARK  Name = 
REMARK  5 active torsions:
REMARK  status: ('A' for Active; 'I' for Inactive)
REMARK    1  A    between atoms: C_4  and  C_5
REMARK    2  A    between atoms: N_14  and  C_15
REMARK    3  A    between atoms: C_15  and  N_16
REMARK    4  A    between atoms: N_19  and  C_20
REMARK    5  A    between atoms: C_24  and  C_25
REMARK                            x       y       z     vdW  Elec       q    Type
REMARK                         _______ _______ _______ _____ _____    ______ ____
ROOT
ATOM      1  N   UNL     1       2.470   7.205  19.757  0.00  0.00    +0.000 NA
ATOM      2  C   UNL     1       2.411   7.952  18.489  0.00  0.00    +0.000 C 
ATOM      3  C   UNL     1       1.030   8.522  18.110  0.00  0.00    +0.000 C 
ATOM      4  N   UNL     1       0.444   9.342  19.183  0.00  0.00    +0.000 N 
ATOM      5  C   UNL     1       0.688   8.925  20.581  0.00  0.00    +0.000 C 
ATOM      6  C   UNL     1       1.995   8.116  20.815  0.00  0.00    +0.000 C 
ENDROOT
BRANCH   4   7
ATOM      7  C   UNL     1      -0.647  10.172  18.888  0.00  0.00    +0.000 A 
ATOM      8  C   UNL     1      -0.961  11.289  19.681  0.00  0.00    +0.000 A 
ATOM      9  C   UNL     1      -1.965  12.200  19.336  0.00  0.00    +0.000 A 
ATOM     10  C   UNL     1      -2.716  12.012  18.180  0.00  0.00    +0.000 A 
ATOM     11  C   UNL     1      -2.476  10.893  17.379  0.00  0.00    +0.000 A 
ATOM     12  C   UNL     1      -1.453   9.992  17.745  0.00  0.00    +0.000 A 
BRANCH  11  13
ATOM     13  C   UNL     1      -3.289  10.659  16.124  0.00  0.00    +0.000 C 
ATOM     14  F   UNL     1      -2.781  11.259  15.013  0.00  0.00    +0.000 F 
ATOM     15  F   UNL     1      -3.405   9.335  15.821  0.00  0.00    +0.000 F 
ATOM     16  F   UNL     1      -4.569  11.122  16.249  0.00  0.00    +0.000 F 
ENDBRANCH  11  13
ENDBRANCH   4   7
BRANCH   1  17
ATOM     17  C   UNL     1       1.749   5.920  19.752  0.00  0.00    +0.000 C 
BRANCH  17  24
ATOM     18  O   UNL     1       0.862   3.363  18.664  0.00  0.00    +0.000 OA
ATOM     19  C   UNL     1       1.966   3.834  18.436  0.00  0.00    +0.000 C 
ATOM     20  C   UNL     1       2.945   3.270  17.456  0.00  0.00    +0.000 C 
ATOM     21  C   UNL     1       4.279   3.778  17.991  0.00  0.00    +0.000 C 
ATOM     22  C   UNL     1       3.872   4.909  18.920  0.00  0.00    +0.000 C 
ATOM     23  O   UNL     1       4.662   5.578  19.578  0.00  0.00    +0.000 OA
ATOM     24  N   UNL     1       2.506   4.958  18.986  0.00  0.00    +0.000 N 
BRANCH  21  25
ATOM     25  C   UNL     1       5.243   4.189  16.903  0.00  0.00    +0.000 A 
ATOM     26  C   UNL     1       4.809   4.356  15.580  0.00  0.00    +0.000 A 
ATOM     27  C   UNL     1       5.712   4.731  14.580  0.00  0.00    +0.000 A 
ATOM     28  C   UNL     1       7.057   4.942  14.887  0.00  0.00    +0.000 A 
ATOM     29  C   UNL     1       7.498   4.791  16.198  0.00  0.00    +0.000 A 
ATOM     30  C   UNL     1       6.590   4.423  17.189  0.00  0.00    +0.000 A 
ATOM     31  F   UNL     1       7.035   4.313  18.449  0.00  0.00    +0.000 F 
ENDBRANCH  21  25
ENDBRANCH  17  24
ENDBRANCH   1  17
TORSDOF 5
ENDMDL
MODEL 5
REMARK VINA RESULT:      -7.9      4.753     10.452
REMARK  Name = 
REMARK  5 active torsions:
REMARK  status: ('A' for Active; 'I' for Inactive)
REMARK    1  A    between atoms: C_4  and  C_5
REMARK    2  A    between atoms: N_14  and  C_15
REMARK    3  A    between atoms: C_15  and  N_16
REMARK    4  A    between atoms: N_19  and  C_20
REMARK    5  A    between atoms: C_24  and  C_25
REMARK                            x       y       z     vdW  Elec       q    Type
REMARK                         _______ _______ _______ _____ _____    ______ ____
ROOT
ATOM      1  N   UNL     1      -0.029  11.488  20.671  0.00  0.00    +0.000 NA
ATOM      2  C   UNL     1      -0.322  10.652  19.494  0.00  0.00    +0.000 C 
ATOM      3  C   UNL     1       0.748   9.604  19.133  0.00  0.00    +0.000 C 
ATOM      4  N   UNL     1       1.094   8.735  20.270  0.00  0.00    +0.000 N 
ATOM      5  C   UNL     1       1.110   9.340  21.620  0.00  0.00    +0.000 C 
ATOM      6  C   UNL     1       0.180  10.572  21.807  0.00  0.00    +0.000 C 
ENDROOT
BRANCH   4   7
ATOM      7  C   UNL     1       1.810   7.553  20.033  0.00  0.00    +0.000 A 
ATOM      8  C   UNL     1       1.611   6.400  20.811  0.00  0.00    +0.000 A 
ATOM      9  C   UNL     1       2.221   5.175  20.513  0.00  0.00    +0.000 A 
ATOM     10  C   UNL     1       3.079   5.065  19.424  0.00  0.00    +0.000 A 
ATOM     11  C   UNL     1       3.347   6.192  18.644  0.00  0.00    +0.000 A 
ATOM     12  C   UNL     1       2.714   7.414  18.960  0.00  0.00    +0.000 A 
BRANCH  11  13
ATOM     13  C   UNL     1       4.288   6.101  17.462  0.00  0.00    +0.000 C 
ATOM     14  F   UNL     1       4.139   4.971  16.718  0.00  0.00    +0.000 F 
ATOM     15  F   UNL     1       4.139   7.146  16.599  0.00  0.00    +0.000 F 
ATOM     16  F   UNL     1       5.599   6.126  17.848  0.00  0.00    +0.000 F 
ENDBRANCH  11  13
ENDBRANCH   4   7
BRANCH   1  17
ATOM     17  C   UNL     1       1.086  12.434  20.495  0.00  0.00    +0.000 C 
BRANCH  17  24
ATOM     18  O   UNL     1       0.461  14.266  22.677  0.00  0.00    +0.000 OA
ATOM     19  C   UNL     1       0.396  14.588  21.501  0.00  0.00    +0.000 C 
ATOM     20  C   UNL     1       0.155  15.982  21.014  0.00  0.00    +0.000 C 
ATOM     21  C   UNL     1      -0.445  15.751  19.631  0.00  0.00    +0.000 C 
ATOM     22  C   UNL     1      -0.065  14.312  19.325  0.00  0.00    +0.000 C 
ATOM     23  O   UNL     1      -0.381  13.721  18.298  0.00  0.00    +0.000 OA
ATOM     24  N   UNL     1       0.559  13.776  20.419  0.00  0.00    +0.000 N 
BRANCH  21  25
ATOM     25  C   UNL     1       0.027  16.747  18.599  0.00  0.00    +0.000 A 
ATOM     26  C   UNL     1       1.365  16.772  18.179  0.00  0.00    +0.000 A 
ATOM     27  C   UNL     1       1.792  17.703  17.227  0.00  0.00    +0.000 A 
ATOM     28  C   UNL     1       0.892  18.620  16.684  0.00  0.00    +0.000 A 
ATOM     29  C   UNL     1      -0.441  18.598  17.083  0.00  0.00    +0.000 A 
ATOM     30  C   UNL     1      -0.859  17.663  18.027  0.00  0.00    +0.000 A 
ATOM     31  F   UNL     1      -2.154  17.644  18.373  0.00  0.00    +0.000 F 
ENDBRANCH  21  25
ENDBRANCH  17  24
ENDBRANCH   1  17
TORSDOF 5
ENDMDL
MODEL 6
REMARK VINA RESULT:      -7.9      4.251     10.213
REMARK  Name = 
REMARK  5 active torsions:
REMARK  status: ('A' for Active; 'I' for Inactive)
REMARK    1  A    between atoms: C_4  and  C_5
REMARK    2  A    between atoms: N_14  and  C_15
REMARK    3  A    between atoms: C_15  and  N_16
REMARK    4  A    between atoms: N_19  and  C_20
REMARK    5  A    between atoms: C_24  and  C_25
REMARK                            x       y       z     vdW  Elec       q    Type
REMARK                         _______ _______ _______ _____ _____    ______ ____
ROOT
ATOM      1  N   UNL     1       0.240  10.763  19.750  0.00  0.00    +0.000 NA
ATOM      2  C   UNL     1       0.182  10.127  18.423  0.00  0.00    +0.000 C 
ATOM      3  C   UNL     1       1.390   9.247  18.047  0.00  0.00    +0.000 C 
ATOM      4  N   UNL     1       1.680   8.222  19.064  0.00  0.00    +0.000 N 
ATOM      5  C   UNL     1       1.467   8.580  20.483  0.00  0.00    +0.000 C 
ATOM      6  C   UNL     1       0.399   9.681  20.739  0.00  0.00    +0.000 C 
ENDROOT
BRANCH   4   7
ATOM      7  C   UNL     1       2.537   7.162  18.738  0.00  0.00    +0.000 A 
ATOM      8  C   UNL     1       2.448   5.916  19.381  0.00  0.00    +0.000 A 
ATOM      9  C   UNL     1       3.206   4.807  18.986  0.00  0.00    +0.000 A 
ATOM     10  C   UNL     1       4.108   4.914  17.933  0.00  0.00    +0.000 A 
ATOM     11  C   UNL     1       4.271   6.143  17.288  0.00  0.00    +0.000 A 
ATOM     12  C   UNL     1       3.488   7.244  17.701  0.00  0.00    +0.000 A 
BRANCH  11  13
ATOM     13  C   UNL     1       5.256   6.288  16.150  0.00  0.00    +0.000 C 
ATOM     14  F   UNL     1       6.449   6.836  16.514  0.00  0.00    +0.000 F 
ATOM     15  F   UNL     1       5.551   5.094  15.563  0.00  0.00    +0.000 F 
ATOM     16  F   UNL     1       4.770   7.081  15.149  0.00  0.00    +0.000 F 
ENDBRANCH  11  13
ENDBRANCH   4   7
BRANCH   1  17
ATOM     17  C   UNL     1       1.266  11.812  19.889  0.00  0.00    +0.000 C 
BRANCH  17  24
ATOM     18  O   UNL     1       0.297  13.147  22.294  0.00  0.00    +0.000 OA
ATOM     19  C   UNL     1       0.290  13.676  21.193  0.00  0.00    +0.000 C 
ATOM     20  C   UNL     1      -0.050  15.111  20.942  0.00  0.00    +0.000 C 
ATOM     21  C   UNL     1      -0.516  15.092  19.491  0.00  0.00    +0.000 C 
ATOM     22  C   UNL     1       0.026  13.772  18.970  0.00  0.00    +0.000 C 
ATOM     23  O   UNL     1      -0.150  13.357  17.829  0.00  0.00    +0.000 OA
ATOM     24  N   UNL     1       0.615  13.096  20.004  0.00  0.00    +0.000 N 
BRANCH  21  25
ATOM     25  C   UNL     1      -0.068  16.299  18.700  0.00  0.00    +0.000 A 
ATOM     26  C   UNL     1      -0.997  17.240  18.231  0.00  0.00    +0.000 A 
ATOM     27  C   UNL     1      -0.571  18.349  17.495  0.00  0.00    +0.000 A 
ATOM     28  C   UNL     1       0.784  18.534  17.217  0.00  0.00    +0.000 A 
ATOM     29  C   UNL     1       1.716  17.614  17.686  0.00  0.00    +0.000 A 
ATOM     30  C   UNL     1       1.284  16.514  18.424  0.00  0.00    +0.000 A 
ATOM     31  F   UNL     1       2.205  15.658  18.889  0.00  0.00    +0.000 F 
ENDBRANCH  21  25
ENDBRANCH  17  24
ENDBRANCH   1  17
TORSDOF 5
ENDMDL
MODEL 7
REMARK VINA RESULT:      -7.9      4.980     11.354
REMARK  Name = 
REMARK  5 active torsions:
REMARK  status: ('A' for Active; 'I' for Inactive)
REMARK    1  A    between atoms: C_4  and  C_5
REMARK    2  A    between atoms: N_14  and  C_15
REMARK    3  A    between atoms: C_15  and  N_16
REMARK    4  A    between atoms: N_19  and  C_20
REMARK    5  A    between atoms: C_24  and  C_25
REMARK                            x       y       z     vdW  Elec       q    Type
REMARK                         _______ _______ _______ _____ _____    ______ ____
ROOT
ATOM      1  N   UNL     1       0.619  10.802  20.185  0.00  0.00    +0.000 NA
ATOM      2  C   UNL     1       1.152   9.919  21.237  0.00  0.00    +0.000 C 
ATOM      3  C   UNL     1       1.204   8.418  20.891  0.00  0.00    +0.000 C 
ATOM      4  N   UNL     1       1.917   8.154  19.630  0.00  0.00    +0.000 N 
ATOM      5  C   UNL     1       1.768   9.137  18.535  0.00  0.00    +0.000 C 
ATOM      6  C   UNL     1       1.450  10.592  18.986  0.00  0.00    +0.000 C 
ENDROOT
BRANCH   4   7
ATOM      7  C   UNL     1       2.315   6.843  19.333  0.00  0.00    +0.000 A 
ATOM      8  C   UNL     1       3.094   6.546  18.203  0.00  0.00    +0.000 A 
ATOM      9  C   UNL     1       3.608   5.267  17.956  0.00  0.00    +0.000 A 
ATOM     10  C   UNL     1       3.339   4.222  18.834  0.00  0.00    +0.000 A 
ATOM     11  C   UNL     1       2.531   4.452  19.950  0.00  0.00    +0.000 A 
ATOM     12  C   UNL     1       2.031   5.752  20.180  0.00  0.00    +0.000 A 
BRANCH  11  13
ATOM     13  C   UNL     1       2.212   3.328  20.911  0.00  0.00    +0.000 C 
ATOM     14  F   UNL     1       2.959   2.205  20.721  0.00  0.00    +0.000 F 
ATOM     15  F   UNL     1       2.397   3.690  22.212  0.00  0.00    +0.000 F 
ATOM     16  F   UNL     1       0.908   2.931  20.820  0.00  0.00    +0.000 F 
ENDBRANCH  11  13
ENDBRANCH   4   7
BRANCH   1  17
ATOM     17  C   UNL     1      -0.820  10.638  19.911  0.00  0.00    +0.000 C 
BRANCH  17  24
ATOM     18  O   UNL     1      -1.024  13.353  18.866  0.00  0.00    +0.000 OA
ATOM     19  C   UNL     1      -1.651  12.969  19.842  0.00  0.00    +0.000 C 
ATOM     20  C   UNL     1      -2.717  13.759  20.532  0.00  0.00    +0.000 C 
ATOM     21  C   UNL     1      -2.705  13.173  21.939  0.00  0.00    +0.000 C 
ATOM     22  C   UNL     1      -1.971  11.855  21.759  0.00  0.00    +0.000 C 
ATOM     23  O   UNL     1      -1.726  11.073  22.672  0.00  0.00    +0.000 OA
ATOM     24  N   UNL     1      -1.536  11.763  20.465  0.00  0.00    +0.000 N 
BRANCH  21  25
ATOM     25  C   UNL     1      -4.082  13.035  22.544  0.00  0.00    +0.000 A 
ATOM     26  C   UNL     1      -5.219  12.916  21.730  0.00  0.00    +0.000 A 
ATOM     27  C   UNL     1      -6.489  12.796  22.300  0.00  0.00    +0.000 A 
ATOM     28  C   UNL     1      -6.643  12.794  23.687  0.00  0.00    +0.000 A 
ATOM     29  C   UNL     1      -5.523  12.900  24.506  0.00  0.00    +0.000 A 
ATOM     30  C   UNL     1      -4.259  13.013  23.929  0.00  0.00    +0.000 A 
ATOM     31  F   UNL     1      -3.194  13.085  24.740  0.00  0.00    +0.000 F 
ENDBRANCH  21  25
ENDBRANCH  17  24
ENDBRANCH   1  17
TORSDOF 5
ENDMDL
MODEL 8
REMARK VINA RESULT:      -7.8      3.806     11.149
REMARK  Name = 
REMARK  5 active torsions:
REMARK  status: ('A' for Active; 'I' for Inactive)
REMARK    1  A    between atoms: C_4  and  C_5
REMARK    2  A    between atoms: N_14  and  C_15
REMARK    3  A    between atoms: C_15  and  N_16
REMARK    4  A    between atoms: N_19  and  C_20
REMARK    5  A    between atoms: C_24  and  C_25
REMARK                            x       y       z     vdW  Elec       q    Type
REMARK                         _______ _______ _______ _____ _____    ______ ____
ROOT
ATOM      1  N   UNL     1       0.911  10.198  20.023  0.00  0.00    +0.000 NA
ATOM      2  C   UNL     1       1.535   9.208  20.918  0.00  0.00    +0.000 C 
ATOM      3  C   UNL     1       1.618   7.769  20.374  0.00  0.00    +0.000 C 
ATOM      4  N   UNL     1       2.264   7.702  19.052  0.00  0.00    +0.000 N 
ATOM      5  C   UNL     1       2.017   8.813  18.107  0.00  0.00    +0.000 C 
ATOM      6  C   UNL     1       1.677  10.182  18.764  0.00  0.00    +0.000 C 
ENDROOT
BRANCH   4   7
ATOM      7  C   UNL     1       2.689   6.459  18.563  0.00  0.00    +0.000 A 
ATOM      8  C   UNL     1       2.028   5.267  18.902  0.00  0.00    +0.000 A 
ATOM      9  C   UNL     1       2.356   4.033  18.328  0.00  0.00    +0.000 A 
ATOM     10  C   UNL     1       3.385   3.945  17.396  0.00  0.00    +0.000 A 
ATOM     11  C   UNL     1       4.106   5.092  17.057  0.00  0.00    +0.000 A 
ATOM     12  C   UNL     1       3.751   6.326  17.644  0.00  0.00    +0.000 A 
BRANCH  11  13
ATOM     13  C   UNL     1       5.239   5.019  16.057  0.00  0.00    +0.000 C 
ATOM     14  F   UNL     1       5.467   6.184  15.389  0.00  0.00    +0.000 F 
ATOM     15  F   UNL     1       6.423   4.677  16.639  0.00  0.00    +0.000 F 
ATOM     16  F   UNL     1       5.014   4.074  15.095  0.00  0.00    +0.000 F 
ENDBRANCH  11  13
ENDBRANCH   4   7
BRANCH   1  17
ATOM     17  C   UNL     1      -0.535  10.012  19.808  0.00  0.00    +0.000 C 
BRANCH  17  24
ATOM     18  O   UNL     1      -0.991  12.379  18.166  0.00  0.00    +0.000 OA
ATOM     19  C   UNL     1      -1.471  12.242  19.280  0.00  0.00    +0.000 C 
ATOM     20  C   UNL     1      -2.476  13.166  19.892  0.00  0.00    +0.000 C 
ATOM     21  C   UNL     1      -2.259  12.950  21.386  0.00  0.00    +0.000 C 
ATOM     22  C   UNL     1      -1.496  11.637  21.438  0.00  0.00    +0.000 C 
ATOM     23  O   UNL     1      -1.103  11.111  22.473  0.00  0.00    +0.000 OA
ATOM     24  N   UNL     1      -1.225  11.231  20.160  0.00  0.00    +0.000 N 
BRANCH  21  25
ATOM     25  C   UNL     1      -3.541  12.951  22.184  0.00  0.00    +0.000 A 
ATOM     26  C   UNL     1      -4.776  12.698  21.567  0.00  0.00    +0.000 A 
ATOM     27  C   UNL     1      -5.957  12.708  22.314  0.00  0.00    +0.000 A 
ATOM     28  C   UNL     1      -5.922  12.971  23.684  0.00  0.00    +0.000 A 
ATOM     29  C   UNL     1      -4.704  13.212  24.311  0.00  0.00    +0.000 A 
ATOM     30  C   UNL     1      -3.530  13.194  23.559  0.00  0.00    +0.000 A 
ATOM     31  F   UNL     1      -2.367  13.400  24.192  0.00  0.00    +0.000 F 
ENDBRANCH  21  25
ENDBRANCH  17  24
ENDBRANCH   1  17
TORSDOF 5
ENDMDL
MODEL 9
REMARK VINA RESULT:      -7.8      3.802     11.038
REMARK  Name = 
REMARK  5 active torsions:
REMARK  status: ('A' for Active; 'I' for Inactive)
REMARK    1  A    between atoms: C_4  and  C_5
REMARK    2  A    between atoms: N_14  and  C_15
REMARK    3  A    between atoms: C_15  and  N_16
REMARK    4  A    between atoms: N_19  and  C_20
REMARK    5  A    between atoms: C_24  and  C_25
REMARK                            x       y       z     vdW  Elec       q    Type
REMARK                         _______ _______ _______ _____ _____    ______ ____
ROOT
ATOM      1  N   UNL     1       0.157  10.197  19.979  0.00  0.00    +0.000 NA
ATOM      2  C   UNL     1       0.413   9.806  18.582  0.00  0.00    +0.000 C 
ATOM      3  C   UNL     1       1.746   9.078  18.322  0.00  0.00    +0.000 C 
ATOM      4  N   UNL     1       1.928   7.905  19.195  0.00  0.00    +0.000 N 
ATOM      5  C   UNL     1       1.415   7.991  20.580  0.00  0.00    +0.000 C 
ATOM      6  C   UNL     1       0.222   8.966  20.789  0.00  0.00    +0.000 C 
ENDROOT
BRANCH   4   7
ATOM      7  C   UNL     1       2.925   6.971  18.882  0.00  0.00    +0.000 A 
ATOM      8  C   UNL     1       3.217   5.890  19.731  0.00  0.00    +0.000 A 
ATOM      9  C   UNL     1       4.117   4.877  19.379  0.00  0.00    +0.000 A 
ATOM     10  C   UNL     1       4.782   4.922  18.159  0.00  0.00    +0.000 A 
ATOM     11  C   UNL     1       4.563   5.999  17.296  0.00  0.00    +0.000 A 
ATOM     12  C   UNL     1       3.644   7.004  17.670  0.00  0.00    +0.000 A 
BRANCH  11  13
ATOM     13  C   UNL     1       5.285   6.078  15.968  0.00  0.00    +0.000 C 
ATOM     14  F   UNL     1       4.880   7.108  15.176  0.00  0.00    +0.000 F 
ATOM     15  F   UNL     1       6.632   6.223  16.119  0.00  0.00    +0.000 F 
ATOM     16  F   UNL     1       5.116   4.944  15.225  0.00  0.00    +0.000 F 
ENDBRANCH  11  13
ENDBRANCH   4   7
BRANCH   1  17
ATOM     17  C   UNL     1       1.037  11.260  20.495  0.00  0.00    +0.000 C 
BRANCH  17  24
ATOM     18  O   UNL     1       1.077  14.025  19.566  0.00  0.00    +0.000 OA
ATOM     19  C   UNL     1       0.255  13.605  20.365  0.00  0.00    +0.000 C 
ATOM     20  C   UNL     1      -0.930  14.379  20.851  0.00  0.00    +0.000 C 
ATOM     21  C   UNL     1      -1.221  13.728  22.199  0.00  0.00    +0.000 C 
ATOM     22  C   UNL     1      -0.474  12.408  22.114  0.00  0.00    +0.000 C 
ATOM     23  O   UNL     1      -0.434  11.580  23.018  0.00  0.00    +0.000 OA
ATOM     24  N   UNL     1       0.226  12.370  20.939  0.00  0.00    +0.000 N 
BRANCH  21  25
ATOM     25  C   UNL     1      -2.697  13.585  22.489  0.00  0.00    +0.000 A 
ATOM     26  C   UNL     1      -3.584  13.125  21.505  0.00  0.00    +0.000 A 
ATOM     27  C   UNL     1      -4.949  13.003  21.783  0.00  0.00    +0.000 A 
ATOM     28  C   UNL     1      -5.445  13.338  23.043  0.00  0.00    +0.000 A 
ATOM     29  C   UNL     1      -4.573  13.785  24.031  0.00  0.00    +0.000 A 
ATOM     30  C   UNL     1      -3.214  13.898  23.748  0.00  0.00    +0.000 A 
ATOM     31  F   UNL     1      -2.392  14.303  24.726  0.00  0.00    +0.000 F 
ENDBRANCH  21  25
ENDBRANCH  17  24
ENDBRANCH   1  17
TORSDOF 5
ENDMDL
