MODEL 1
REMARK VINA RESULT:      -9.2      0.000      0.000
REMARK  Name = 
REMARK  4 active torsions:
REMARK  status: ('A' for Active; 'I' for Inactive)
REMARK    1  A    between atoms: C_1  and  C_2
REMARK    2  A    between atoms: C_5  and  C_6
REMARK    3  A    between atoms: C_7  and  C_8
REMARK    4  A    between atoms: C_8  and  N_9
REMARK                            x       y       z     vdW  Elec       q    Type
REMARK                         _______ _______ _______ _____ _____    ______ ____
ROOT
ATOM      1  N   UNL     1       4.719   4.199  18.350  0.00  0.00    +0.000 N 
ATOM      2  C   UNL     1       4.070   3.460  19.335  0.00  0.00    +0.000 C 
ATOM      3  O   UNL     1       4.628   2.985  20.319  0.00  0.00    +0.000 OA
ATOM      4  C   UNL     1       2.565   3.386  19.157  0.00  0.00    +0.000 C 
ATOM      5  C   UNL     1       2.151   3.061  17.717  0.00  0.00    +0.000 C 
ATOM      6  C   UNL     1       3.014   3.748  16.670  0.00  0.00    +0.000 C 
ATOM      7  C   UNL     1       3.909   4.817  17.297  0.00  0.00    +0.000 C 
ATOM      8  C   UNL     1       3.057   6.014  17.782  0.00  0.00    +0.000 C 
ATOM      9  N   UNL     1       2.594   5.922  19.173  0.00  0.00    +0.000 N 
ATOM     10  C   UNL     1       2.086   7.086  19.660  0.00  0.00    +0.000 A 
ATOM     11  N   UNL     1       1.884   8.211  19.004  0.00  0.00    +0.000 NA
ATOM     12  C   UNL     1       1.326   9.039  19.936  0.00  0.00    +0.000 A 
ATOM     13  C   UNL     1       0.850  10.351  19.828  0.00  0.00    +0.000 A 
ATOM     14  C   UNL     1       0.328  10.958  20.977  0.00  0.00    +0.000 A 
ATOM     15  C   UNL     1       0.293  10.278  22.203  0.00  0.00    +0.000 A 
ATOM     16  C   UNL     1       0.759   8.963  22.324  0.00  0.00    +0.000 A 
ATOM     17  C   UNL     1       1.252   8.391  21.157  0.00  0.00    +0.000 A 
ATOM     18  O   UNL     1       1.730   7.126  20.983  0.00  0.00    +0.000 OA
ATOM     19  C   UNL     1       1.954   4.695  19.665  0.00  0.00    +0.000 C 
ENDROOT
BRANCH   1  20
ATOM     20  C   UNL     1       6.076   4.667  18.594  0.00  0.00    +0.000 C 
BRANCH  20  27
ATOM     21  C   UNL     1       6.209   3.312  15.636  0.00  0.00    +0.000 C 
ATOM     22  C   UNL     1       6.743   4.626  16.068  0.00  0.00    +0.000 A 
ATOM     23  N   UNL     1       7.404   5.393  15.193  0.00  0.00    +0.000 NA
ATOM     24  O   UNL     1       7.772   6.523  15.889  0.00  0.00    +0.000 OA
ATOM     25  C   UNL     1       7.349   6.428  17.176  0.00  0.00    +0.000 A 
ATOM     26  C   UNL     1       7.692   7.568  18.043  0.00  0.00    +0.000 C 
ATOM     27  C   UNL     1       6.679   5.233  17.358  0.00  0.00    +0.000 A 
ENDBRANCH  20  27
ENDBRANCH   1  20
TORSDOF 2
ENDMDL
MODEL 2
REMARK VINA RESULT:      -9.0      0.381      1.561
REMARK  Name = 
REMARK  4 active torsions:
REMARK  status: ('A' for Active; 'I' for Inactive)
REMARK    1  A    between atoms: C_1  and  C_2
REMARK    2  A    between atoms: C_5  and  C_6
REMARK    3  A    between atoms: C_7  and  C_8
REMARK    4  A    between atoms: C_8  and  N_9
REMARK                            x       y       z     vdW  Elec       q    Type
REMARK                         _______ _______ _______ _____ _____    ______ ____
ROOT
ATOM      1  N   UNL     1       4.708   4.221  18.409  0.00  0.00    +0.000 N 
ATOM      2  C   UNL     1       4.065   3.482  19.398  0.00  0.00    +0.000 C 
ATOM      3  O   UNL     1       4.628   3.016  20.383  0.00  0.00    +0.000 OA
ATOM      4  C   UNL     1       2.560   3.396  19.222  0.00  0.00    +0.000 C 
ATOM      5  C   UNL     1       2.147   3.061  17.785  0.00  0.00    +0.000 C 
ATOM      6  C   UNL     1       3.003   3.750  16.733  0.00  0.00    +0.000 C 
ATOM      7  C   UNL     1       3.891   4.828  17.354  0.00  0.00    +0.000 C 
ATOM      8  C   UNL     1       3.031   6.021  17.834  0.00  0.00    +0.000 C 
ATOM      9  N   UNL     1       2.571   5.932  19.227  0.00  0.00    +0.000 N 
ATOM     10  C   UNL     1       2.056   7.095  19.709  0.00  0.00    +0.000 A 
ATOM     11  N   UNL     1       1.845   8.215  19.048  0.00  0.00    +0.000 NA
ATOM     12  C   UNL     1       1.282   9.043  19.977  0.00  0.00    +0.000 A 
ATOM     13  C   UNL     1       0.796  10.352  19.863  0.00  0.00    +0.000 A 
ATOM     14  C   UNL     1       0.272  10.961  21.010  0.00  0.00    +0.000 A 
ATOM     15  C   UNL     1       0.243  10.286  22.239  0.00  0.00    +0.000 A 
ATOM     16  C   UNL     1       0.719   8.975  22.366  0.00  0.00    +0.000 A 
ATOM     17  C   UNL     1       1.215   8.402  21.201  0.00  0.00    +0.000 A 
ATOM     18  O   UNL     1       1.701   7.139  21.032  0.00  0.00    +0.000 OA
ATOM     19  C   UNL     1       1.940   4.703  19.726  0.00  0.00    +0.000 C 
ENDROOT
BRANCH   1  20
ATOM     20  C   UNL     1       6.061   4.699  18.647  0.00  0.00    +0.000 C 
BRANCH  20  27
ATOM     21  C   UNL     1       7.685   7.482  18.178  0.00  0.00    +0.000 C 
ATOM     22  C   UNL     1       7.388   6.416  17.192  0.00  0.00    +0.000 A 
ATOM     23  N   UNL     1       7.778   6.561  15.920  0.00  0.00    +0.000 NA
ATOM     24  O   UNL     1       7.355   5.426  15.266  0.00  0.00    +0.000 OA
ATOM     25  C   UNL     1       6.701   4.612  16.135  0.00  0.00    +0.000 A 
ATOM     26  C   UNL     1       6.178   3.361  15.561  0.00  0.00    +0.000 C 
ATOM     27  C   UNL     1       6.688   5.188  17.390  0.00  0.00    +0.000 A 
ENDBRANCH  20  27
ENDBRANCH   1  20
TORSDOF 2
ENDMDL
MODEL 3
REMARK VINA RESULT:      -9.0      1.795      4.385
REMARK  Name = 
REMARK  4 active torsions:
REMARK  status: ('A' for Active; 'I' for Inactive)
REMARK    1  A    between atoms: C_1  and  C_2
REMARK    2  A    between atoms: C_5  and  C_6
REMARK    3  A    between atoms: C_7  and  C_8
REMARK    4  A    between atoms: C_8  and  N_9
REMARK                            x       y       z     vdW  Elec       q    Type
REMARK                         _______ _______ _______ _____ _____    ______ ____
ROOT
ATOM      1  N   UNL     1       5.165   4.131  17.462  0.00  0.00    +0.000 N 
ATOM      2  C   UNL     1       5.350   4.901  16.317  0.00  0.00    +0.000 C 
ATOM      3  O   UNL     1       4.994   4.560  15.194  0.00  0.00    +0.000 OA
ATOM      4  C   UNL     1       5.933   6.276  16.588  0.00  0.00    +0.000 C 
ATOM      5  C   UNL     1       7.126   6.239  17.549  0.00  0.00    +0.000 C 
ATOM      6  C   UNL     1       6.956   5.241  18.685  0.00  0.00    +0.000 C 
ATOM      7  C   UNL     1       5.523   4.715  18.758  0.00  0.00    +0.000 C 
ATOM      8  C   UNL     1       4.564   5.835  19.227  0.00  0.00    +0.000 C 
ATOM      9  N   UNL     1       3.965   6.632  18.148  0.00  0.00    +0.000 N 
ATOM     10  C   UNL     1       2.933   7.419  18.555  0.00  0.00    +0.000 A 
ATOM     11  N   UNL     1       2.502   7.605  19.785  0.00  0.00    +0.000 NA
ATOM     12  C   UNL     1       1.487   8.508  19.645  0.00  0.00    +0.000 A 
ATOM     13  C   UNL     1       0.674   9.129  20.601  0.00  0.00    +0.000 A 
ATOM     14  C   UNL     1      -0.307  10.022  20.150  0.00  0.00    +0.000 A 
ATOM     15  C   UNL     1      -0.478  10.280  18.783  0.00  0.00    +0.000 A 
ATOM     16  C   UNL     1       0.333   9.671  17.815  0.00  0.00    +0.000 A 
ATOM     17  C   UNL     1       1.304   8.806  18.306  0.00  0.00    +0.000 A 
ATOM     18  O   UNL     1       2.243   8.116  17.597  0.00  0.00    +0.000 OA
ATOM     19  C   UNL     1       4.806   7.189  17.080  0.00  0.00    +0.000 C 
ENDROOT
BRANCH   1  20
ATOM     20  C   UNL     1       4.285   2.974  17.404  0.00  0.00    +0.000 C 
BRANCH  20  27
ATOM     21  C   UNL     1       1.301   4.264  17.591  0.00  0.00    +0.000 C 
ATOM     22  C   UNL     1       2.050   3.529  18.639  0.00  0.00    +0.000 A 
ATOM     23  N   UNL     1       1.507   3.364  19.850  0.00  0.00    +0.000 NA
ATOM     24  O   UNL     1       2.435   2.660  20.585  0.00  0.00    +0.000 OA
ATOM     25  C   UNL     1       3.534   2.419  19.825  0.00  0.00    +0.000 A 
ATOM     26  C   UNL     1       4.621   1.684  20.496  0.00  0.00    +0.000 C 
ATOM     27  C   UNL     1       3.352   2.949  18.563  0.00  0.00    +0.000 A 
ENDBRANCH  20  27
ENDBRANCH   1  20
TORSDOF 2
ENDMDL
MODEL 4
REMARK VINA RESULT:      -9.0      1.902      4.405
REMARK  Name = 
REMARK  4 active torsions:
REMARK  status: ('A' for Active; 'I' for Inactive)
REMARK    1  A    between atoms: C_1  and  C_2
REMARK    2  A    between atoms: C_5  and  C_6
REMARK    3  A    between atoms: C_7  and  C_8
REMARK    4  A    between atoms: C_8  and  N_9
REMARK                            x       y       z     vdW  Elec       q    Type
REMARK                         _______ _______ _______ _____ _____    ______ ____
ROOT
ATOM      1  N   UNL     1       5.205   4.126  17.475  0.00  0.00    +0.000 N 
ATOM      2  C   UNL     1       5.373   4.881  16.317  0.00  0.00    +0.000 C 
ATOM      3  O   UNL     1       5.009   4.521  15.202  0.00  0.00    +0.000 OA
ATOM      4  C   UNL     1       5.947   6.264  16.562  0.00  0.00    +0.000 C 
ATOM      5  C   UNL     1       7.149   6.250  17.513  0.00  0.00    +0.000 C 
ATOM      6  C   UNL     1       6.998   5.268  18.664  0.00  0.00    +0.000 C 
ATOM      7  C   UNL     1       5.569   4.732  18.759  0.00  0.00    +0.000 C 
ATOM      8  C   UNL     1       4.606   5.851  19.220  0.00  0.00    +0.000 C 
ATOM      9  N   UNL     1       3.991   6.627  18.135  0.00  0.00    +0.000 N 
ATOM     10  C   UNL     1       2.957   7.412  18.540  0.00  0.00    +0.000 A 
ATOM     11  N   UNL     1       2.535   7.613  19.772  0.00  0.00    +0.000 NA
ATOM     12  C   UNL     1       1.512   8.506  19.628  0.00  0.00    +0.000 A 
ATOM     13  C   UNL     1       0.703   9.134  20.582  0.00  0.00    +0.000 A 
ATOM     14  C   UNL     1      -0.288  10.013  20.128  0.00  0.00    +0.000 A 
ATOM     15  C   UNL     1      -0.474  10.250  18.759  0.00  0.00    +0.000 A 
ATOM     16  C   UNL     1       0.333   9.634  17.793  0.00  0.00    +0.000 A 
ATOM     17  C   UNL     1       1.315   8.783  18.287  0.00  0.00    +0.000 A 
ATOM     18  O   UNL     1       2.253   8.090  17.579  0.00  0.00    +0.000 OA
ATOM     19  C   UNL     1       4.818   7.175  17.051  0.00  0.00    +0.000 C 
ENDROOT
BRANCH   1  20
ATOM     20  C   UNL     1       4.333   2.962  17.441  0.00  0.00    +0.000 C 
BRANCH  20  27
ATOM     21  C   UNL     1       4.588   1.714  20.438  0.00  0.00    +0.000 C 
ATOM     22  C   UNL     1       3.445   2.449  19.845  0.00  0.00    +0.000 A 
ATOM     23  N   UNL     1       2.331   2.633  20.562  0.00  0.00    +0.000 NA
ATOM     24  O   UNL     1       1.470   3.331  19.744  0.00  0.00    +0.000 OA
ATOM     25  C   UNL     1       2.057   3.550  18.540  0.00  0.00    +0.000 A 
ATOM     26  C   UNL     1       1.236   4.276  17.556  0.00  0.00    +0.000 C 
ATOM     27  C   UNL     1       3.328   3.010  18.538  0.00  0.00    +0.000 A 
ENDBRANCH  20  27
ENDBRANCH   1  20
TORSDOF 2
ENDMDL
MODEL 5
REMARK VINA RESULT:      -8.9      1.962      4.562
REMARK  Name = 
REMARK  4 active torsions:
REMARK  status: ('A' for Active; 'I' for Inactive)
REMARK    1  A    between atoms: C_1  and  C_2
REMARK    2  A    between atoms: C_5  and  C_6
REMARK    3  A    between atoms: C_7  and  C_8
REMARK    4  A    between atoms: C_8  and  N_9
REMARK                            x       y       z     vdW  Elec       q    Type
REMARK                         _______ _______ _______ _____ _____    ______ ____
ROOT
ATOM      1  N   UNL     1       4.381   4.064  18.186  0.00  0.00    +0.000 N 
ATOM      2  C   UNL     1       4.556   4.616  16.920  0.00  0.00    +0.000 C 
ATOM      3  O   UNL     1       4.126   4.117  15.886  0.00  0.00    +0.000 OA
ATOM      4  C   UNL     1       5.234   5.974  16.930  0.00  0.00    +0.000 C 
ATOM      5  C   UNL     1       6.467   6.018  17.838  0.00  0.00    +0.000 C 
ATOM      6  C   UNL     1       6.293   5.239  19.133  0.00  0.00    +0.000 C 
ATOM      7  C   UNL     1       4.836   4.831  19.349  0.00  0.00    +0.000 C 
ATOM      8  C   UNL     1       3.970   6.076  19.656  0.00  0.00    +0.000 C 
ATOM      9  N   UNL     1       3.369   6.719  18.480  0.00  0.00    +0.000 N 
ATOM     10  C   UNL     1       2.408   7.632  18.785  0.00  0.00    +0.000 A 
ATOM     11  N   UNL     1       2.048   8.050  19.981  0.00  0.00    +0.000 NA
ATOM     12  C   UNL     1       1.084   8.984  19.727  0.00  0.00    +0.000 A 
ATOM     13  C   UNL     1       0.358   9.810  20.593  0.00  0.00    +0.000 A 
ATOM     14  C   UNL     1      -0.588  10.679  20.034  0.00  0.00    +0.000 A 
ATOM     15  C   UNL     1      -0.809  10.715  18.650  0.00  0.00    +0.000 A 
ATOM     16  C   UNL     1      -0.084   9.899  17.771  0.00  0.00    +0.000 A 
ATOM     17  C   UNL     1       0.855   9.065  18.365  0.00  0.00    +0.000 A 
ATOM     18  O   UNL     1       1.715   8.203  17.749  0.00  0.00    +0.000 OA
ATOM     19  C   UNL     1       4.189   7.031  17.301  0.00  0.00    +0.000 C 
ENDROOT
BRANCH   1  20
ATOM     20  C   UNL     1       3.431   2.976  18.359  0.00  0.00    +0.000 C 
BRANCH  20  27
ATOM     21  C   UNL     1       0.827   4.035  20.002  0.00  0.00    +0.000 C 
ATOM     22  C   UNL     1       1.973   3.243  20.510  0.00  0.00    +0.000 A 
ATOM     23  N   UNL     1       2.027   2.913  21.805  0.00  0.00    +0.000 NA
ATOM     24  O   UNL     1       3.194   2.198  21.961  0.00  0.00    +0.000 OA
ATOM     25  C   UNL     1       3.843   2.114  20.771  0.00  0.00    +0.000 A 
ATOM     26  C   UNL     1       5.123   1.386  20.796  0.00  0.00    +0.000 C 
ATOM     27  C   UNL     1       3.111   2.764  19.796  0.00  0.00    +0.000 A 
ENDBRANCH  20  27
ENDBRANCH   1  20
TORSDOF 2
ENDMDL
MODEL 6
REMARK VINA RESULT:      -8.3      1.424      1.991
REMARK  Name = 
REMARK  4 active torsions:
REMARK  status: ('A' for Active; 'I' for Inactive)
REMARK    1  A    between atoms: C_1  and  C_2
REMARK    2  A    between atoms: C_5  and  C_6
REMARK    3  A    between atoms: C_7  and  C_8
REMARK    4  A    between atoms: C_8  and  N_9
REMARK                            x       y       z     vdW  Elec       q    Type
REMARK                         _______ _______ _______ _____ _____    ______ ____
ROOT
ATOM      1  N   UNL     1       4.131   5.421  18.449  0.00  0.00    +0.000 N 
ATOM      2  C   UNL     1       3.944   4.675  19.610  0.00  0.00    +0.000 C 
ATOM      3  O   UNL     1       4.826   4.446  20.430  0.00  0.00    +0.000 OA
ATOM      4  C   UNL     1       2.504   4.257  19.847  0.00  0.00    +0.000 C 
ATOM      5  C   UNL     1       1.834   3.690  18.591  0.00  0.00    +0.000 C 
ATOM      6  C   UNL     1       2.218   4.425  17.316  0.00  0.00    +0.000 C 
ATOM      7  C   UNL     1       2.960   5.726  17.622  0.00  0.00    +0.000 C 
ATOM      8  C   UNL     1       1.996   6.757  18.256  0.00  0.00    +0.000 C 
ATOM      9  N   UNL     1       1.931   6.725  19.723  0.00  0.00    +0.000 N 
ATOM     10  C   UNL     1       1.299   7.799  20.268  0.00  0.00    +0.000 A 
ATOM     11  N   UNL     1       0.678   8.772  19.633  0.00  0.00    +0.000 NA
ATOM     12  C   UNL     1       0.189   9.560  20.637  0.00  0.00    +0.000 A 
ATOM     13  C   UNL     1      -0.597  10.717  20.593  0.00  0.00    +0.000 A 
ATOM     14  C   UNL     1      -0.944  11.323  21.807  0.00  0.00    +0.000 A 
ATOM     15  C   UNL     1      -0.509  10.795  23.030  0.00  0.00    +0.000 A 
ATOM     16  C   UNL     1       0.272   9.633  23.090  0.00  0.00    +0.000 A 
ATOM     17  C   UNL     1       0.579   9.054  21.864  0.00  0.00    +0.000 A 
ATOM     18  O   UNL     1       1.286   7.910  21.634  0.00  0.00    +0.000 OA
ATOM     19  C   UNL     1       1.746   5.452  20.433  0.00  0.00    +0.000 C 
ENDROOT
BRANCH   1  20
ATOM     20  C   UNL     1       5.353   6.195  18.294  0.00  0.00    +0.000 C 
BRANCH  20  27
ATOM     21  C   UNL     1       8.128   5.453  19.827  0.00  0.00    +0.000 C 
ATOM     22  C   UNL     1       7.687   5.036  18.474  0.00  0.00    +0.000 A 
ATOM     23  N   UNL     1       8.495   4.285  17.716  0.00  0.00    +0.000 NA
ATOM     24  O   UNL     1       7.814   4.076  16.537  0.00  0.00    +0.000 OA
ATOM     25  C   UNL     1       6.615   4.710  16.581  0.00  0.00    +0.000 A 
ATOM     26  C   UNL     1       5.785   4.582  15.370  0.00  0.00    +0.000 C 
ATOM     27  C   UNL     1       6.469   5.345  17.799  0.00  0.00    +0.000 A 
ENDBRANCH  20  27
ENDBRANCH   1  20
TORSDOF 2
ENDMDL
MODEL 7
REMARK VINA RESULT:      -8.2      1.374      1.534
REMARK  Name = 
REMARK  4 active torsions:
REMARK  status: ('A' for Active; 'I' for Inactive)
REMARK    1  A    between atoms: C_1  and  C_2
REMARK    2  A    between atoms: C_5  and  C_6
REMARK    3  A    between atoms: C_7  and  C_8
REMARK    4  A    between atoms: C_8  and  N_9
REMARK                            x       y       z     vdW  Elec       q    Type
REMARK                         _______ _______ _______ _____ _____    ______ ____
ROOT
ATOM      1  N   UNL     1       4.157   5.556  18.394  0.00  0.00    +0.000 N 
ATOM      2  C   UNL     1       4.018   4.827  19.572  0.00  0.00    +0.000 C 
ATOM      3  O   UNL     1       4.925   4.639  20.375  0.00  0.00    +0.000 OA
ATOM      4  C   UNL     1       2.597   4.374  19.850  0.00  0.00    +0.000 C 
ATOM      5  C   UNL     1       1.915   3.764  18.620  0.00  0.00    +0.000 C 
ATOM      6  C   UNL     1       2.249   4.486  17.324  0.00  0.00    +0.000 C 
ATOM      7  C   UNL     1       2.960   5.813  17.589  0.00  0.00    +0.000 C 
ATOM      8  C   UNL     1       1.981   6.828  18.226  0.00  0.00    +0.000 C 
ATOM      9  N   UNL     1       1.951   6.821  19.695  0.00  0.00    +0.000 N 
ATOM     10  C   UNL     1       1.300   7.887  20.234  0.00  0.00    +0.000 A 
ATOM     11  N   UNL     1       0.637   8.830  19.597  0.00  0.00    +0.000 NA
ATOM     12  C   UNL     1       0.149   9.622  20.597  0.00  0.00    +0.000 A 
ATOM     13  C   UNL     1      -0.671  10.756  20.550  0.00  0.00    +0.000 A 
ATOM     14  C   UNL     1      -1.008  11.374  21.761  0.00  0.00    +0.000 A 
ATOM     15  C   UNL     1      -0.530  10.881  22.984  0.00  0.00    +0.000 A 
ATOM     16  C   UNL     1       0.285   9.744  23.046  0.00  0.00    +0.000 A 
ATOM     17  C   UNL     1       0.581   9.151  21.824  0.00  0.00    +0.000 A 
ATOM     18  O   UNL     1       1.314   8.023  21.598  0.00  0.00    +0.000 OA
ATOM     19  C   UNL     1       1.818   5.557  20.431  0.00  0.00    +0.000 C 
ENDROOT
BRANCH   1  20
ATOM     20  C   UNL     1       5.353   6.362  18.196  0.00  0.00    +0.000 C 
BRANCH  20  27
ATOM     21  C   UNL     1       5.549   5.152  15.180  0.00  0.00    +0.000 C 
ATOM     22  C   UNL     1       6.526   5.018  16.287  0.00  0.00    +0.000 A 
ATOM     23  N   UNL     1       7.637   4.295  16.107  0.00  0.00    +0.000 NA
ATOM     24  O   UNL     1       8.322   4.357  17.301  0.00  0.00    +0.000 OA
ATOM     25  C   UNL     1       7.619   5.098  18.195  0.00  0.00    +0.000 A 
ATOM     26  C   UNL     1       8.231   5.233  19.528  0.00  0.00    +0.000 C 
ATOM     27  C   UNL     1       6.455   5.554  17.608  0.00  0.00    +0.000 A 
ENDBRANCH  20  27
ENDBRANCH   1  20
TORSDOF 2
ENDMDL
MODEL 8
REMARK VINA RESULT:      -8.1      1.129      1.841
REMARK  Name = 
REMARK  4 active torsions:
REMARK  status: ('A' for Active; 'I' for Inactive)
REMARK    1  A    between atoms: C_1  and  C_2
REMARK    2  A    between atoms: C_5  and  C_6
REMARK    3  A    between atoms: C_7  and  C_8
REMARK    4  A    between atoms: C_8  and  N_9
REMARK                            x       y       z     vdW  Elec       q    Type
REMARK                         _______ _______ _______ _____ _____    ______ ____
ROOT
ATOM      1  N   UNL     1       4.395   3.610  18.264  0.00  0.00    +0.000 N 
ATOM      2  C   UNL     1       4.126   3.094  19.529  0.00  0.00    +0.000 C 
ATOM      3  O   UNL     1       4.984   2.867  20.375  0.00  0.00    +0.000 OA
ATOM      4  C   UNL     1       2.647   2.941  19.830  0.00  0.00    +0.000 C 
ATOM      5  C   UNL     1       1.869   2.290  18.680  0.00  0.00    +0.000 C 
ATOM      6  C   UNL     1       2.328   2.748  17.305  0.00  0.00    +0.000 C 
ATOM      7  C   UNL     1       3.263   3.954  17.399  0.00  0.00    +0.000 C 
ATOM      8  C   UNL     1       2.478   5.205  17.860  0.00  0.00    +0.000 C 
ATOM      9  N   UNL     1       2.445   5.416  19.313  0.00  0.00    +0.000 N 
ATOM     10  C   UNL     1       1.993   6.645  19.679  0.00  0.00    +0.000 A 
ATOM     11  N   UNL     1       1.508   7.588  18.897  0.00  0.00    +0.000 NA
ATOM     12  C   UNL     1       1.167   8.589  19.762  0.00  0.00    +0.000 A 
ATOM     13  C   UNL     1       0.560   9.830  19.533  0.00  0.00    +0.000 A 
ATOM     14  C   UNL     1       0.337  10.666  20.635  0.00  0.00    +0.000 A 
ATOM     15  C   UNL     1       0.717  10.277  21.927  0.00  0.00    +0.000 A 
ATOM     16  C   UNL     1       1.319   9.036  22.172  0.00  0.00    +0.000 A 
ATOM     17  C   UNL     1       1.506   8.231  21.054  0.00  0.00    +0.000 A 
ATOM     18  O   UNL     1       2.029   6.972  21.010  0.00  0.00    +0.000 OA
ATOM     19  C   UNL     1       2.089   4.314  20.217  0.00  0.00    +0.000 C 
ENDROOT
BRANCH   1  20
ATOM     20  C   UNL     1       5.714   4.157  17.987  0.00  0.00    +0.000 C 
BRANCH  20  27
ATOM     21  C   UNL     1       5.209   7.372  17.891  0.00  0.00    +0.000 C 
ATOM     22  C   UNL     1       5.455   6.448  16.758  0.00  0.00    +0.000 A 
ATOM     23  N   UNL     1       5.451   6.919  15.506  0.00  0.00    +0.000 NA
ATOM     24  O   UNL     1       5.698   5.832  14.696  0.00  0.00    +0.000 OA
ATOM     25  C   UNL     1       5.833   4.715  15.456  0.00  0.00    +0.000 A 
ATOM     26  C   UNL     1       6.086   3.469  14.712  0.00  0.00    +0.000 C 
ATOM     27  C   UNL     1       5.690   5.041  16.790  0.00  0.00    +0.000 A 
ENDBRANCH  20  27
ENDBRANCH   1  20
TORSDOF 2
ENDMDL
MODEL 9
REMARK VINA RESULT:      -7.7      3.009      6.681
REMARK  Name = 
REMARK  4 active torsions:
REMARK  status: ('A' for Active; 'I' for Inactive)
REMARK    1  A    between atoms: C_1  and  C_2
REMARK    2  A    between atoms: C_5  and  C_6
REMARK    3  A    between atoms: C_7  and  C_8
REMARK    4  A    between atoms: C_8  and  N_9
REMARK                            x       y       z     vdW  Elec       q    Type
REMARK                         _______ _______ _______ _____ _____    ______ ____
ROOT
ATOM      1  N   UNL     1       5.576   5.564  18.477  0.00  0.00    +0.000 N 
ATOM      2  C   UNL     1       5.190   6.019  17.219  0.00  0.00    +0.000 C 
ATOM      3  O   UNL     1       4.057   6.399  16.943  0.00  0.00    +0.000 OA
ATOM      4  C   UNL     1       6.332   6.123  16.225  0.00  0.00    +0.000 C 
ATOM      5  C   UNL     1       7.234   4.884  16.222  0.00  0.00    +0.000 C 
ATOM      6  C   UNL     1       7.476   4.310  17.610  0.00  0.00    +0.000 C 
ATOM      7  C   UNL     1       6.993   5.263  18.702  0.00  0.00    +0.000 C 
ATOM      8  C   UNL     1       7.899   6.516  18.760  0.00  0.00    +0.000 C 
ATOM      9  N   UNL     1       7.462   7.637  17.917  0.00  0.00    +0.000 N 
ATOM     10  C   UNL     1       8.104   8.806  18.183  0.00  0.00    +0.000 A 
ATOM     11  N   UNL     1       9.106   9.001  19.015  0.00  0.00    +0.000 NA
ATOM     12  C   UNL     1       9.399  10.327  18.874  0.00  0.00    +0.000 A 
ATOM     13  C   UNL     1      10.397  11.114  19.461  0.00  0.00    +0.000 A 
ATOM     14  C   UNL     1      10.448  12.472  19.124  0.00  0.00    +0.000 A 
ATOM     15  C   UNL     1       9.522  13.032  18.233  0.00  0.00    +0.000 A 
ATOM     16  C   UNL     1       8.521  12.257  17.633  0.00  0.00    +0.000 A 
ATOM     17  C   UNL     1       8.517  10.911  17.981  0.00  0.00    +0.000 A 
ATOM     18  O   UNL     1       7.686   9.932  17.522  0.00  0.00    +0.000 OA
ATOM     19  C   UNL     1       7.103   7.415  16.510  0.00  0.00    +0.000 C 
ENDROOT
BRANCH   1  20
ATOM     20  C   UNL     1       4.688   5.773  19.610  0.00  0.00    +0.000 C 
BRANCH  20  27
ATOM     21  C   UNL     1       1.639   6.489  20.500  0.00  0.00    +0.000 C 
ATOM     22  C   UNL     1       2.152   5.224  19.920  0.00  0.00    +0.000 A 
ATOM     23  N   UNL     1       1.322   4.191  19.742  0.00  0.00    +0.000 NA
ATOM     24  O   UNL     1       2.089   3.182  19.203  0.00  0.00    +0.000 OA
ATOM     25  C   UNL     1       3.374   3.601  19.075  0.00  0.00    +0.000 A 
ATOM     26  C   UNL     1       4.312   2.609  18.523  0.00  0.00    +0.000 C 
ATOM     27  C   UNL     1       3.483   4.905  19.516  0.00  0.00    +0.000 A 
ENDBRANCH  20  27
ENDBRANCH   1  20
TORSDOF 2
ENDMDL
