MODEL 1
REMARK VINA RESULT:      -8.5      0.000      0.000
REMARK  Name = 
REMARK  4 active torsions:
REMARK  status: ('A' for Active; 'I' for Inactive)
REMARK    1  A    between atoms: C_13  and  C_14
REMARK    2  A    between atoms: C_13  and  C_21
REMARK    3  A    between atoms: C_14  and  C_15
REMARK    4  A    between atoms: C_21  and  C_22
REMARK                            x       y       z     vdW  Elec       q    Type
REMARK                         _______ _______ _______ _____ _____    ______ ____
ROOT
ATOM      1  O   UNL     1       5.023   7.238  15.225  0.00  0.00    +0.000 OA
ATOM      2  C   UNL     1       4.772   6.508  16.176  0.00  0.00    +0.000 C 
ATOM      3  C   UNL     1       3.881   6.765  17.279  0.00  0.00    +0.000 A 
ATOM      4  C   UNL     1       3.099   7.883  17.553  0.00  0.00    +0.000 A 
ATOM      5  C   UNL     1       2.341   7.854  18.736  0.00  0.00    +0.000 A 
ATOM      6  C   UNL     1       2.375   6.751  19.609  0.00  0.00    +0.000 A 
ATOM      7  C   UNL     1       3.176   5.636  19.308  0.00  0.00    +0.000 A 
ATOM      8  C   UNL     1       3.320   4.470  20.078  0.00  0.00    +0.000 A 
ATOM      9  C   UNL     1       4.173   3.438  19.644  0.00  0.00    +0.000 A 
ATOM     10  C   UNL     1       4.902   3.527  18.445  0.00  0.00    +0.000 A 
ATOM     11  C   UNL     1       4.734   4.688  17.693  0.00  0.00    +0.000 A 
ATOM     12  C   UNL     1       3.891   5.691  18.139  0.00  0.00    +0.000 A 
ATOM     13  C   UNL     1       5.434   5.077  16.382  0.00  0.00    +0.000 C 
ENDROOT
BRANCH  13  14
ATOM     14  C   UNL     1       4.991   4.117  15.251  0.00  0.00    +0.000 C 
BRANCH  14  15
ATOM     15  C   UNL     1       5.944   4.091  14.081  0.00  0.00    +0.000 A 
ATOM     16  C   UNL     1       5.703   3.274  12.980  0.00  0.00    +0.000 A 
ATOM     17  C   UNL     1       6.457   3.464  11.827  0.00  0.00    +0.000 A 
ATOM     18  C   UNL     1       7.449   4.436  11.814  0.00  0.00    +0.000 A 
ATOM     19  C   UNL     1       7.671   5.156  12.975  0.00  0.00    +0.000 A 
ATOM     20  N   UNL     1       6.949   5.000  14.104  0.00  0.00    +0.000 NA
ENDBRANCH  14  15
ENDBRANCH  13  14
BRANCH  13  21
ATOM     21  C   UNL     1       6.972   5.198  16.547  0.00  0.00    +0.000 C 
BRANCH  21  22
ATOM     22  C   UNL     1       7.390   6.355  17.430  0.00  0.00    +0.000 A 
ATOM     23  C   UNL     1       7.849   6.121  18.723  0.00  0.00    +0.000 A 
ATOM     24  C   UNL     1       8.444   7.166  19.420  0.00  0.00    +0.000 A 
ATOM     25  C   UNL     1       8.550   8.412  18.815  0.00  0.00    +0.000 A 
ATOM     26  C   UNL     1       8.019   8.572  17.549  0.00  0.00    +0.000 A 
ATOM     27  N   UNL     1       7.429   7.577  16.852  0.00  0.00    +0.000 NA
ENDBRANCH  21  22
ENDBRANCH  13  21
TORSDOF 4
ENDMDL
MODEL 2
REMARK VINA RESULT:      -8.1      2.871      5.696
REMARK  Name = 
REMARK  4 active torsions:
REMARK  status: ('A' for Active; 'I' for Inactive)
REMARK    1  A    between atoms: C_13  and  C_14
REMARK    2  A    between atoms: C_13  and  C_21
REMARK    3  A    between atoms: C_14  and  C_15
REMARK    4  A    between atoms: C_21  and  C_22
REMARK                            x       y       z     vdW  Elec       q    Type
REMARK                         _______ _______ _______ _____ _____    ______ ____
ROOT
ATOM      1  O   UNL     1       2.264   5.139  20.957  0.00  0.00    +0.000 OA
ATOM      2  C   UNL     1       2.154   6.185  20.330  0.00  0.00    +0.000 C 
ATOM      3  C   UNL     1       1.405   7.362  20.693  0.00  0.00    +0.000 A 
ATOM      4  C   UNL     1       0.622   7.610  21.817  0.00  0.00    +0.000 A 
ATOM      5  C   UNL     1      -0.017   8.859  21.883  0.00  0.00    +0.000 A 
ATOM      6  C   UNL     1       0.119   9.814  20.858  0.00  0.00    +0.000 A 
ATOM      7  C   UNL     1       0.914   9.536  19.734  0.00  0.00    +0.000 A 
ATOM      8  C   UNL     1       1.140  10.379  18.633  0.00  0.00    +0.000 A 
ATOM      9  C   UNL     1       1.959   9.949  17.572  0.00  0.00    +0.000 A 
ATOM     10  C   UNL     1       2.575   8.685  17.569  0.00  0.00    +0.000 A 
ATOM     11  C   UNL     1       2.344   7.872  18.676  0.00  0.00    +0.000 A 
ATOM     12  C   UNL     1       1.534   8.313  19.708  0.00  0.00    +0.000 A 
ATOM     13  C   UNL     1       2.841   6.438  18.917  0.00  0.00    +0.000 C 
ENDROOT
BRANCH  13  14
ATOM     14  C   UNL     1       4.382   6.440  19.068  0.00  0.00    +0.000 C 
BRANCH  14  15
ATOM     15  C   UNL     1       5.098   5.828  17.887  0.00  0.00    +0.000 A 
ATOM     16  C   UNL     1       4.876   6.295  16.595  0.00  0.00    +0.000 A 
ATOM     17  C   UNL     1       5.730   5.885  15.579  0.00  0.00    +0.000 A 
ATOM     18  C   UNL     1       6.759   4.998  15.869  0.00  0.00    +0.000 A 
ATOM     19  C   UNL     1       6.865   4.526  17.165  0.00  0.00    +0.000 A 
ATOM     20  N   UNL     1       6.057   4.914  18.174  0.00  0.00    +0.000 NA
ENDBRANCH  14  15
ENDBRANCH  13  14
BRANCH  13  21
ATOM     21  C   UNL     1       2.305   5.441  17.856  0.00  0.00    +0.000 C 
BRANCH  21  22
ATOM     22  C   UNL     1       2.110   4.040  18.396  0.00  0.00    +0.000 A 
ATOM     23  C   UNL     1       0.829   3.551  18.633  0.00  0.00    +0.000 A 
ATOM     24  C   UNL     1       0.670   2.196  18.899  0.00  0.00    +0.000 A 
ATOM     25  C   UNL     1       1.790   1.375  18.934  0.00  0.00    +0.000 A 
ATOM     26  C   UNL     1       3.031   1.953  18.740  0.00  0.00    +0.000 A 
ATOM     27  N   UNL     1       3.216   3.266  18.489  0.00  0.00    +0.000 NA
ENDBRANCH  21  22
ENDBRANCH  13  21
TORSDOF 4
ENDMDL
MODEL 3
REMARK VINA RESULT:      -8.1      7.502     10.338
REMARK  Name = 
REMARK  4 active torsions:
REMARK  status: ('A' for Active; 'I' for Inactive)
REMARK    1  A    between atoms: C_13  and  C_14
REMARK    2  A    between atoms: C_13  and  C_21
REMARK    3  A    between atoms: C_14  and  C_15
REMARK    4  A    between atoms: C_21  and  C_22
REMARK                            x       y       z     vdW  Elec       q    Type
REMARK                         _______ _______ _______ _____ _____    ______ ____
ROOT
ATOM      1  O   UNL     1       1.958  11.200  18.386  0.00  0.00    +0.000 OA
ATOM      2  C   UNL     1       1.260  11.335  19.384  0.00  0.00    +0.000 C 
ATOM      3  C   UNL     1       0.846  10.321  20.320  0.00  0.00    +0.000 A 
ATOM      4  C   UNL     1       1.113   8.955  20.332  0.00  0.00    +0.000 A 
ATOM      5  C   UNL     1       0.542   8.205  21.373  0.00  0.00    +0.000 A 
ATOM      6  C   UNL     1      -0.270   8.801  22.356  0.00  0.00    +0.000 A 
ATOM      7  C   UNL     1      -0.524  10.183  22.318  0.00  0.00    +0.000 A 
ATOM      8  C   UNL     1      -1.314  10.918  23.217  0.00  0.00    +0.000 A 
ATOM      9  C   UNL     1      -1.482  12.305  23.038  0.00  0.00    +0.000 A 
ATOM     10  C   UNL     1      -0.878  12.999  21.975  0.00  0.00    +0.000 A 
ATOM     11  C   UNL     1      -0.091  12.249  21.103  0.00  0.00    +0.000 A 
ATOM     12  C   UNL     1       0.060  10.887  21.296  0.00  0.00    +0.000 A 
ATOM     13  C   UNL     1       0.640  12.728  19.839  0.00  0.00    +0.000 C 
ENDROOT
BRANCH  13  14
ATOM     14  C   UNL     1       1.769  13.711  20.232  0.00  0.00    +0.000 C 
BRANCH  14  15
ATOM     15  C   UNL     1       2.106  14.701  19.143  0.00  0.00    +0.000 A 
ATOM     16  C   UNL     1       1.528  15.967  19.124  0.00  0.00    +0.000 A 
ATOM     17  C   UNL     1       2.047  16.927  18.264  0.00  0.00    +0.000 A 
ATOM     18  C   UNL     1       3.102  16.591  17.424  0.00  0.00    +0.000 A 
ATOM     19  C   UNL     1       3.570  15.290  17.455  0.00  0.00    +0.000 A 
ATOM     20  N   UNL     1       3.092  14.340  18.287  0.00  0.00    +0.000 NA
ENDBRANCH  14  15
ENDBRANCH  13  14
BRANCH  13  21
ATOM     21  C   UNL     1      -0.336  13.275  18.764  0.00  0.00    +0.000 C 
BRANCH  21  22
ATOM     22  C   UNL     1      -1.479  12.332  18.458  0.00  0.00    +0.000 A 
ATOM     23  C   UNL     1      -2.657  12.393  19.197  0.00  0.00    +0.000 A 
ATOM     24  C   UNL     1      -3.766  11.687  18.746  0.00  0.00    +0.000 A 
ATOM     25  C   UNL     1      -3.664  10.933  17.584  0.00  0.00    +0.000 A 
ATOM     26  C   UNL     1      -2.442  10.884  16.941  0.00  0.00    +0.000 A 
ATOM     27  N   UNL     1      -1.347  11.552  17.360  0.00  0.00    +0.000 NA
ENDBRANCH  21  22
ENDBRANCH  13  21
TORSDOF 4
ENDMDL
MODEL 4
REMARK VINA RESULT:      -8.0      1.087      1.375
REMARK  Name = 
REMARK  4 active torsions:
REMARK  status: ('A' for Active; 'I' for Inactive)
REMARK    1  A    between atoms: C_13  and  C_14
REMARK    2  A    between atoms: C_13  and  C_21
REMARK    3  A    between atoms: C_14  and  C_15
REMARK    4  A    between atoms: C_21  and  C_22
REMARK                            x       y       z     vdW  Elec       q    Type
REMARK                         _______ _______ _______ _____ _____    ______ ____
ROOT
ATOM      1  O   UNL     1       5.376   7.034  15.687  0.00  0.00    +0.000 OA
ATOM      2  C   UNL     1       4.880   6.124  16.339  0.00  0.00    +0.000 C 
ATOM      3  C   UNL     1       3.950   6.224  17.435  0.00  0.00    +0.000 A 
ATOM      4  C   UNL     1       3.392   7.350  18.033  0.00  0.00    +0.000 A 
ATOM      5  C   UNL     1       2.524   7.131  19.115  0.00  0.00    +0.000 A 
ATOM      6  C   UNL     1       2.236   5.835  19.582  0.00  0.00    +0.000 A 
ATOM      7  C   UNL     1       2.815   4.715  18.960  0.00  0.00    +0.000 A 
ATOM      8  C   UNL     1       2.632   3.368  19.313  0.00  0.00    +0.000 A 
ATOM      9  C   UNL     1       3.294   2.354  18.595  0.00  0.00    +0.000 A 
ATOM     10  C   UNL     1       4.148   2.641  17.515  0.00  0.00    +0.000 A 
ATOM     11  C   UNL     1       4.305   3.983  17.178  0.00  0.00    +0.000 A 
ATOM     12  C   UNL     1       3.646   4.964  17.898  0.00  0.00    +0.000 A 
ATOM     13  C   UNL     1       5.205   4.587  16.089  0.00  0.00    +0.000 C 
ENDROOT
BRANCH  13  14
ATOM     14  C   UNL     1       4.694   4.154  14.693  0.00  0.00    +0.000 C 
BRANCH  14  15
ATOM     15  C   UNL     1       5.791   4.052  13.660  0.00  0.00    +0.000 A 
ATOM     16  C   UNL     1       5.715   3.126  12.624  0.00  0.00    +0.000 A 
ATOM     17  C   UNL     1       6.606   3.233  11.563  0.00  0.00    +0.000 A 
ATOM     18  C   UNL     1       7.568   4.236  11.579  0.00  0.00    +0.000 A 
ATOM     19  C   UNL     1       7.620   5.070  12.682  0.00  0.00    +0.000 A 
ATOM     20  N   UNL     1       6.763   4.996  13.721  0.00  0.00    +0.000 NA
ENDBRANCH  14  15
ENDBRANCH  13  14
BRANCH  13  21
ATOM     21  C   UNL     1       6.709   4.294  16.336  0.00  0.00    +0.000 C 
BRANCH  21  22
ATOM     22  C   UNL     1       7.319   5.162  17.416  0.00  0.00    +0.000 A 
ATOM     23  C   UNL     1       7.676   6.479  17.139  0.00  0.00    +0.000 A 
ATOM     24  C   UNL     1       8.008   7.317  18.197  0.00  0.00    +0.000 A 
ATOM     25  C   UNL     1       7.988   6.815  19.492  0.00  0.00    +0.000 A 
ATOM     26  C   UNL     1       7.675   5.481  19.673  0.00  0.00    +0.000 A 
ATOM     27  N   UNL     1       7.356   4.643  18.664  0.00  0.00    +0.000 NA
ENDBRANCH  21  22
ENDBRANCH  13  21
TORSDOF 4
ENDMDL
MODEL 5
REMARK VINA RESULT:      -7.8      7.207      9.888
REMARK  Name = 
REMARK  4 active torsions:
REMARK  status: ('A' for Active; 'I' for Inactive)
REMARK    1  A    between atoms: C_13  and  C_14
REMARK    2  A    between atoms: C_13  and  C_21
REMARK    3  A    between atoms: C_14  and  C_15
REMARK    4  A    between atoms: C_21  and  C_22
REMARK                            x       y       z     vdW  Elec       q    Type
REMARK                         _______ _______ _______ _____ _____    ______ ____
ROOT
ATOM      1  O   UNL     1       0.042  13.492  22.335  0.00  0.00    +0.000 OA
ATOM      2  C   UNL     1       0.382  12.647  21.516  0.00  0.00    +0.000 C 
ATOM      3  C   UNL     1       0.217  11.218  21.596  0.00  0.00    +0.000 A 
ATOM      4  C   UNL     1      -0.348  10.439  22.603  0.00  0.00    +0.000 A 
ATOM      5  C   UNL     1      -0.343   9.048  22.408  0.00  0.00    +0.000 A 
ATOM      6  C   UNL     1       0.214   8.464  21.255  0.00  0.00    +0.000 A 
ATOM      7  C   UNL     1       0.779   9.275  20.256  0.00  0.00    +0.000 A 
ATOM      8  C   UNL     1       1.376   8.843  19.060  0.00  0.00    +0.000 A 
ATOM      9  C   UNL     1       1.910   9.783  18.158  0.00  0.00    +0.000 A 
ATOM     10  C   UNL     1       1.869  11.166  18.410  0.00  0.00    +0.000 A 
ATOM     11  C   UNL     1       1.263  11.569  19.598  0.00  0.00    +0.000 A 
ATOM     12  C   UNL     1       0.746  10.629  20.471  0.00  0.00    +0.000 A 
ATOM     13  C   UNL     1       1.122  12.996  20.152  0.00  0.00    +0.000 C 
ENDROOT
BRANCH  13  14
ATOM     14  C   UNL     1       0.187  13.820  19.234  0.00  0.00    +0.000 C 
BRANCH  14  15
ATOM     15  C   UNL     1      -1.149  13.159  18.993  0.00  0.00    +0.000 A 
ATOM     16  C   UNL     1      -1.333  12.287  17.924  0.00  0.00    +0.000 A 
ATOM     17  C   UNL     1      -2.485  11.511  17.883  0.00  0.00    +0.000 A 
ATOM     18  C   UNL     1      -3.436  11.649  18.886  0.00  0.00    +0.000 A 
ATOM     19  C   UNL     1      -3.208  12.591  19.874  0.00  0.00    +0.000 A 
ATOM     20  N   UNL     1      -2.095  13.350  19.945  0.00  0.00    +0.000 NA
ENDBRANCH  14  15
ENDBRANCH  13  14
BRANCH  13  21
ATOM     21  C   UNL     1       2.497  13.662  20.424  0.00  0.00    +0.000 C 
BRANCH  21  22
ATOM     22  C   UNL     1       2.825  14.775  19.453  0.00  0.00    +0.000 A 
ATOM     23  C   UNL     1       3.434  14.487  18.234  0.00  0.00    +0.000 A 
ATOM     24  C   UNL     1       3.507  15.487  17.271  0.00  0.00    +0.000 A 
ATOM     25  C   UNL     1       2.985  16.743  17.555  0.00  0.00    +0.000 A 
ATOM     26  C   UNL     1       2.446  16.959  18.810  0.00  0.00    +0.000 A 
ATOM     27  N   UNL     1       2.370  16.010  19.766  0.00  0.00    +0.000 NA
ENDBRANCH  21  22
ENDBRANCH  13  21
TORSDOF 4
ENDMDL
MODEL 6
REMARK VINA RESULT:      -7.8      7.012      9.994
REMARK  Name = 
REMARK  4 active torsions:
REMARK  status: ('A' for Active; 'I' for Inactive)
REMARK    1  A    between atoms: C_13  and  C_14
REMARK    2  A    between atoms: C_13  and  C_21
REMARK    3  A    between atoms: C_14  and  C_15
REMARK    4  A    between atoms: C_21  and  C_22
REMARK                            x       y       z     vdW  Elec       q    Type
REMARK                         _______ _______ _______ _____ _____    ______ ____
ROOT
ATOM      1  O   UNL     1      -0.406  13.394  22.341  0.00  0.00    +0.000 OA
ATOM      2  C   UNL     1       0.020  12.560  21.552  0.00  0.00    +0.000 C 
ATOM      3  C   UNL     1       0.030  11.126  21.699  0.00  0.00    +0.000 A 
ATOM      4  C   UNL     1      -0.420  10.333  22.750  0.00  0.00    +0.000 A 
ATOM      5  C   UNL     1      -0.250   8.945  22.617  0.00  0.00    +0.000 A 
ATOM      6  C   UNL     1       0.354   8.379  21.478  0.00  0.00    +0.000 A 
ATOM      7  C   UNL     1       0.801   9.205  20.432  0.00  0.00    +0.000 A 
ATOM      8  C   UNL     1       1.425   8.794  19.243  0.00  0.00    +0.000 A 
ATOM      9  C   UNL     1       1.826   9.749  18.290  0.00  0.00    +0.000 A 
ATOM     10  C   UNL     1       1.622  11.127  18.482  0.00  0.00    +0.000 A 
ATOM     11  C   UNL     1       0.992  11.508  19.664  0.00  0.00    +0.000 A 
ATOM     12  C   UNL     1       0.607  10.554  20.588  0.00  0.00    +0.000 A 
ATOM     13  C   UNL     1       0.689  12.931  20.158  0.00  0.00    +0.000 C 
ENDROOT
BRANCH  13  14
ATOM     14  C   UNL     1      -0.354  13.595  19.226  0.00  0.00    +0.000 C 
BRANCH  14  15
ATOM     15  C   UNL     1      -1.586  12.748  19.009  0.00  0.00    +0.000 A 
ATOM     16  C   UNL     1      -2.671  12.829  19.877  0.00  0.00    +0.000 A 
ATOM     17  C   UNL     1      -3.870  12.231  19.507  0.00  0.00    +0.000 A 
ATOM     18  C   UNL     1      -3.945  11.543  18.302  0.00  0.00    +0.000 A 
ATOM     19  C   UNL     1      -2.799  11.450  17.533  0.00  0.00    +0.000 A 
ATOM     20  N   UNL     1      -1.625  12.027  17.862  0.00  0.00    +0.000 NA
ENDBRANCH  14  15
ENDBRANCH  13  14
BRANCH  13  21
ATOM     21  C   UNL     1       1.978  13.770  20.370  0.00  0.00    +0.000 C 
BRANCH  21  22
ATOM     22  C   UNL     1       2.215  14.789  19.277  0.00  0.00    +0.000 A 
ATOM     23  C   UNL     1       1.729  16.087  19.409  0.00  0.00    +0.000 A 
ATOM     24  C   UNL     1       2.160  17.056  18.511  0.00  0.00    +0.000 A 
ATOM     25  C   UNL     1       3.048  16.702  17.504  0.00  0.00    +0.000 A 
ATOM     26  C   UNL     1       3.439  15.379  17.412  0.00  0.00    +0.000 A 
ATOM     27  N   UNL     1       3.030  14.416  18.264  0.00  0.00    +0.000 NA
ENDBRANCH  21  22
ENDBRANCH  13  21
TORSDOF 4
ENDMDL
MODEL 7
REMARK VINA RESULT:      -7.7      2.780      5.557
REMARK  Name = 
REMARK  4 active torsions:
REMARK  status: ('A' for Active; 'I' for Inactive)
REMARK    1  A    between atoms: C_13  and  C_14
REMARK    2  A    between atoms: C_13  and  C_21
REMARK    3  A    between atoms: C_14  and  C_15
REMARK    4  A    between atoms: C_21  and  C_22
REMARK                            x       y       z     vdW  Elec       q    Type
REMARK                         _______ _______ _______ _____ _____    ______ ____
ROOT
ATOM      1  O   UNL     1       2.231   4.984  20.707  0.00  0.00    +0.000 OA
ATOM      2  C   UNL     1       2.158   6.070  20.146  0.00  0.00    +0.000 C 
ATOM      3  C   UNL     1       1.418   7.235  20.562  0.00  0.00    +0.000 A 
ATOM      4  C   UNL     1       0.604   7.425  21.676  0.00  0.00    +0.000 A 
ATOM      5  C   UNL     1      -0.016   8.679  21.803  0.00  0.00    +0.000 A 
ATOM      6  C   UNL     1       0.168   9.695  20.848  0.00  0.00    +0.000 A 
ATOM      7  C   UNL     1       0.995   9.475  19.732  0.00  0.00    +0.000 A 
ATOM      8  C   UNL     1       1.269  10.383  18.697  0.00  0.00    +0.000 A 
ATOM      9  C   UNL     1       2.115  10.008  17.635  0.00  0.00    +0.000 A 
ATOM     10  C   UNL     1       2.710   8.735  17.569  0.00  0.00    +0.000 A 
ATOM     11  C   UNL     1       2.430   7.857  18.613  0.00  0.00    +0.000 A 
ATOM     12  C   UNL     1       1.595   8.245  19.646  0.00  0.00    +0.000 A 
ATOM     13  C   UNL     1       2.894   6.402  18.775  0.00  0.00    +0.000 C 
ENDROOT
BRANCH  13  14
ATOM     14  C   UNL     1       4.430   6.364  18.973  0.00  0.00    +0.000 C 
BRANCH  14  15
ATOM     15  C   UNL     1       5.184   5.975  17.724  0.00  0.00    +0.000 A 
ATOM     16  C   UNL     1       6.075   4.907  17.730  0.00  0.00    +0.000 A 
ATOM     17  C   UNL     1       6.552   4.425  16.516  0.00  0.00    +0.000 A 
ATOM     18  C   UNL     1       6.155   5.041  15.336  0.00  0.00    +0.000 A 
ATOM     19  C   UNL     1       5.323   6.143  15.423  0.00  0.00    +0.000 A 
ATOM     20  N   UNL     1       4.837   6.626  16.586  0.00  0.00    +0.000 NA
ENDBRANCH  14  15
ENDBRANCH  13  14
BRANCH  13  21
ATOM     21  C   UNL     1       2.376   5.485  17.636  0.00  0.00    +0.000 C 
BRANCH  21  22
ATOM     22  C   UNL     1       2.204   4.042  18.059  0.00  0.00    +0.000 A 
ATOM     23  C   UNL     1       3.315   3.268  18.382  0.00  0.00    +0.000 A 
ATOM     24  C   UNL     1       3.115   2.034  18.989  0.00  0.00    +0.000 A 
ATOM     25  C   UNL     1       1.819   1.604  19.243  0.00  0.00    +0.000 A 
ATOM     26  C   UNL     1       0.772   2.412  18.841  0.00  0.00    +0.000 A 
ATOM     27  N   UNL     1       0.936   3.610  18.242  0.00  0.00    +0.000 NA
ENDBRANCH  21  22
ENDBRANCH  13  21
TORSDOF 4
ENDMDL
MODEL 8
REMARK VINA RESULT:      -7.7      1.538      4.897
REMARK  Name = 
REMARK  4 active torsions:
REMARK  status: ('A' for Active; 'I' for Inactive)
REMARK    1  A    between atoms: C_13  and  C_14
REMARK    2  A    between atoms: C_13  and  C_21
REMARK    3  A    between atoms: C_14  and  C_15
REMARK    4  A    between atoms: C_21  and  C_22
REMARK                            x       y       z     vdW  Elec       q    Type
REMARK                         _______ _______ _______ _____ _____    ______ ____
ROOT
ATOM      1  O   UNL     1       5.312   2.502  15.963  0.00  0.00    +0.000 OA
ATOM      2  C   UNL     1       4.778   3.330  16.690  0.00  0.00    +0.000 C 
ATOM      3  C   UNL     1       3.619   3.157  17.530  0.00  0.00    +0.000 A 
ATOM      4  C   UNL     1       2.816   2.036  17.722  0.00  0.00    +0.000 A 
ATOM      5  C   UNL     1       1.725   2.179  18.595  0.00  0.00    +0.000 A 
ATOM      6  C   UNL     1       1.448   3.399  19.240  0.00  0.00    +0.000 A 
ATOM      7  C   UNL     1       2.275   4.515  19.026  0.00  0.00    +0.000 A 
ATOM      8  C   UNL     1       2.126   5.793  19.588  0.00  0.00    +0.000 A 
ATOM      9  C   UNL     1       3.037   6.817  19.265  0.00  0.00    +0.000 A 
ATOM     10  C   UNL     1       4.115   6.607  18.386  0.00  0.00    +0.000 A 
ATOM     11  C   UNL     1       4.247   5.328  17.850  0.00  0.00    +0.000 A 
ATOM     12  C   UNL     1       3.339   4.337  18.179  0.00  0.00    +0.000 A 
ATOM     13  C   UNL     1       5.286   4.831  16.834  0.00  0.00    +0.000 C 
ENDROOT
BRANCH  13  14
ATOM     14  C   UNL     1       6.695   4.857  17.476  0.00  0.00    +0.000 C 
BRANCH  14  15
ATOM     15  C   UNL     1       7.157   6.245  17.849  0.00  0.00    +0.000 A 
ATOM     16  C   UNL     1       7.958   6.457  18.967  0.00  0.00    +0.000 A 
ATOM     17  C   UNL     1       8.565   7.696  19.131  0.00  0.00    +0.000 A 
ATOM     18  C   UNL     1       8.331   8.699  18.198  0.00  0.00    +0.000 A 
ATOM     19  C   UNL     1       7.464   8.428  17.155  0.00  0.00    +0.000 A 
ATOM     20  N   UNL     1       6.869   7.232  16.965  0.00  0.00    +0.000 NA
ENDBRANCH  14  15
ENDBRANCH  13  14
BRANCH  13  21
ATOM     21  C   UNL     1       5.191   5.578  15.477  0.00  0.00    +0.000 C 
BRANCH  21  22
ATOM     22  C   UNL     1       5.988   4.917  14.373  0.00  0.00    +0.000 A 
ATOM     23  C   UNL     1       5.375   4.014  13.508  0.00  0.00    +0.000 A 
ATOM     24  C   UNL     1       6.061   3.608  12.370  0.00  0.00    +0.000 A 
ATOM     25  C   UNL     1       7.339   4.101  12.136  0.00  0.00    +0.000 A 
ATOM     26  C   UNL     1       7.894   4.951  13.073  0.00  0.00    +0.000 A 
ATOM     27  N   UNL     1       7.255   5.356  14.191  0.00  0.00    +0.000 NA
ENDBRANCH  21  22
ENDBRANCH  13  21
TORSDOF 4
ENDMDL
MODEL 9
REMARK VINA RESULT:      -7.6      7.269     10.736
REMARK  Name = 
REMARK  4 active torsions:
REMARK  status: ('A' for Active; 'I' for Inactive)
REMARK    1  A    between atoms: C_13  and  C_14
REMARK    2  A    between atoms: C_13  and  C_21
REMARK    3  A    between atoms: C_14  and  C_15
REMARK    4  A    between atoms: C_21  and  C_22
REMARK                            x       y       z     vdW  Elec       q    Type
REMARK                         _______ _______ _______ _____ _____    ______ ____
ROOT
ATOM      1  O   UNL     1       1.832  11.216  18.113  0.00  0.00    +0.000 OA
ATOM      2  C   UNL     1       1.162  11.261  19.137  0.00  0.00    +0.000 C 
ATOM      3  C   UNL     1       0.940  10.211  20.099  0.00  0.00    +0.000 A 
ATOM      4  C   UNL     1       1.408   8.900  20.113  0.00  0.00    +0.000 A 
ATOM      5  C   UNL     1       0.997   8.089  21.183  0.00  0.00    +0.000 A 
ATOM      6  C   UNL     1       0.144   8.574  22.193  0.00  0.00    +0.000 A 
ATOM      7  C   UNL     1      -0.315   9.902  22.152  0.00  0.00    +0.000 A 
ATOM      8  C   UNL     1      -1.170  10.525  23.076  0.00  0.00    +0.000 A 
ATOM      9  C   UNL     1      -1.550  11.868  22.891  0.00  0.00    +0.000 A 
ATOM     10  C   UNL     1      -1.097  12.628  21.798  0.00  0.00    +0.000 A 
ATOM     11  C   UNL     1      -0.242  11.990  20.902  0.00  0.00    +0.000 A 
ATOM     12  C   UNL     1       0.117  10.669  21.101  0.00  0.00    +0.000 A 
ATOM     13  C   UNL     1       0.359  12.553  19.605  0.00  0.00    +0.000 C 
ENDROOT
BRANCH  13  14
ATOM     14  C   UNL     1       1.344  13.699  19.942  0.00  0.00    +0.000 C 
BRANCH  14  15
ATOM     15  C   UNL     1       0.817  15.066  19.579  0.00  0.00    +0.000 A 
ATOM     16  C   UNL     1       1.414  15.820  18.574  0.00  0.00    +0.000 A 
ATOM     17  C   UNL     1       0.755  16.949  18.101  0.00  0.00    +0.000 A 
ATOM     18  C   UNL     1      -0.462  17.313  18.664  0.00  0.00    +0.000 A 
ATOM     19  C   UNL     1      -0.951  16.549  19.709  0.00  0.00    +0.000 A 
ATOM     20  N   UNL     1      -0.338  15.444  20.182  0.00  0.00    +0.000 NA
ENDBRANCH  14  15
ENDBRANCH  13  14
BRANCH  13  21
ATOM     21  C   UNL     1      -0.728  12.933  18.565  0.00  0.00    +0.000 C 
BRANCH  21  22
ATOM     22  C   UNL     1      -1.718  11.819  18.300  0.00  0.00    +0.000 A 
ATOM     23  C   UNL     1      -3.006  11.884  18.826  0.00  0.00    +0.000 A 
ATOM     24  C   UNL     1      -3.957  10.976  18.376  0.00  0.00    +0.000 A 
ATOM     25  C   UNL     1      -3.596  10.026  17.430  0.00  0.00    +0.000 A 
ATOM     26  C   UNL     1      -2.282   9.997  17.001  0.00  0.00    +0.000 A 
ATOM     27  N   UNL     1      -1.335  10.860  17.426  0.00  0.00    +0.000 NA
ENDBRANCH  21  22
ENDBRANCH  13  21
TORSDOF 4
ENDMDL
