MODEL 1
REMARK VINA RESULT:      -8.3      0.000      0.000
REMARK  Name = 
REMARK  5 active torsions:
REMARK  status: ('A' for Active; 'I' for Inactive)
REMARK    1  A    between atoms: C_1  and  O_2
REMARK    2  A    between atoms: O_2  and  C_3
REMARK    3  A    between atoms: C_6  and  C_7
REMARK    4  A    between atoms: C_11  and  C_12
REMARK    5  A    between atoms: C_16  and  C_17
REMARK                            x       y       z     vdW  Elec       q    Type
REMARK                         _______ _______ _______ _____ _____    ______ ____
ROOT
ATOM      1  C   UNL     1       2.142   6.595  19.987  0.00  0.00    +0.000 A 
ATOM      2  C   UNL     1       1.549   5.380  20.348  0.00  0.00    +0.000 A 
ATOM      3  C   UNL     1       2.213   4.194  20.084  0.00  0.00    +0.000 A 
ATOM      4  N   UNL     1       3.429   4.126  19.505  0.00  0.00    +0.000 NA
ATOM      5  C   UNL     1       4.029   5.295  19.155  0.00  0.00    +0.000 A 
ATOM      6  C   UNL     1       3.399   6.524  19.368  0.00  0.00    +0.000 A 
ENDROOT
BRANCH   1  10
ATOM      7  C   UNL     1       0.208  10.386  20.755  0.00  0.00    +0.000 A 
ATOM      8  C   UNL     1       0.766  10.118  19.509  0.00  0.00    +0.000 A 
ATOM      9  C   UNL     1       1.391   8.889  19.260  0.00  0.00    +0.000 A 
ATOM     10  C   UNL     1       1.481   7.896  20.250  0.00  0.00    +0.000 A 
ATOM     11  C   UNL     1       0.922   8.198  21.506  0.00  0.00    +0.000 A 
ATOM     12  C   UNL     1       0.301   9.429  21.760  0.00  0.00    +0.000 A 
BRANCH   7  14
ATOM     13  C   UNL     1      -0.756  12.252  19.677  0.00  0.00    +0.000 C 
ATOM     14  O   UNL     1      -0.360  11.622  20.890  0.00  0.00    +0.000 OA
ENDBRANCH   7  14
ENDBRANCH   1  10
BRANCH   5  15
ATOM     15  C   UNL     1       5.383   5.197  18.556  0.00  0.00    +0.000 A 
ATOM     16  C   UNL     1       6.540   5.317  19.325  0.00  0.00    +0.000 A 
ATOM     17  C   UNL     1       7.782   5.240  18.708  0.00  0.00    +0.000 A 
ATOM     18  C   UNL     1       7.845   5.039  17.335  0.00  0.00    +0.000 A 
ATOM     19  C   UNL     1       6.664   4.915  16.604  0.00  0.00    +0.000 A 
ATOM     20  N   UNL     1       5.445   5.002  17.208  0.00  0.00    +0.000 NA
BRANCH  19  21
ATOM     21  C   UNL     1       6.671   4.664  15.140  0.00  0.00    +0.000 A 
ATOM     22  C   UNL     1       5.767   3.791  14.529  0.00  0.00    +0.000 A 
ATOM     23  C   UNL     1       5.848   3.568  13.155  0.00  0.00    +0.000 A 
ATOM     24  C   UNL     1       6.825   4.218  12.416  0.00  0.00    +0.000 A 
ATOM     25  C   UNL     1       7.680   5.076  13.084  0.00  0.00    +0.000 A 
ATOM     26  N   UNL     1       7.625   5.312  14.413  0.00  0.00    +0.000 NA
ENDBRANCH  19  21
ENDBRANCH   5  15
TORSDOF 4
ENDMDL
MODEL 2
REMARK VINA RESULT:      -8.3      0.374      1.010
REMARK  Name = 
REMARK  5 active torsions:
REMARK  status: ('A' for Active; 'I' for Inactive)
REMARK    1  A    between atoms: C_1  and  O_2
REMARK    2  A    between atoms: O_2  and  C_3
REMARK    3  A    between atoms: C_6  and  C_7
REMARK    4  A    between atoms: C_11  and  C_12
REMARK    5  A    between atoms: C_16  and  C_17
REMARK                            x       y       z     vdW  Elec       q    Type
REMARK                         _______ _______ _______ _____ _____    ______ ____
ROOT
ATOM      1  C   UNL     1       2.137   6.557  20.014  0.00  0.00    +0.000 A 
ATOM      2  C   UNL     1       1.567   5.341  20.406  0.00  0.00    +0.000 A 
ATOM      3  C   UNL     1       2.247   4.160  20.161  0.00  0.00    +0.000 A 
ATOM      4  N   UNL     1       3.459   4.098  19.573  0.00  0.00    +0.000 NA
ATOM      5  C   UNL     1       4.037   5.268  19.193  0.00  0.00    +0.000 A 
ATOM      6  C   UNL     1       3.391   6.492  19.385  0.00  0.00    +0.000 A 
ENDROOT
BRANCH   1  10
ATOM      7  C   UNL     1       0.163  10.341  20.715  0.00  0.00    +0.000 A 
ATOM      8  C   UNL     1       0.129   9.337  21.679  0.00  0.00    +0.000 A 
ATOM      9  C   UNL     1       0.769   8.112  21.452  0.00  0.00    +0.000 A 
ATOM     10  C   UNL     1       1.458   7.853  20.255  0.00  0.00    +0.000 A 
ATOM     11  C   UNL     1       1.466   8.878  19.291  0.00  0.00    +0.000 A 
ATOM     12  C   UNL     1       0.821  10.103  19.512  0.00  0.00    +0.000 A 
BRANCH   7  14
ATOM     13  C   UNL     1       0.293  12.656  21.155  0.00  0.00    +0.000 C 
ATOM     14  O   UNL     1      -0.509  11.487  21.036  0.00  0.00    +0.000 OA
ENDBRANCH   7  14
ENDBRANCH   1  10
BRANCH   5  15
ATOM     15  C   UNL     1       5.387   5.178  18.584  0.00  0.00    +0.000 A 
ATOM     16  C   UNL     1       6.549   5.300  19.345  0.00  0.00    +0.000 A 
ATOM     17  C   UNL     1       7.787   5.230  18.720  0.00  0.00    +0.000 A 
ATOM     18  C   UNL     1       7.841   5.035  17.346  0.00  0.00    +0.000 A 
ATOM     19  C   UNL     1       6.656   4.910  16.622  0.00  0.00    +0.000 A 
ATOM     20  N   UNL     1       5.440   4.988  17.234  0.00  0.00    +0.000 NA
BRANCH  19  21
ATOM     21  C   UNL     1       6.653   4.664  15.157  0.00  0.00    +0.000 A 
ATOM     22  C   UNL     1       5.733   3.808  14.545  0.00  0.00    +0.000 A 
ATOM     23  C   UNL     1       5.806   3.589  13.170  0.00  0.00    +0.000 A 
ATOM     24  C   UNL     1       6.791   4.226  12.431  0.00  0.00    +0.000 A 
ATOM     25  C   UNL     1       7.662   5.068  13.099  0.00  0.00    +0.000 A 
ATOM     26  N   UNL     1       7.615   5.299  14.429  0.00  0.00    +0.000 NA
ENDBRANCH  19  21
ENDBRANCH   5  15
TORSDOF 4
ENDMDL
MODEL 3
REMARK VINA RESULT:      -8.2      4.170      9.291
REMARK  Name = 
REMARK  5 active torsions:
REMARK  status: ('A' for Active; 'I' for Inactive)
REMARK    1  A    between atoms: C_1  and  O_2
REMARK    2  A    between atoms: O_2  and  C_3
REMARK    3  A    between atoms: C_6  and  C_7
REMARK    4  A    between atoms: C_11  and  C_12
REMARK    5  A    between atoms: C_16  and  C_17
REMARK                            x       y       z     vdW  Elec       q    Type
REMARK                         _______ _______ _______ _____ _____    ______ ____
ROOT
ATOM      1  C   UNL     1       2.639   7.109  18.777  0.00  0.00    +0.000 A 
ATOM      2  C   UNL     1       2.303   6.630  20.047  0.00  0.00    +0.000 A 
ATOM      3  C   UNL     1       1.517   7.406  20.882  0.00  0.00    +0.000 A 
ATOM      4  N   UNL     1       1.024   8.614  20.542  0.00  0.00    +0.000 NA
ATOM      5  C   UNL     1       1.329   9.096  19.308  0.00  0.00    +0.000 A 
ATOM      6  C   UNL     1       2.142   8.375  18.429  0.00  0.00    +0.000 A 
ENDROOT
BRANCH   1  10
ATOM      7  C   UNL     1       5.068   4.812  16.033  0.00  0.00    +0.000 A 
ATOM      8  C   UNL     1       4.209   4.172  16.922  0.00  0.00    +0.000 A 
ATOM      9  C   UNL     1       3.422   4.916  17.810  0.00  0.00    +0.000 A 
ATOM     10  C   UNL     1       3.473   6.320  17.838  0.00  0.00    +0.000 A 
ATOM     11  C   UNL     1       4.359   6.943  16.940  0.00  0.00    +0.000 A 
ATOM     12  C   UNL     1       5.154   6.200  16.055  0.00  0.00    +0.000 A 
BRANCH   7  14
ATOM     13  C   UNL     1       6.950   4.573  14.629  0.00  0.00    +0.000 C 
ATOM     14  O   UNL     1       5.800   3.987  15.226  0.00  0.00    +0.000 OA
ENDBRANCH   7  14
ENDBRANCH   1  10
BRANCH   5  15
ATOM     15  C   UNL     1       0.744  10.409  18.941  0.00  0.00    +0.000 A 
ATOM     16  C   UNL     1       1.514  11.571  18.891  0.00  0.00    +0.000 A 
ATOM     17  C   UNL     1       0.910  12.778  18.565  0.00  0.00    +0.000 A 
ATOM     18  C   UNL     1      -0.451  12.802  18.289  0.00  0.00    +0.000 A 
ATOM     19  C   UNL     1      -1.183  11.616  18.343  0.00  0.00    +0.000 A 
ATOM     20  N   UNL     1      -0.593  10.433  18.674  0.00  0.00    +0.000 NA
BRANCH  19  21
ATOM     21  C   UNL     1      -2.633  11.575  18.024  0.00  0.00    +0.000 A 
ATOM     22  C   UNL     1      -3.112  11.173  16.774  0.00  0.00    +0.000 A 
ATOM     23  C   UNL     1      -4.483  11.192  16.523  0.00  0.00    +0.000 A 
ATOM     24  C   UNL     1      -5.351  11.610  17.521  0.00  0.00    +0.000 A 
ATOM     25  C   UNL     1      -4.810  11.985  18.737  0.00  0.00    +0.000 A 
ATOM     26  N   UNL     1      -3.487  11.976  19.009  0.00  0.00    +0.000 NA
ENDBRANCH  19  21
ENDBRANCH   5  15
TORSDOF 4
ENDMDL
MODEL 4
REMARK VINA RESULT:      -8.1      4.087      9.194
REMARK  Name = 
REMARK  5 active torsions:
REMARK  status: ('A' for Active; 'I' for Inactive)
REMARK    1  A    between atoms: C_1  and  O_2
REMARK    2  A    between atoms: O_2  and  C_3
REMARK    3  A    between atoms: C_6  and  C_7
REMARK    4  A    between atoms: C_11  and  C_12
REMARK    5  A    between atoms: C_16  and  C_17
REMARK                            x       y       z     vdW  Elec       q    Type
REMARK                         _______ _______ _______ _____ _____    ______ ____
ROOT
ATOM      1  C   UNL     1       2.650   7.069  18.774  0.00  0.00    +0.000 A 
ATOM      2  C   UNL     1       2.305   6.611  20.049  0.00  0.00    +0.000 A 
ATOM      3  C   UNL     1       1.531   7.410  20.873  0.00  0.00    +0.000 A 
ATOM      4  N   UNL     1       1.060   8.623  20.518  0.00  0.00    +0.000 NA
ATOM      5  C   UNL     1       1.375   9.084  19.279  0.00  0.00    +0.000 A 
ATOM      6  C   UNL     1       2.176   8.339  18.410  0.00  0.00    +0.000 A 
ENDROOT
BRANCH   1  10
ATOM      7  C   UNL     1       5.048   4.690  16.072  0.00  0.00    +0.000 A 
ATOM      8  C   UNL     1       5.230   6.068  16.152  0.00  0.00    +0.000 A 
ATOM      9  C   UNL     1       4.455   6.838  17.027  0.00  0.00    +0.000 A 
ATOM     10  C   UNL     1       3.472   6.255  17.845  0.00  0.00    +0.000 A 
ATOM     11  C   UNL     1       3.297   4.863  17.736  0.00  0.00    +0.000 A 
ATOM     12  C   UNL     1       4.067   4.090  16.855  0.00  0.00    +0.000 A 
BRANCH   7  14
ATOM     13  C   UNL     1       6.704   4.877  14.400  0.00  0.00    +0.000 C 
ATOM     14  O   UNL     1       5.848   4.043  15.172  0.00  0.00    +0.000 OA
ENDBRANCH   7  14
ENDBRANCH   1  10
BRANCH   5  15
ATOM     15  C   UNL     1       0.813  10.403  18.896  0.00  0.00    +0.000 A 
ATOM     16  C   UNL     1       1.606  11.549  18.824  0.00  0.00    +0.000 A 
ATOM     17  C   UNL     1       1.023  12.762  18.482  0.00  0.00    +0.000 A 
ATOM     18  C   UNL     1      -0.339  12.809  18.214  0.00  0.00    +0.000 A 
ATOM     19  C   UNL     1      -1.094  11.639  18.290  0.00  0.00    +0.000 A 
ATOM     20  N   UNL     1      -0.525  10.449  18.636  0.00  0.00    +0.000 NA
BRANCH  19  21
ATOM     21  C   UNL     1      -2.546  11.621  17.980  0.00  0.00    +0.000 A 
ATOM     22  C   UNL     1      -3.516  11.950  18.931  0.00  0.00    +0.000 A 
ATOM     23  C   UNL     1      -4.866  11.878  18.590  0.00  0.00    +0.000 A 
ATOM     24  C   UNL     1      -5.225  11.482  17.310  0.00  0.00    +0.000 A 
ATOM     25  C   UNL     1      -4.213  11.181  16.417  0.00  0.00    +0.000 A 
ATOM     26  N   UNL     1      -2.898  11.243  16.719  0.00  0.00    +0.000 NA
ENDBRANCH  19  21
ENDBRANCH   5  15
TORSDOF 4
ENDMDL
MODEL 5
REMARK VINA RESULT:      -8.1      2.151      4.143
REMARK  Name = 
REMARK  5 active torsions:
REMARK  status: ('A' for Active; 'I' for Inactive)
REMARK    1  A    between atoms: C_1  and  O_2
REMARK    2  A    between atoms: O_2  and  C_3
REMARK    3  A    between atoms: C_6  and  C_7
REMARK    4  A    between atoms: C_11  and  C_12
REMARK    5  A    between atoms: C_16  and  C_17
REMARK                            x       y       z     vdW  Elec       q    Type
REMARK                         _______ _______ _______ _____ _____    ______ ____
ROOT
ATOM      1  C   UNL     1       0.549  10.111  19.979  0.00  0.00    +0.000 A 
ATOM      2  C   UNL     1       0.940  10.774  18.812  0.00  0.00    +0.000 A 
ATOM      3  C   UNL     1       1.807  10.149  17.932  0.00  0.00    +0.000 A 
ATOM      4  N   UNL     1       2.300   8.907  18.116  0.00  0.00    +0.000 NA
ATOM      5  C   UNL     1       1.925   8.240  19.239  0.00  0.00    +0.000 A 
ATOM      6  C   UNL     1       1.076   8.826  20.181  0.00  0.00    +0.000 A 
ENDROOT
BRANCH   1  10
ATOM      7  C   UNL     1      -2.162  11.918  22.824  0.00  0.00    +0.000 A 
ATOM      8  C   UNL     1      -1.318  10.882  23.213  0.00  0.00    +0.000 A 
ATOM      9  C   UNL     1      -0.439  10.297  22.292  0.00  0.00    +0.000 A 
ATOM     10  C   UNL     1      -0.382  10.729  20.955  0.00  0.00    +0.000 A 
ATOM     11  C   UNL     1      -1.255  11.767  20.584  0.00  0.00    +0.000 A 
ATOM     12  C   UNL     1      -2.141  12.349  21.502  0.00  0.00    +0.000 A 
BRANCH   7  14
ATOM     13  C   UNL     1      -4.114  13.139  23.343  0.00  0.00    +0.000 C 
ATOM     14  O   UNL     1      -2.988  12.400  23.801  0.00  0.00    +0.000 OA
ENDBRANCH   7  14
ENDBRANCH   1  10
BRANCH   5  15
ATOM     15  C   UNL     1       2.449   6.861  19.402  0.00  0.00    +0.000 A 
ATOM     16  C   UNL     1       1.955   5.995  20.377  0.00  0.00    +0.000 A 
ATOM     17  C   UNL     1       2.497   4.722  20.500  0.00  0.00    +0.000 A 
ATOM     18  C   UNL     1       3.520   4.336  19.642  0.00  0.00    +0.000 A 
ATOM     19  C   UNL     1       3.980   5.230  18.675  0.00  0.00    +0.000 A 
ATOM     20  N   UNL     1       3.454   6.483  18.562  0.00  0.00    +0.000 NA
BRANCH  19  21
ATOM     21  C   UNL     1       5.045   4.860  17.709  0.00  0.00    +0.000 A 
ATOM     22  C   UNL     1       4.759   4.325  16.451  0.00  0.00    +0.000 A 
ATOM     23  C   UNL     1       5.804   3.962  15.603  0.00  0.00    +0.000 A 
ATOM     24  C   UNL     1       7.114   4.140  16.023  0.00  0.00    +0.000 A 
ATOM     25  C   UNL     1       7.325   4.685  17.277  0.00  0.00    +0.000 A 
ATOM     26  N   UNL     1       6.333   5.046  18.119  0.00  0.00    +0.000 NA
ENDBRANCH  19  21
ENDBRANCH   5  15
TORSDOF 4
ENDMDL
MODEL 6
REMARK VINA RESULT:      -7.8      4.251      8.940
REMARK  Name = 
REMARK  5 active torsions:
REMARK  status: ('A' for Active; 'I' for Inactive)
REMARK    1  A    between atoms: C_1  and  O_2
REMARK    2  A    between atoms: O_2  and  C_3
REMARK    3  A    between atoms: C_6  and  C_7
REMARK    4  A    between atoms: C_11  and  C_12
REMARK    5  A    between atoms: C_16  and  C_17
REMARK                            x       y       z     vdW  Elec       q    Type
REMARK                         _______ _______ _______ _____ _____    ______ ____
ROOT
ATOM      1  C   UNL     1       2.348   7.457  19.041  0.00  0.00    +0.000 A 
ATOM      2  C   UNL     1       1.987   7.050  20.329  0.00  0.00    +0.000 A 
ATOM      3  C   UNL     1       1.213   7.887  21.116  0.00  0.00    +0.000 A 
ATOM      4  N   UNL     1       0.756   9.089  20.711  0.00  0.00    +0.000 NA
ATOM      5  C   UNL     1       1.086   9.501  19.459  0.00  0.00    +0.000 A 
ATOM      6  C   UNL     1       1.888   8.718  18.626  0.00  0.00    +0.000 A 
ENDROOT
BRANCH   1  10
ATOM      7  C   UNL     1       4.743   4.966  16.441  0.00  0.00    +0.000 A 
ATOM      8  C   UNL     1       3.761   4.403  17.250  0.00  0.00    +0.000 A 
ATOM      9  C   UNL     1       2.984   5.210  18.091  0.00  0.00    +0.000 A 
ATOM     10  C   UNL     1       3.170   6.602  18.151  0.00  0.00    +0.000 A 
ATOM     11  C   UNL     1       4.179   7.145  17.335  0.00  0.00    +0.000 A 
ATOM     12  C   UNL     1       4.963   6.339  16.497  0.00  0.00    +0.000 A 
BRANCH   7  14
ATOM     13  C   UNL     1       6.637   4.596  15.081  0.00  0.00    +0.000 C 
ATOM     14  O   UNL     1       5.451   4.082  15.675  0.00  0.00    +0.000 OA
ENDBRANCH   7  14
ENDBRANCH   1  10
BRANCH   5  15
ATOM     15  C   UNL     1       0.540  10.810  19.022  0.00  0.00    +0.000 A 
ATOM     16  C   UNL     1      -0.802  10.971  18.677  0.00  0.00    +0.000 A 
ATOM     17  C   UNL     1      -1.254  12.214  18.253  0.00  0.00    +0.000 A 
ATOM     18  C   UNL     1      -0.359  13.274  18.185  0.00  0.00    +0.000 A 
ATOM     19  C   UNL     1       0.973  13.073  18.546  0.00  0.00    +0.000 A 
ATOM     20  N   UNL     1       1.420  11.850  18.953  0.00  0.00    +0.000 NA
BRANCH  19  21
ATOM     21  C   UNL     1       1.966  14.177  18.527  0.00  0.00    +0.000 A 
ATOM     22  C   UNL     1       1.601  15.512  18.716  0.00  0.00    +0.000 A 
ATOM     23  C   UNL     1       2.574  16.508  18.650  0.00  0.00    +0.000 A 
ATOM     24  C   UNL     1       3.891  16.156  18.398  0.00  0.00    +0.000 A 
ATOM     25  C   UNL     1       4.184  14.814  18.231  0.00  0.00    +0.000 A 
ATOM     26  N   UNL     1       3.262  13.829  18.291  0.00  0.00    +0.000 NA
ENDBRANCH  19  21
ENDBRANCH   5  15
TORSDOF 4
ENDMDL
MODEL 7
REMARK VINA RESULT:      -7.6      4.418      8.917
REMARK  Name = 
REMARK  5 active torsions:
REMARK  status: ('A' for Active; 'I' for Inactive)
REMARK    1  A    between atoms: C_1  and  O_2
REMARK    2  A    between atoms: O_2  and  C_3
REMARK    3  A    between atoms: C_6  and  C_7
REMARK    4  A    between atoms: C_11  and  C_12
REMARK    5  A    between atoms: C_16  and  C_17
REMARK                            x       y       z     vdW  Elec       q    Type
REMARK                         _______ _______ _______ _____ _____    ______ ____
ROOT
ATOM      1  C   UNL     1       2.354   7.367  19.067  0.00  0.00    +0.000 A 
ATOM      2  C   UNL     1       2.015   6.992  20.371  0.00  0.00    +0.000 A 
ATOM      3  C   UNL     1       1.241   7.841  21.144  0.00  0.00    +0.000 A 
ATOM      4  N   UNL     1       0.763   9.025  20.712  0.00  0.00    +0.000 NA
ATOM      5  C   UNL     1       1.071   9.405  19.443  0.00  0.00    +0.000 A 
ATOM      6  C   UNL     1       1.872   8.609  18.622  0.00  0.00    +0.000 A 
ENDROOT
BRANCH   1  10
ATOM      7  C   UNL     1       4.752   4.825  16.519  0.00  0.00    +0.000 A 
ATOM      8  C   UNL     1       5.027   6.186  16.619  0.00  0.00    +0.000 A 
ATOM      9  C   UNL     1       4.251   7.009  17.445  0.00  0.00    +0.000 A 
ATOM     10  C   UNL     1       3.176   6.497  18.191  0.00  0.00    +0.000 A 
ATOM     11  C   UNL     1       2.909   5.122  18.061  0.00  0.00    +0.000 A 
ATOM     12  C   UNL     1       3.680   4.296  17.230  0.00  0.00    +0.000 A 
BRANCH   7  14
ATOM     13  C   UNL     1       5.488   4.496  14.300  0.00  0.00    +0.000 C 
ATOM     14  O   UNL     1       5.563   4.123  15.671  0.00  0.00    +0.000 OA
ENDBRANCH   7  14
ENDBRANCH   1  10
BRANCH   5  15
ATOM     15  C   UNL     1       0.502  10.694  18.976  0.00  0.00    +0.000 A 
ATOM     16  C   UNL     1      -0.836  10.816  18.601  0.00  0.00    +0.000 A 
ATOM     17  C   UNL     1      -1.310  12.041  18.149  0.00  0.00    +0.000 A 
ATOM     18  C   UNL     1      -0.442  13.122  18.086  0.00  0.00    +0.000 A 
ATOM     19  C   UNL     1       0.887  12.960  18.478  0.00  0.00    +0.000 A 
ATOM     20  N   UNL     1       1.356  11.755  18.912  0.00  0.00    +0.000 NA
BRANCH  19  21
ATOM     21  C   UNL     1       1.852  14.089  18.466  0.00  0.00    +0.000 A 
ATOM     22  C   UNL     1       3.207  13.909  18.176  0.00  0.00    +0.000 A 
ATOM     23  C   UNL     1       4.071  15.003  18.217  0.00  0.00    +0.000 A 
ATOM     24  C   UNL     1       3.569  16.254  18.544  0.00  0.00    +0.000 A 
ATOM     25  C   UNL     1       2.216  16.362  18.809  0.00  0.00    +0.000 A 
ATOM     26  N   UNL     1       1.356  15.320  18.776  0.00  0.00    +0.000 NA
ENDBRANCH  19  21
ENDBRANCH   5  15
TORSDOF 4
ENDMDL
MODEL 8
REMARK VINA RESULT:      -7.6      0.837      1.491
REMARK  Name = 
REMARK  5 active torsions:
REMARK  status: ('A' for Active; 'I' for Inactive)
REMARK    1  A    between atoms: C_1  and  O_2
REMARK    2  A    between atoms: O_2  and  C_3
REMARK    3  A    between atoms: C_6  and  C_7
REMARK    4  A    between atoms: C_11  and  C_12
REMARK    5  A    between atoms: C_16  and  C_17
REMARK                            x       y       z     vdW  Elec       q    Type
REMARK                         _______ _______ _______ _____ _____    ______ ____
ROOT
ATOM      1  C   UNL     1       2.126   6.640  20.066  0.00  0.00    +0.000 A 
ATOM      2  C   UNL     1       1.501   5.438  20.411  0.00  0.00    +0.000 A 
ATOM      3  C   UNL     1       2.108   4.237  20.082  0.00  0.00    +0.000 A 
ATOM      4  N   UNL     1       3.296   4.142  19.452  0.00  0.00    +0.000 NA
ATOM      5  C   UNL     1       3.926   5.299  19.116  0.00  0.00    +0.000 A 
ATOM      6  C   UNL     1       3.355   6.543  19.394  0.00  0.00    +0.000 A 
ENDROOT
BRANCH   1  10
ATOM      7  C   UNL     1       0.386  10.480  21.030  0.00  0.00    +0.000 A 
ATOM      8  C   UNL     1       0.488   9.488  22.000  0.00  0.00    +0.000 A 
ATOM      9  C   UNL     1       1.052   8.245  21.688  0.00  0.00    +0.000 A 
ATOM     10  C   UNL     1       1.527   7.956  20.397  0.00  0.00    +0.000 A 
ATOM     11  C   UNL     1       1.399   8.970  19.431  0.00  0.00    +0.000 A 
ATOM     12  C   UNL     1       0.829  10.214  19.738  0.00  0.00    +0.000 A 
BRANCH   7  14
ATOM     13  C   UNL     1      -0.919  11.574  22.666  0.00  0.00    +0.000 C 
ATOM     14  O   UNL     1      -0.197  11.647  21.442  0.00  0.00    +0.000 OA
ENDBRANCH   7  14
ENDBRANCH   1  10
BRANCH   5  15
ATOM     15  C   UNL     1       5.251   5.170  18.459  0.00  0.00    +0.000 A 
ATOM     16  C   UNL     1       6.443   5.326  19.166  0.00  0.00    +0.000 A 
ATOM     17  C   UNL     1       7.654   5.217  18.496  0.00  0.00    +0.000 A 
ATOM     18  C   UNL     1       7.653   4.950  17.133  0.00  0.00    +0.000 A 
ATOM     19  C   UNL     1       6.439   4.793  16.465  0.00  0.00    +0.000 A 
ATOM     20  N   UNL     1       5.249   4.910  17.120  0.00  0.00    +0.000 NA
BRANCH  19  21
ATOM     21  C   UNL     1       6.377   4.472  15.016  0.00  0.00    +0.000 A 
ATOM     22  C   UNL     1       7.393   4.833  14.127  0.00  0.00    +0.000 A 
ATOM     23  C   UNL     1       7.260   4.536  12.771  0.00  0.00    +0.000 A 
ATOM     24  C   UNL     1       6.118   3.886  12.327  0.00  0.00    +0.000 A 
ATOM     25  C   UNL     1       5.157   3.550  13.262  0.00  0.00    +0.000 A 
ATOM     26  N   UNL     1       5.260   3.823  14.581  0.00  0.00    +0.000 NA
ENDBRANCH  19  21
ENDBRANCH   5  15
TORSDOF 4
ENDMDL
MODEL 9
REMARK VINA RESULT:      -7.5      3.739      9.506
REMARK  Name = 
REMARK  5 active torsions:
REMARK  status: ('A' for Active; 'I' for Inactive)
REMARK    1  A    between atoms: C_1  and  O_2
REMARK    2  A    between atoms: O_2  and  C_3
REMARK    3  A    between atoms: C_6  and  C_7
REMARK    4  A    between atoms: C_11  and  C_12
REMARK    5  A    between atoms: C_16  and  C_17
REMARK                            x       y       z     vdW  Elec       q    Type
REMARK                         _______ _______ _______ _____ _____    ______ ____
ROOT
ATOM      1  C   UNL     1       3.135   6.287  18.500  0.00  0.00    +0.000 A 
ATOM      2  C   UNL     1       2.669   5.560  19.601  0.00  0.00    +0.000 A 
ATOM      3  C   UNL     1       1.854   6.182  20.531  0.00  0.00    +0.000 A 
ATOM      4  N   UNL     1       1.452   7.466  20.440  0.00  0.00    +0.000 NA
ATOM      5  C   UNL     1       1.884   8.188  19.373  0.00  0.00    +0.000 A 
ATOM      6  C   UNL     1       2.732   7.629  18.414  0.00  0.00    +0.000 A 
ENDROOT
BRANCH   1  10
ATOM      7  C   UNL     1       5.672   4.499  15.488  0.00  0.00    +0.000 A 
ATOM      8  C   UNL     1       4.882   3.701  16.310  0.00  0.00    +0.000 A 
ATOM      9  C   UNL     1       4.059   4.280  17.285  0.00  0.00    +0.000 A 
ATOM     10  C   UNL     1       4.006   5.672  17.469  0.00  0.00    +0.000 A 
ATOM     11  C   UNL     1       4.824   6.456  16.636  0.00  0.00    +0.000 A 
ATOM     12  C   UNL     1       5.654   5.879  15.663  0.00  0.00    +0.000 A 
BRANCH   7  14
ATOM     13  C   UNL     1       5.924   3.750  13.264  0.00  0.00    +0.000 C 
ATOM     14  O   UNL     1       6.446   3.826  14.585  0.00  0.00    +0.000 OA
ENDBRANCH   7  14
ENDBRANCH   1  10
BRANCH   5  15
ATOM     15  C   UNL     1       1.398   9.587  19.273  0.00  0.00    +0.000 A 
ATOM     16  C   UNL     1       1.896  10.475  18.320  0.00  0.00    +0.000 A 
ATOM     17  C   UNL     1       1.421  11.779  18.287  0.00  0.00    +0.000 A 
ATOM     18  C   UNL     1       0.454  12.172  19.202  0.00  0.00    +0.000 A 
ATOM     19  C   UNL     1      -0.024  11.251  20.135  0.00  0.00    +0.000 A 
ATOM     20  N   UNL     1       0.450   9.973  20.175  0.00  0.00    +0.000 NA
BRANCH  19  21
ATOM     21  C   UNL     1      -1.082  11.604  21.114  0.00  0.00    +0.000 A 
ATOM     22  C   UNL     1      -2.167  12.420  20.780  0.00  0.00    +0.000 A 
ATOM     23  C   UNL     1      -3.109  12.746  21.755  0.00  0.00    +0.000 A 
ATOM     24  C   UNL     1      -2.954  12.255  23.042  0.00  0.00    +0.000 A 
ATOM     25  C   UNL     1      -1.863  11.445  23.301  0.00  0.00    +0.000 A 
ATOM     26  N   UNL     1      -0.936  11.111  22.377  0.00  0.00    +0.000 NA
ENDBRANCH  19  21
ENDBRANCH   5  15
TORSDOF 4
ENDMDL
