MODEL 1
REMARK VINA RESULT:      -7.2      0.000      0.000
REMARK  Name = 
REMARK  9 active torsions:
REMARK  status: ('A' for Active; 'I' for Inactive)
REMARK    1  A    between atoms: C_1  and  C_2
REMARK    2  A    between atoms: C_2  and  O_3
REMARK    3  A    between atoms: O_3  and  C_4
REMARK    4  A    between atoms: C_9  and  C_10
REMARK    5  A    between atoms: C_22  and  O_23
REMARK    6  A    between atoms: O_23  and  C_24
REMARK    7  A    between atoms: C_24  and  C_25
REMARK    8  A    between atoms: C_26  and  O_27
REMARK    9  A    between atoms: O_27  and  C_28
REMARK                            x       y       z     vdW  Elec       q    Type
REMARK                         _______ _______ _______ _____ _____    ______ ____
ROOT
ATOM      1  C   UNL     1       4.582   5.012  17.724  0.00  0.00    +0.000 A 
ATOM      2  C   UNL     1       4.169   6.235  17.204  0.00  0.00    +0.000 A 
ATOM      3  C   UNL     1       3.270   7.029  17.898  0.00  0.00    +0.000 A 
ATOM      4  O   UNL     1       2.989   8.223  17.279  0.00  0.00    +0.000 OA
ATOM      5  C   UNL     1       2.261   9.137  17.984  0.00  0.00    +0.000 A 
ATOM      6  C   UNL     1       1.585   8.891  19.111  0.00  0.00    +0.000 A 
ATOM      7  C   UNL     1       1.623   7.482  19.613  0.00  0.00    +0.000 A 
ATOM      8  O   UNL     1       0.740   7.068  20.356  0.00  0.00    +0.000 OA
ATOM      9  C   UNL     1       2.714   6.612  19.114  0.00  0.00    +0.000 A 
ATOM     10  C   UNL     1       3.149   5.397  19.702  0.00  0.00    +0.000 A 
ATOM     11  C   UNL     1       4.082   4.587  18.983  0.00  0.00    +0.000 A 
ENDROOT
BRANCH   6  12
ATOM     12  C   UNL     1       0.778   9.860  19.774  0.00  0.00    +0.000 A 
ATOM     13  C   UNL     1       1.157  10.402  20.983  0.00  0.00    +0.000 A 
ATOM     14  S   UNL     1       0.051  11.573  21.532  0.00  0.00    +0.000 S 
ATOM     15  C   UNL     1      -0.955  11.381  20.148  0.00  0.00    +0.000 A 
ATOM     16  C   UNL     1      -2.137  12.094  19.865  0.00  0.00    +0.000 A 
ATOM     17  C   UNL     1      -2.840  11.806  18.695  0.00  0.00    +0.000 A 
ATOM     18  C   UNL     1      -2.387  10.825  17.826  0.00  0.00    +0.000 A 
ATOM     19  C   UNL     1      -1.210  10.122  18.106  0.00  0.00    +0.000 A 
ATOM     20  C   UNL     1      -0.462  10.399  19.280  0.00  0.00    +0.000 A 
ENDBRANCH   6  12
BRANCH  11  21
ATOM     21  O   UNL     1       4.648   3.413  19.429  0.00  0.00    +0.000 OA
ATOM     22  C   UNL     1       4.040   2.176  19.086  0.00  0.00    +0.000 C 
ENDBRANCH  11  21
BRANCH   1  23
ATOM     23  O   UNL     1       5.466   4.188  17.053  0.00  0.00    +0.000 OA
BRANCH  23  25
ATOM     24  C   UNL     1       7.683   4.735  17.886  0.00  0.00    +0.000 C 
ATOM     25  C   UNL     1       6.728   4.774  16.710  0.00  0.00    +0.000 C 
ENDBRANCH  23  25
ENDBRANCH   1  23
BRANCH  10  26
ATOM     26  O   UNL     1       2.710   4.897  20.904  0.00  0.00    +0.000 OA
BRANCH  26  27
ATOM     27  C   UNL     1       1.584   4.015  20.929  0.00  0.00    +0.000 C 
ATOM     28  C   UNL     1       1.880   2.837  21.847  0.00  0.00    +0.000 C 
ENDBRANCH  26  27
ENDBRANCH  10  26
TORSDOF 6
ENDMDL
MODEL 2
REMARK VINA RESULT:      -7.2      3.125      8.401
REMARK  Name = 
REMARK  9 active torsions:
REMARK  status: ('A' for Active; 'I' for Inactive)
REMARK    1  A    between atoms: C_1  and  C_2
REMARK    2  A    between atoms: C_2  and  O_3
REMARK    3  A    between atoms: O_3  and  C_4
REMARK    4  A    between atoms: C_9  and  C_10
REMARK    5  A    between atoms: C_22  and  O_23
REMARK    6  A    between atoms: O_23  and  C_24
REMARK    7  A    between atoms: C_24  and  C_25
REMARK    8  A    between atoms: C_26  and  O_27
REMARK    9  A    between atoms: O_27  and  C_28
REMARK                            x       y       z     vdW  Elec       q    Type
REMARK                         _______ _______ _______ _____ _____    ______ ____
ROOT
ATOM      1  C   UNL     1      -0.169  11.485  21.578  0.00  0.00    +0.000 A 
ATOM      2  C   UNL     1       0.080  10.133  21.786  0.00  0.00    +0.000 A 
ATOM      3  C   UNL     1       0.756   9.386  20.834  0.00  0.00    +0.000 A 
ATOM      4  O   UNL     1       0.963   8.076  21.197  0.00  0.00    +0.000 OA
ATOM      5  C   UNL     1       1.779   7.327  20.400  0.00  0.00    +0.000 A 
ATOM      6  C   UNL     1       2.191   7.665  19.173  0.00  0.00    +0.000 A 
ATOM      7  C   UNL     1       1.685   8.967  18.638  0.00  0.00    +0.000 A 
ATOM      8  O   UNL     1       1.650   9.165  17.429  0.00  0.00    +0.000 OA
ATOM      9  C   UNL     1       1.166   9.949  19.619  0.00  0.00    +0.000 A 
ATOM     10  C   UNL     1       0.975  11.336  19.392  0.00  0.00    +0.000 A 
ATOM     11  C   UNL     1       0.285  12.101  20.383  0.00  0.00    +0.000 A 
ENDROOT
BRANCH   6  12
ATOM     12  C   UNL     1       2.984   6.818  18.347  0.00  0.00    +0.000 A 
ATOM     13  C   UNL     1       4.109   7.290  17.706  0.00  0.00    +0.000 A 
ATOM     14  S   UNL     1       4.906   6.067  16.832  0.00  0.00    +0.000 S 
ATOM     15  C   UNL     1       3.759   4.875  17.307  0.00  0.00    +0.000 A 
ATOM     16  C   UNL     1       3.780   3.508  16.965  0.00  0.00    +0.000 A 
ATOM     17  C   UNL     1       2.761   2.676  17.431  0.00  0.00    +0.000 A 
ATOM     18  C   UNL     1       1.736   3.189  18.211  0.00  0.00    +0.000 A 
ATOM     19  C   UNL     1       1.720   4.545  18.553  0.00  0.00    +0.000 A 
ATOM     20  C   UNL     1       2.748   5.417  18.109  0.00  0.00    +0.000 A 
ENDBRANCH   6  12
BRANCH  11  21
ATOM     21  O   UNL     1       0.064  13.461  20.349  0.00  0.00    +0.000 OA
ATOM     22  C   UNL     1      -0.952  13.978  19.503  0.00  0.00    +0.000 C 
ENDBRANCH  11  21
BRANCH   1  23
ATOM     23  O   UNL     1      -0.852  12.258  22.499  0.00  0.00    +0.000 OA
BRANCH  23  25
ATOM     24  C   UNL     1      -3.136  12.369  23.326  0.00  0.00    +0.000 C 
ATOM     25  C   UNL     1      -1.847  11.573  23.272  0.00  0.00    +0.000 C 
ENDBRANCH  23  25
ENDBRANCH   1  23
BRANCH  10  26
ATOM     26  O   UNL     1       1.364  12.015  18.262  0.00  0.00    +0.000 OA
BRANCH  26  27
ATOM     27  C   UNL     1       2.704  12.505  18.165  0.00  0.00    +0.000 C 
ATOM     28  C   UNL     1       2.690  14.027  18.152  0.00  0.00    +0.000 C 
ENDBRANCH  26  27
ENDBRANCH  10  26
TORSDOF 6
ENDMDL
MODEL 3
REMARK VINA RESULT:      -6.6      3.058      8.430
REMARK  Name = 
REMARK  9 active torsions:
REMARK  status: ('A' for Active; 'I' for Inactive)
REMARK    1  A    between atoms: C_1  and  C_2
REMARK    2  A    between atoms: C_2  and  O_3
REMARK    3  A    between atoms: O_3  and  C_4
REMARK    4  A    between atoms: C_9  and  C_10
REMARK    5  A    between atoms: C_22  and  O_23
REMARK    6  A    between atoms: O_23  and  C_24
REMARK    7  A    between atoms: C_24  and  C_25
REMARK    8  A    between atoms: C_26  and  O_27
REMARK    9  A    between atoms: O_27  and  C_28
REMARK                            x       y       z     vdW  Elec       q    Type
REMARK                         _______ _______ _______ _____ _____    ______ ____
ROOT
ATOM      1  C   UNL     1      -0.525  11.400  22.259  0.00  0.00    +0.000 A 
ATOM      2  C   UNL     1      -0.119  10.079  22.412  0.00  0.00    +0.000 A 
ATOM      3  C   UNL     1       0.517   9.412  21.377  0.00  0.00    +0.000 A 
ATOM      4  O   UNL     1       0.894   8.128  21.689  0.00  0.00    +0.000 OA
ATOM      5  C   UNL     1       1.687   7.472  20.793  0.00  0.00    +0.000 A 
ATOM      6  C   UNL     1       1.923   7.860  19.535  0.00  0.00    +0.000 A 
ATOM      7  C   UNL     1       1.232   9.109  19.084  0.00  0.00    +0.000 A 
ATOM      8  O   UNL     1       1.044   9.312  17.890  0.00  0.00    +0.000 OA
ATOM      9  C   UNL     1       0.730  10.025  20.135  0.00  0.00    +0.000 A 
ATOM     10  C   UNL     1       0.378  11.387  19.957  0.00  0.00    +0.000 A 
ATOM     11  C   UNL     1      -0.271  12.069  21.033  0.00  0.00    +0.000 A 
ENDROOT
BRANCH   6  12
ATOM     12  C   UNL     1       2.700   7.105  18.610  0.00  0.00    +0.000 A 
ATOM     13  C   UNL     1       3.733   7.681  17.902  0.00  0.00    +0.000 A 
ATOM     14  S   UNL     1       4.535   6.554  16.912  0.00  0.00    +0.000 S 
ATOM     15  C   UNL     1       3.515   5.265  17.423  0.00  0.00    +0.000 A 
ATOM     16  C   UNL     1       3.601   3.917  17.020  0.00  0.00    +0.000 A 
ATOM     17  C   UNL     1       2.683   2.997  17.529  0.00  0.00    +0.000 A 
ATOM     18  C   UNL     1       1.695   3.404  18.412  0.00  0.00    +0.000 A 
ATOM     19  C   UNL     1       1.615   4.742  18.815  0.00  0.00    +0.000 A 
ATOM     20  C   UNL     1       2.541   5.701  18.329  0.00  0.00    +0.000 A 
ENDBRANCH   6  12
BRANCH  11  21
ATOM     21  O   UNL     1      -0.629  13.400  21.050  0.00  0.00    +0.000 OA
ATOM     22  C   UNL     1       0.342  14.374  21.402  0.00  0.00    +0.000 C 
ENDBRANCH  11  21
BRANCH   1  23
ATOM     23  O   UNL     1      -1.174  12.092  23.265  0.00  0.00    +0.000 OA
BRANCH  23  25
ATOM     24  C   UNL     1      -3.357  13.159  23.350  0.00  0.00    +0.000 C 
ATOM     25  C   UNL     1      -2.584  11.856  23.374  0.00  0.00    +0.000 C 
ENDBRANCH  23  25
ENDBRANCH   1  23
BRANCH  10  26
ATOM     26  O   UNL     1       0.568  12.111  18.805  0.00  0.00    +0.000 OA
BRANCH  26  27
ATOM     27  C   UNL     1      -0.562  12.687  18.144  0.00  0.00    +0.000 C 
ATOM     28  C   UNL     1      -1.591  11.604  17.856  0.00  0.00    +0.000 C 
ENDBRANCH  26  27
ENDBRANCH  10  26
TORSDOF 6
ENDMDL
MODEL 4
REMARK VINA RESULT:      -6.6      1.252      2.154
REMARK  Name = 
REMARK  9 active torsions:
REMARK  status: ('A' for Active; 'I' for Inactive)
REMARK    1  A    between atoms: C_1  and  C_2
REMARK    2  A    between atoms: C_2  and  O_3
REMARK    3  A    between atoms: O_3  and  C_4
REMARK    4  A    between atoms: C_9  and  C_10
REMARK    5  A    between atoms: C_22  and  O_23
REMARK    6  A    between atoms: O_23  and  C_24
REMARK    7  A    between atoms: C_24  and  C_25
REMARK    8  A    between atoms: C_26  and  O_27
REMARK    9  A    between atoms: O_27  and  C_28
REMARK                            x       y       z     vdW  Elec       q    Type
REMARK                         _______ _______ _______ _____ _____    ______ ____
ROOT
ATOM      1  C   UNL     1       5.205   4.876  18.027  0.00  0.00    +0.000 A 
ATOM      2  C   UNL     1       4.826   6.077  17.437  0.00  0.00    +0.000 A 
ATOM      3  C   UNL     1       3.778   6.819  17.959  0.00  0.00    +0.000 A 
ATOM      4  O   UNL     1       3.547   8.000  17.295  0.00  0.00    +0.000 OA
ATOM      5  C   UNL     1       2.659   8.871  17.857  0.00  0.00    +0.000 A 
ATOM      6  C   UNL     1       1.810   8.584  18.849  0.00  0.00    +0.000 A 
ATOM      7  C   UNL     1       1.834   7.176  19.356  0.00  0.00    +0.000 A 
ATOM      8  O   UNL     1       0.857   6.713  19.934  0.00  0.00    +0.000 OA
ATOM      9  C   UNL     1       3.040   6.368  19.060  0.00  0.00    +0.000 A 
ATOM     10  C   UNL     1       3.428   5.174  19.720  0.00  0.00    +0.000 A 
ATOM     11  C   UNL     1       4.515   4.419  19.180  0.00  0.00    +0.000 A 
ENDROOT
BRANCH   6  12
ATOM     12  C   UNL     1       0.849   9.505  19.356  0.00  0.00    +0.000 A 
ATOM     13  C   UNL     1       0.119  10.317  18.514  0.00  0.00    +0.000 A 
ATOM     14  S   UNL     1      -0.997  11.279  19.365  0.00  0.00    +0.000 S 
ATOM     15  C   UNL     1      -0.528  10.616  20.883  0.00  0.00    +0.000 A 
ATOM     16  C   UNL     1      -1.076  10.932  22.142  0.00  0.00    +0.000 A 
ATOM     17  C   UNL     1      -0.570  10.303  23.280  0.00  0.00    +0.000 A 
ATOM     18  C   UNL     1       0.466   9.386  23.175  0.00  0.00    +0.000 A 
ATOM     19  C   UNL     1       1.005   9.070  21.923  0.00  0.00    +0.000 A 
ATOM     20  C   UNL     1       0.504   9.680  20.744  0.00  0.00    +0.000 A 
ENDBRANCH   6  12
BRANCH  11  21
ATOM     21  O   UNL     1       5.055   3.273  19.724  0.00  0.00    +0.000 OA
ATOM     22  C   UNL     1       4.450   2.020  19.441  0.00  0.00    +0.000 C 
ENDBRANCH  11  21
BRANCH   1  23
ATOM     23  O   UNL     1       6.235   4.103  17.526  0.00  0.00    +0.000 OA
BRANCH  23  25
ATOM     24  C   UNL     1       6.132   3.764  15.120  0.00  0.00    +0.000 C 
ATOM     25  C   UNL     1       6.773   4.522  16.265  0.00  0.00    +0.000 C 
ENDBRANCH  23  25
ENDBRANCH   1  23
BRANCH  10  26
ATOM     26  O   UNL     1       2.812   4.646  20.829  0.00  0.00    +0.000 OA
BRANCH  26  27
ATOM     27  C   UNL     1       1.670   3.801  20.662  0.00  0.00    +0.000 C 
ATOM     28  C   UNL     1       1.693   2.699  21.712  0.00  0.00    +0.000 C 
ENDBRANCH  26  27
ENDBRANCH  10  26
TORSDOF 6
ENDMDL
MODEL 5
REMARK VINA RESULT:      -6.5      2.863      7.533
REMARK  Name = 
REMARK  9 active torsions:
REMARK  status: ('A' for Active; 'I' for Inactive)
REMARK    1  A    between atoms: C_1  and  C_2
REMARK    2  A    between atoms: C_2  and  O_3
REMARK    3  A    between atoms: O_3  and  C_4
REMARK    4  A    between atoms: C_9  and  C_10
REMARK    5  A    between atoms: C_22  and  O_23
REMARK    6  A    between atoms: O_23  and  C_24
REMARK    7  A    between atoms: C_24  and  C_25
REMARK    8  A    between atoms: C_26  and  O_27
REMARK    9  A    between atoms: O_27  and  C_28
REMARK                            x       y       z     vdW  Elec       q    Type
REMARK                         _______ _______ _______ _____ _____    ______ ____
ROOT
ATOM      1  C   UNL     1       0.104  11.357  18.695  0.00  0.00    +0.000 A 
ATOM      2  C   UNL     1       1.074  10.783  17.880  0.00  0.00    +0.000 A 
ATOM      3  C   UNL     1       1.634   9.558  18.205  0.00  0.00    +0.000 A 
ATOM      4  O   UNL     1       2.547   9.101  17.285  0.00  0.00    +0.000 OA
ATOM      5  C   UNL     1       3.002   7.823  17.436  0.00  0.00    +0.000 A 
ATOM      6  C   UNL     1       2.842   7.065  18.525  0.00  0.00    +0.000 A 
ATOM      7  C   UNL     1       2.119   7.696  19.674  0.00  0.00    +0.000 A 
ATOM      8  O   UNL     1       2.282   7.272  20.812  0.00  0.00    +0.000 OA
ATOM      9  C   UNL     1       1.281   8.882  19.380  0.00  0.00    +0.000 A 
ATOM     10  C   UNL     1       0.259   9.409  20.210  0.00  0.00    +0.000 A 
ATOM     11  C   UNL     1      -0.319  10.670  19.863  0.00  0.00    +0.000 A 
ENDROOT
BRANCH   6  12
ATOM     12  C   UNL     1       3.398   5.761  18.667  0.00  0.00    +0.000 A 
ATOM     13  C   UNL     1       4.753   5.573  18.834  0.00  0.00    +0.000 A 
ATOM     14  S   UNL     1       5.150   3.931  19.037  0.00  0.00    +0.000 S 
ATOM     15  C   UNL     1       3.504   3.440  18.915  0.00  0.00    +0.000 A 
ATOM     16  C   UNL     1       3.011   2.124  19.023  0.00  0.00    +0.000 A 
ATOM     17  C   UNL     1       1.641   1.900  18.890  0.00  0.00    +0.000 A 
ATOM     18  C   UNL     1       0.775   2.956  18.646  0.00  0.00    +0.000 A 
ATOM     19  C   UNL     1       1.266   4.262  18.544  0.00  0.00    +0.000 A 
ATOM     20  C   UNL     1       2.653   4.528  18.688  0.00  0.00    +0.000 A 
ENDBRANCH   6  12
BRANCH  11  21
ATOM     21  O   UNL     1      -1.354  11.296  20.522  0.00  0.00    +0.000 OA
ATOM     22  C   UNL     1      -1.059  12.318  21.463  0.00  0.00    +0.000 C 
ENDBRANCH  11  21
BRANCH   1  23
ATOM     23  O   UNL     1      -0.466  12.584  18.410  0.00  0.00    +0.000 OA
BRANCH  23  25
ATOM     24  C   UNL     1      -0.258  14.956  18.899  0.00  0.00    +0.000 C 
ATOM     25  C   UNL     1       0.432  13.701  18.402  0.00  0.00    +0.000 C 
ENDBRANCH  23  25
ENDBRANCH   1  23
BRANCH  10  26
ATOM     26  O   UNL     1      -0.204   8.825  21.365  0.00  0.00    +0.000 OA
BRANCH  26  27
ATOM     27  C   UNL     1       0.441   9.120  22.607  0.00  0.00    +0.000 C 
ATOM     28  C   UNL     1      -0.553   9.783  23.551  0.00  0.00    +0.000 C 
ENDBRANCH  26  27
ENDBRANCH  10  26
TORSDOF 6
ENDMDL
MODEL 6
REMARK VINA RESULT:      -6.5      1.905      4.040
REMARK  Name = 
REMARK  9 active torsions:
REMARK  status: ('A' for Active; 'I' for Inactive)
REMARK    1  A    between atoms: C_1  and  C_2
REMARK    2  A    between atoms: C_2  and  O_3
REMARK    3  A    between atoms: O_3  and  C_4
REMARK    4  A    between atoms: C_9  and  C_10
REMARK    5  A    between atoms: C_22  and  O_23
REMARK    6  A    between atoms: O_23  and  C_24
REMARK    7  A    between atoms: C_24  and  C_25
REMARK    8  A    between atoms: C_26  and  O_27
REMARK    9  A    between atoms: O_27  and  C_28
REMARK                            x       y       z     vdW  Elec       q    Type
REMARK                         _______ _______ _______ _____ _____    ______ ____
ROOT
ATOM      1  C   UNL     1       2.905   4.858  20.261  0.00  0.00    +0.000 A 
ATOM      2  C   UNL     1       2.128   5.753  20.990  0.00  0.00    +0.000 A 
ATOM      3  C   UNL     1       1.760   6.973  20.445  0.00  0.00    +0.000 A 
ATOM      4  O   UNL     1       0.961   7.731  21.267  0.00  0.00    +0.000 OA
ATOM      5  C   UNL     1       0.405   8.858  20.735  0.00  0.00    +0.000 A 
ATOM      6  C   UNL     1       0.760   9.428  19.578  0.00  0.00    +0.000 A 
ATOM      7  C   UNL     1       1.879   8.773  18.831  0.00  0.00    +0.000 A 
ATOM      8  O   UNL     1       2.539   9.415  18.022  0.00  0.00    +0.000 OA
ATOM      9  C   UNL     1       2.191   7.365  19.171  0.00  0.00    +0.000 A 
ATOM     10  C   UNL     1       2.940   6.459  18.378  0.00  0.00    +0.000 A 
ATOM     11  C   UNL     1       3.309   5.200  18.944  0.00  0.00    +0.000 A 
ENDROOT
BRANCH   6  12
ATOM     12  C   UNL     1       0.202  10.646  19.095  0.00  0.00    +0.000 A 
ATOM     13  C   UNL     1      -0.940  10.656  18.323  0.00  0.00    +0.000 A 
ATOM     14  S   UNL     1      -1.428  12.237  17.926  0.00  0.00    +0.000 S 
ATOM     15  C   UNL     1      -0.120  12.941  18.795  0.00  0.00    +0.000 A 
ATOM     16  C   UNL     1       0.138  14.318  18.954  0.00  0.00    +0.000 A 
ATOM     17  C   UNL     1       1.255  14.719  19.687  0.00  0.00    +0.000 A 
ATOM     18  C   UNL     1       2.105  13.777  20.246  0.00  0.00    +0.000 A 
ATOM     19  C   UNL     1       1.845  12.411  20.092  0.00  0.00    +0.000 A 
ATOM     20  C   UNL     1       0.710  11.967  19.364  0.00  0.00    +0.000 A 
ENDBRANCH   6  12
BRANCH  11  21
ATOM     21  O   UNL     1       3.983   4.187  18.298  0.00  0.00    +0.000 OA
ATOM     22  C   UNL     1       3.272   3.339  17.407  0.00  0.00    +0.000 C 
ENDBRANCH  11  21
BRANCH   1  23
ATOM     23  O   UNL     1       3.303   3.639  20.777  0.00  0.00    +0.000 OA
BRANCH  23  25
ATOM     24  C   UNL     1       1.186   2.496  20.428  0.00  0.00    +0.000 C 
ATOM     25  C   UNL     1       2.278   2.866  21.412  0.00  0.00    +0.000 C 
ENDBRANCH  23  25
ENDBRANCH   1  23
BRANCH  10  26
ATOM     26  O   UNL     1       3.389   6.708  17.103  0.00  0.00    +0.000 OA
BRANCH  26  27
ATOM     27  C   UNL     1       4.781   6.953  16.884  0.00  0.00    +0.000 C 
ATOM     28  C   UNL     1       5.262   6.131  15.696  0.00  0.00    +0.000 C 
ENDBRANCH  26  27
ENDBRANCH  10  26
TORSDOF 6
ENDMDL
MODEL 7
REMARK VINA RESULT:      -6.4      2.974      8.224
REMARK  Name = 
REMARK  9 active torsions:
REMARK  status: ('A' for Active; 'I' for Inactive)
REMARK    1  A    between atoms: C_1  and  C_2
REMARK    2  A    between atoms: C_2  and  O_3
REMARK    3  A    between atoms: O_3  and  C_4
REMARK    4  A    between atoms: C_9  and  C_10
REMARK    5  A    between atoms: C_22  and  O_23
REMARK    6  A    between atoms: O_23  and  C_24
REMARK    7  A    between atoms: C_24  and  C_25
REMARK    8  A    between atoms: C_26  and  O_27
REMARK    9  A    between atoms: O_27  and  C_28
REMARK                            x       y       z     vdW  Elec       q    Type
REMARK                         _______ _______ _______ _____ _____    ______ ____
ROOT
ATOM      1  C   UNL     1       0.307  10.617  21.770  0.00  0.00    +0.000 A 
ATOM      2  C   UNL     1       0.582   9.275  22.012  0.00  0.00    +0.000 A 
ATOM      3  C   UNL     1       1.115   8.474  21.015  0.00  0.00    +0.000 A 
ATOM      4  O   UNL     1       1.371   7.183  21.415  0.00  0.00    +0.000 OA
ATOM      5  C   UNL     1       2.065   6.387  20.551  0.00  0.00    +0.000 A 
ATOM      6  C   UNL     1       2.299   6.656  19.263  0.00  0.00    +0.000 A 
ATOM      7  C   UNL     1       1.723   7.933  18.736  0.00  0.00    +0.000 A 
ATOM      8  O   UNL     1       1.519   8.067  17.535  0.00  0.00    +0.000 OA
ATOM      9  C   UNL     1       1.349   8.969  19.726  0.00  0.00    +0.000 A 
ATOM     10  C   UNL     1       1.130  10.344  19.455  0.00  0.00    +0.000 A 
ATOM     11  C   UNL     1       0.587  11.165  20.492  0.00  0.00    +0.000 A 
ENDROOT
BRANCH   6  12
ATOM     12  C   UNL     1       2.967   5.760  18.379  0.00  0.00    +0.000 A 
ATOM     13  C   UNL     1       2.383   4.577  17.980  0.00  0.00    +0.000 A 
ATOM     14  S   UNL     1       3.360   3.721  16.882  0.00  0.00    +0.000 S 
ATOM     15  C   UNL     1       4.585   4.930  16.912  0.00  0.00    +0.000 A 
ATOM     16  C   UNL     1       5.785   4.928  16.172  0.00  0.00    +0.000 A 
ATOM     17  C   UNL     1       6.677   5.990  16.323  0.00  0.00    +0.000 A 
ATOM     18  C   UNL     1       6.393   7.029  17.196  0.00  0.00    +0.000 A 
ATOM     19  C   UNL     1       5.198   7.032  17.925  0.00  0.00    +0.000 A 
ATOM     20  C   UNL     1       4.262   5.975  17.786  0.00  0.00    +0.000 A 
ENDBRANCH   6  12
BRANCH  11  21
ATOM     21  O   UNL     1       0.366  12.523  20.418  0.00  0.00    +0.000 OA
ATOM     22  C   UNL     1      -0.821  12.999  19.800  0.00  0.00    +0.000 C 
ENDBRANCH  11  21
BRANCH   1  23
ATOM     23  O   UNL     1      -0.239  11.442  22.736  0.00  0.00    +0.000 OA
BRANCH  23  25
ATOM     24  C   UNL     1      -2.469  12.315  23.154  0.00  0.00    +0.000 C 
ATOM     25  C   UNL     1      -1.560  11.102  23.174  0.00  0.00    +0.000 C 
ENDBRANCH  23  25
ENDBRANCH   1  23
BRANCH  10  26
ATOM     26  O   UNL     1       1.356  10.959  18.247  0.00  0.00    +0.000 OA
BRANCH  26  27
ATOM     27  C   UNL     1       2.639  11.532  17.981  0.00  0.00    +0.000 C 
ATOM     28  C   UNL     1       2.536  13.051  18.021  0.00  0.00    +0.000 C 
ENDBRANCH  26  27
ENDBRANCH  10  26
TORSDOF 6
ENDMDL
MODEL 8
REMARK VINA RESULT:      -6.3      1.082      1.260
REMARK  Name = 
REMARK  9 active torsions:
REMARK  status: ('A' for Active; 'I' for Inactive)
REMARK    1  A    between atoms: C_1  and  C_2
REMARK    2  A    between atoms: C_2  and  O_3
REMARK    3  A    between atoms: O_3  and  C_4
REMARK    4  A    between atoms: C_9  and  C_10
REMARK    5  A    between atoms: C_22  and  O_23
REMARK    6  A    between atoms: O_23  and  C_24
REMARK    7  A    between atoms: C_24  and  C_25
REMARK    8  A    between atoms: C_26  and  O_27
REMARK    9  A    between atoms: O_27  and  C_28
REMARK                            x       y       z     vdW  Elec       q    Type
REMARK                         _______ _______ _______ _____ _____    ______ ____
ROOT
ATOM      1  C   UNL     1       4.262   5.873  17.406  0.00  0.00    +0.000 A 
ATOM      2  C   UNL     1       3.750   7.089  16.965  0.00  0.00    +0.000 A 
ATOM      3  C   UNL     1       2.879   7.817  17.760  0.00  0.00    +0.000 A 
ATOM      4  O   UNL     1       2.490   9.015  17.209  0.00  0.00    +0.000 OA
ATOM      5  C   UNL     1       1.785   9.870  18.004  0.00  0.00    +0.000 A 
ATOM      6  C   UNL     1       1.222   9.558  19.176  0.00  0.00    +0.000 A 
ATOM      7  C   UNL     1       1.368   8.137  19.624  0.00  0.00    +0.000 A 
ATOM      8  O   UNL     1       0.573   7.659  20.425  0.00  0.00    +0.000 OA
ATOM      9  C   UNL     1       2.450   7.337  19.004  0.00  0.00    +0.000 A 
ATOM     10  C   UNL     1       2.990   6.127  19.511  0.00  0.00    +0.000 A 
ATOM     11  C   UNL     1       3.894   5.386  18.687  0.00  0.00    +0.000 A 
ENDROOT
BRANCH   6  12
ATOM     12  C   UNL     1       0.432  10.465  19.938  0.00  0.00    +0.000 A 
ATOM     13  C   UNL     1       0.899  11.009  21.115  0.00  0.00    +0.000 A 
ATOM     14  S   UNL     1      -0.211  12.102  21.798  0.00  0.00    +0.000 S 
ATOM     15  C   UNL     1      -1.339  11.874  20.518  0.00  0.00    +0.000 A 
ATOM     16  C   UNL     1      -2.583  12.520  20.372  0.00  0.00    +0.000 A 
ATOM     17  C   UNL     1      -3.383  12.210  19.271  0.00  0.00    +0.000 A 
ATOM     18  C   UNL     1      -2.965  11.273  18.339  0.00  0.00    +0.000 A 
ATOM     19  C   UNL     1      -1.727  10.637  18.483  0.00  0.00    +0.000 A 
ATOM     20  C   UNL     1      -0.881  10.938  19.583  0.00  0.00    +0.000 A 
ENDBRANCH   6  12
BRANCH  11  21
ATOM     21  O   UNL     1       4.550   4.228  19.043  0.00  0.00    +0.000 OA
ATOM     22  C   UNL     1       5.909   4.297  19.448  0.00  0.00    +0.000 C 
ENDBRANCH  11  21
BRANCH   1  23
ATOM     23  O   UNL     1       5.121   5.113  16.634  0.00  0.00    +0.000 OA
BRANCH  23  25
ATOM     24  C   UNL     1       5.800   4.714  14.334  0.00  0.00    +0.000 C 
ATOM     25  C   UNL     1       5.599   5.736  15.435  0.00  0.00    +0.000 C 
ENDBRANCH  23  25
ENDBRANCH   1  23
BRANCH  10  26
ATOM     26  O   UNL     1       2.681   5.570  20.729  0.00  0.00    +0.000 OA
BRANCH  26  27
ATOM     27  C   UNL     1       1.701   4.532  20.797  0.00  0.00    +0.000 C 
ATOM     28  C   UNL     1       2.236   3.380  21.635  0.00  0.00    +0.000 C 
ENDBRANCH  26  27
ENDBRANCH  10  26
TORSDOF 6
ENDMDL
MODEL 9
REMARK VINA RESULT:      -6.2      1.574      3.530
REMARK  Name = 
REMARK  9 active torsions:
REMARK  status: ('A' for Active; 'I' for Inactive)
REMARK    1  A    between atoms: C_1  and  C_2
REMARK    2  A    between atoms: C_2  and  O_3
REMARK    3  A    between atoms: O_3  and  C_4
REMARK    4  A    between atoms: C_9  and  C_10
REMARK    5  A    between atoms: C_22  and  O_23
REMARK    6  A    between atoms: O_23  and  C_24
REMARK    7  A    between atoms: C_24  and  C_25
REMARK    8  A    between atoms: C_26  and  O_27
REMARK    9  A    between atoms: O_27  and  C_28
REMARK                            x       y       z     vdW  Elec       q    Type
REMARK                         _______ _______ _______ _____ _____    ______ ____
ROOT
ATOM      1  C   UNL     1       3.109   4.481  20.169  0.00  0.00    +0.000 A 
ATOM      2  C   UNL     1       2.355   5.332  20.971  0.00  0.00    +0.000 A 
ATOM      3  C   UNL     1       1.966   6.578  20.507  0.00  0.00    +0.000 A 
ATOM      4  O   UNL     1       1.193   7.287  21.395  0.00  0.00    +0.000 OA
ATOM      5  C   UNL     1       0.617   8.439  20.944  0.00  0.00    +0.000 A 
ATOM      6  C   UNL     1       0.933   9.073  19.810  0.00  0.00    +0.000 A 
ATOM      7  C   UNL     1       2.029   8.465  18.992  0.00  0.00    +0.000 A 
ATOM      8  O   UNL     1       2.660   9.153  18.198  0.00  0.00    +0.000 OA
ATOM      9  C   UNL     1       2.354   7.041  19.243  0.00  0.00    +0.000 A 
ATOM     10  C   UNL     1       3.079   6.184  18.377  0.00  0.00    +0.000 A 
ATOM     11  C   UNL     1       3.469   4.897  18.860  0.00  0.00    +0.000 A 
ENDROOT
BRANCH   6  12
ATOM     12  C   UNL     1       0.357  10.314  19.413  0.00  0.00    +0.000 A 
ATOM     13  C   UNL     1       0.791  11.509  19.944  0.00  0.00    +0.000 A 
ATOM     14  S   UNL     1      -0.018  12.842  19.263  0.00  0.00    +0.000 S 
ATOM     15  C   UNL     1      -0.963  11.838  18.232  0.00  0.00    +0.000 A 
ATOM     16  C   UNL     1      -1.914  12.268  17.285  0.00  0.00    +0.000 A 
ATOM     17  C   UNL     1      -2.600  11.315  16.533  0.00  0.00    +0.000 A 
ATOM     18  C   UNL     1      -2.358   9.962  16.720  0.00  0.00    +0.000 A 
ATOM     19  C   UNL     1      -1.409   9.538  17.657  0.00  0.00    +0.000 A 
ATOM     20  C   UNL     1      -0.682  10.481  18.429  0.00  0.00    +0.000 A 
ENDBRANCH   6  12
BRANCH  11  21
ATOM     21  O   UNL     1       4.123   3.923  18.137  0.00  0.00    +0.000 OA
ATOM     22  C   UNL     1       3.389   3.136  17.210  0.00  0.00    +0.000 C 
ENDBRANCH  11  21
BRANCH   1  23
ATOM     23  O   UNL     1       3.527   3.237  20.604  0.00  0.00    +0.000 OA
BRANCH  23  25
ATOM     24  C   UNL     1       1.365   2.180  20.255  0.00  0.00    +0.000 C 
ATOM     25  C   UNL     1       2.519   2.417  21.209  0.00  0.00    +0.000 C 
ENDBRANCH  23  25
ENDBRANCH   1  23
BRANCH  10  26
ATOM     26  O   UNL     1       3.485   6.504  17.103  0.00  0.00    +0.000 OA
BRANCH  26  27
ATOM     27  C   UNL     1       4.861   6.808  16.862  0.00  0.00    +0.000 C 
ATOM     28  C   UNL     1       5.342   6.051  15.631  0.00  0.00    +0.000 C 
ENDBRANCH  26  27
ENDBRANCH  10  26
TORSDOF 6
ENDMDL
