MODEL 1
REMARK VINA RESULT:      -8.1      0.000      0.000
REMARK  Name = 
REMARK  7 active torsions:
REMARK  status: ('A' for Active; 'I' for Inactive)
REMARK    1  A    between atoms: C_1  and  C_2
REMARK    2  A    between atoms: C_2  and  O_3
REMARK    3  A    between atoms: O_3  and  C_4
REMARK    4  A    between atoms: C_9  and  C_10
REMARK    5  A    between atoms: C_13  and  C_14
REMARK    6  A    between atoms: C_22  and  C_23
REMARK    7  A    between atoms: C_26  and  C_27
REMARK                            x       y       z     vdW  Elec       q    Type
REMARK                         _______ _______ _______ _____ _____    ______ ____
ROOT
ATOM      1  C   UNL     1       1.213   4.825  20.427  0.00  0.00    +0.000 C 
ATOM      2  O   UNL     1       0.146   5.398  20.609  0.00  0.00    +0.000 OA
ATOM      3  N   UNL     1       2.385   5.473  20.102  0.00  0.00    +0.000 N 
ATOM      4  C   UNL     1       3.665   4.829  19.913  0.00  0.00    +0.000 C 
ATOM      5  C   UNL     1       4.217   5.159  18.552  0.00  0.00    +0.000 C 
ATOM      6  C   UNL     1       5.141   4.345  17.997  0.00  0.00    +0.000 C 
ATOM      7  C   UNL     1       3.698   6.383  17.848  0.00  0.00    +0.000 C 
ATOM      8  O   UNL     1       4.076   6.691  16.718  0.00  0.00    +0.000 OA
ATOM      9  C   UNL     1       2.704   7.235  18.561  0.00  0.00    +0.000 C 
ATOM     10  C   UNL     1       2.149   8.233  17.848  0.00  0.00    +0.000 C 
ATOM     11  C   UNL     1       2.391   6.910  19.980  0.00  0.00    +0.000 C 
ENDROOT
BRANCH   6  12
ATOM     12  C   UNL     1       5.792   4.482  16.691  0.00  0.00    +0.000 A 
ATOM     13  C   UNL     1       5.226   3.911  15.545  0.00  0.00    +0.000 A 
ATOM     14  C   UNL     1       5.838   4.077  14.296  0.00  0.00    +0.000 A 
ATOM     15  C   UNL     1       7.018   4.824  14.187  0.00  0.00    +0.000 A 
ATOM     16  C   UNL     1       7.603   5.363  15.335  0.00  0.00    +0.000 A 
ATOM     17  C   UNL     1       6.990   5.195  16.583  0.00  0.00    +0.000 A 
BRANCH  15  18
ATOM     18  C   UNL     1       7.633   5.047  12.847  0.00  0.00    +0.000 C 
ATOM     19  N   UNL     1       7.315   4.347  11.802  0.00  0.00    +0.000 NA
ATOM     20  N   UNL     1       8.581   6.007  12.663  0.00  0.00    +0.000 N 
ATOM     21  H   UNL     1       6.640   3.617  12.037  0.00  0.00    +0.000 HD
ATOM     22  H   UNL     1       8.431   6.874  13.164  0.00  0.00    +0.000 HD
ATOM     23  H   UNL     1       8.747   6.157  11.671  0.00  0.00    +0.000 HD
ENDBRANCH  15  18
ENDBRANCH   6  12
BRANCH  10  24
ATOM     24  C   UNL     1       1.179   9.186  18.383  0.00  0.00    +0.000 A 
ATOM     25  C   UNL     1      -0.005   9.433  17.682  0.00  0.00    +0.000 A 
ATOM     26  C   UNL     1      -0.945  10.330  18.192  0.00  0.00    +0.000 A 
ATOM     27  C   UNL     1      -0.702  10.984  19.406  0.00  0.00    +0.000 A 
ATOM     28  C   UNL     1       0.492  10.751  20.097  0.00  0.00    +0.000 A 
ATOM     29  C   UNL     1       1.431   9.851  19.585  0.00  0.00    +0.000 A 
BRANCH  27  30
ATOM     30  C   UNL     1      -1.717  11.930  19.943  0.00  0.00    +0.000 C 
ATOM     31  N   UNL     1      -1.753  12.295  21.187  0.00  0.00    +0.000 NA
ATOM     32  N   UNL     1      -2.666  12.463  19.123  0.00  0.00    +0.000 N 
ATOM     33  H   UNL     1      -1.039  11.813  21.736  0.00  0.00    +0.000 HD
ATOM     34  H   UNL     1      -2.362  12.692  18.184  0.00  0.00    +0.000 HD
ATOM     35  H   UNL     1      -3.139  13.237  19.579  0.00  0.00    +0.000 HD
ENDBRANCH  27  30
ENDBRANCH  10  24
BRANCH   1  36
ATOM     36  O   UNL     1       1.388   3.489  20.590  0.00  0.00    +0.000 OA
BRANCH  36  38
ATOM     37  C   UNL     1       1.702   2.228  18.594  0.00  0.00    +0.000 C 
ATOM     38  C   UNL     1       0.695   2.665  19.642  0.00  0.00    +0.000 C 
ENDBRANCH  36  38
ENDBRANCH   1  36
TORSDOF 6
ENDMDL
MODEL 2
REMARK VINA RESULT:      -8.0      0.324      1.055
REMARK  Name = 
REMARK  7 active torsions:
REMARK  status: ('A' for Active; 'I' for Inactive)
REMARK    1  A    between atoms: C_1  and  C_2
REMARK    2  A    between atoms: C_2  and  O_3
REMARK    3  A    between atoms: O_3  and  C_4
REMARK    4  A    between atoms: C_9  and  C_10
REMARK    5  A    between atoms: C_13  and  C_14
REMARK    6  A    between atoms: C_22  and  C_23
REMARK    7  A    between atoms: C_26  and  C_27
REMARK                            x       y       z     vdW  Elec       q    Type
REMARK                         _______ _______ _______ _____ _____    ______ ____
ROOT
ATOM      1  C   UNL     1       1.061   5.052  20.415  0.00  0.00    +0.000 C 
ATOM      2  O   UNL     1      -0.004   5.641  20.557  0.00  0.00    +0.000 OA
ATOM      3  N   UNL     1       2.249   5.682  20.115  0.00  0.00    +0.000 N 
ATOM      4  C   UNL     1       3.527   5.020  19.973  0.00  0.00    +0.000 C 
ATOM      5  C   UNL     1       4.122   5.321  18.625  0.00  0.00    +0.000 C 
ATOM      6  C   UNL     1       5.052   4.488  18.110  0.00  0.00    +0.000 C 
ATOM      7  C   UNL     1       3.639   6.540  17.886  0.00  0.00    +0.000 C 
ATOM      8  O   UNL     1       4.053   6.825  16.763  0.00  0.00    +0.000 OA
ATOM      9  C   UNL     1       2.634   7.415  18.556  0.00  0.00    +0.000 C 
ATOM     10  C   UNL     1       2.112   8.408  17.812  0.00  0.00    +0.000 C 
ATOM     11  C   UNL     1       2.277   7.116  19.971  0.00  0.00    +0.000 C 
ENDROOT
BRANCH   6  12
ATOM     12  C   UNL     1       5.743   4.596  16.822  0.00  0.00    +0.000 A 
ATOM     13  C   UNL     1       5.204   4.012  15.669  0.00  0.00    +0.000 A 
ATOM     14  C   UNL     1       5.855   4.151  14.436  0.00  0.00    +0.000 A 
ATOM     15  C   UNL     1       7.045   4.884  14.349  0.00  0.00    +0.000 A 
ATOM     16  C   UNL     1       7.601   5.437  15.505  0.00  0.00    +0.000 A 
ATOM     17  C   UNL     1       6.951   5.296  16.737  0.00  0.00    +0.000 A 
BRANCH  15  18
ATOM     18  C   UNL     1       7.702   5.078  13.024  0.00  0.00    +0.000 C 
ATOM     19  N   UNL     1       8.684   5.904  12.841  0.00  0.00    +0.000 NA
ATOM     20  N   UNL     1       7.281   4.389  11.927  0.00  0.00    +0.000 N 
ATOM     21  H   UNL     1       8.901   6.417  13.698  0.00  0.00    +0.000 HD
ATOM     22  H   UNL     1       7.022   3.423  12.089  0.00  0.00    +0.000 HD
ATOM     23  H   UNL     1       7.949   4.488  11.168  0.00  0.00    +0.000 HD
ENDBRANCH  15  18
ENDBRANCH   6  12
BRANCH  10  24
ATOM     24  C   UNL     1       1.139   9.380  18.302  0.00  0.00    +0.000 A 
ATOM     25  C   UNL     1       1.537  10.347  19.230  0.00  0.00    +0.000 A 
ATOM     26  C   UNL     1       0.618  11.291  19.693  0.00  0.00    +0.000 A 
ATOM     27  C   UNL     1      -0.703  11.268  19.230  0.00  0.00    +0.000 A 
ATOM     28  C   UNL     1      -1.105  10.287  18.316  0.00  0.00    +0.000 A 
ATOM     29  C   UNL     1      -0.183   9.344  17.853  0.00  0.00    +0.000 A 
BRANCH  27  30
ATOM     30  C   UNL     1      -1.669  12.285  19.724  0.00  0.00    +0.000 C 
ATOM     31  N   UNL     1      -1.419  13.069  20.726  0.00  0.00    +0.000 NA
ATOM     32  N   UNL     1      -2.882  12.436  19.120  0.00  0.00    +0.000 N 
ATOM     33  H   UNL     1      -0.512  12.856  21.147  0.00  0.00    +0.000 HD
ATOM     34  H   UNL     1      -2.891  12.330  18.112  0.00  0.00    +0.000 HD
ATOM     35  H   UNL     1      -3.330  13.295  19.425  0.00  0.00    +0.000 HD
ENDBRANCH  27  30
ENDBRANCH  10  24
BRANCH   1  36
ATOM     36  O   UNL     1       1.215   3.717  20.605  0.00  0.00    +0.000 OA
BRANCH  36  38
ATOM     37  C   UNL     1       1.793   2.124  18.931  0.00  0.00    +0.000 C 
ATOM     38  C   UNL     1       0.652   2.888  19.577  0.00  0.00    +0.000 C 
ENDBRANCH  36  38
ENDBRANCH   1  36
TORSDOF 6
ENDMDL
MODEL 3
REMARK VINA RESULT:      -7.9      0.273      1.058
REMARK  Name = 
REMARK  7 active torsions:
REMARK  status: ('A' for Active; 'I' for Inactive)
REMARK    1  A    between atoms: C_1  and  C_2
REMARK    2  A    between atoms: C_2  and  O_3
REMARK    3  A    between atoms: O_3  and  C_4
REMARK    4  A    between atoms: C_9  and  C_10
REMARK    5  A    between atoms: C_13  and  C_14
REMARK    6  A    between atoms: C_22  and  C_23
REMARK    7  A    between atoms: C_26  and  C_27
REMARK                            x       y       z     vdW  Elec       q    Type
REMARK                         _______ _______ _______ _____ _____    ______ ____
ROOT
ATOM      1  C   UNL     1       1.132   5.011  20.444  0.00  0.00    +0.000 C 
ATOM      2  O   UNL     1       0.052   5.562  20.621  0.00  0.00    +0.000 OA
ATOM      3  N   UNL     1       2.293   5.684  20.133  0.00  0.00    +0.000 N 
ATOM      4  C   UNL     1       3.587   5.066  19.949  0.00  0.00    +0.000 C 
ATOM      5  C   UNL     1       4.143   5.416  18.595  0.00  0.00    +0.000 C 
ATOM      6  C   UNL     1       5.087   4.625  18.042  0.00  0.00    +0.000 C 
ATOM      7  C   UNL     1       3.606   6.636  17.896  0.00  0.00    +0.000 C 
ATOM      8  O   UNL     1       3.986   6.959  16.771  0.00  0.00    +0.000 OA
ATOM      9  C   UNL     1       2.590   7.463  18.607  0.00  0.00    +0.000 C 
ATOM     10  C   UNL     1       2.021   8.455  17.897  0.00  0.00    +0.000 C 
ATOM     11  C   UNL     1       2.273   7.121  20.022  0.00  0.00    +0.000 C 
ENDROOT
BRANCH   6  12
ATOM     12  C   UNL     1       5.745   4.783  16.742  0.00  0.00    +0.000 A 
ATOM     13  C   UNL     1       6.913   5.546  16.619  0.00  0.00    +0.000 A 
ATOM     14  C   UNL     1       7.554   5.662  15.379  0.00  0.00    +0.000 A 
ATOM     15  C   UNL     1       7.033   5.007  14.256  0.00  0.00    +0.000 A 
ATOM     16  C   UNL     1       5.850   4.275  14.370  0.00  0.00    +0.000 A 
ATOM     17  C   UNL     1       5.209   4.161  15.610  0.00  0.00    +0.000 A 
BRANCH  15  18
ATOM     18  C   UNL     1       7.753   5.085  12.952  0.00  0.00    +0.000 C 
ATOM     19  N   UNL     1       7.418   4.374  11.920  0.00  0.00    +0.000 NA
ATOM     20  N   UNL     1       8.819   5.917  12.789  0.00  0.00    +0.000 N 
ATOM     21  H   UNL     1       6.648   3.741  12.142  0.00  0.00    +0.000 HD
ATOM     22  H   UNL     1       8.742   6.821  13.240  0.00  0.00    +0.000 HD
ATOM     23  H   UNL     1       9.062   5.995  11.806  0.00  0.00    +0.000 HD
ENDBRANCH  15  18
ENDBRANCH   6  12
BRANCH  10  24
ATOM     24  C   UNL     1       1.029   9.385  18.431  0.00  0.00    +0.000 A 
ATOM     25  C   UNL     1      -0.232   9.468  17.833  0.00  0.00    +0.000 A 
ATOM     26  C   UNL     1      -1.193  10.342  18.345  0.00  0.00    +0.000 A 
ATOM     27  C   UNL     1      -0.893  11.138  19.457  0.00  0.00    +0.000 A 
ATOM     28  C   UNL     1       0.376  11.069  20.043  0.00  0.00    +0.000 A 
ATOM     29  C   UNL     1       1.336  10.192  19.529  0.00  0.00    +0.000 A 
BRANCH  27  30
ATOM     30  C   UNL     1      -1.929  12.058  19.999  0.00  0.00    +0.000 C 
ATOM     31  N   UNL     1      -2.745  12.726  19.244  0.00  0.00    +0.000 NA
ATOM     32  N   UNL     1      -2.062  12.231  21.345  0.00  0.00    +0.000 N 
ATOM     33  H   UNL     1      -2.544  12.574  18.254  0.00  0.00    +0.000 HD
ATOM     34  H   UNL     1      -1.923  11.404  21.914  0.00  0.00    +0.000 HD
ATOM     35  H   UNL     1      -2.932  12.709  21.560  0.00  0.00    +0.000 HD
ENDBRANCH  27  30
ENDBRANCH  10  24
BRANCH   1  36
ATOM     36  O   UNL     1       1.331   3.677  20.599  0.00  0.00    +0.000 OA
BRANCH  36  38
ATOM     37  C   UNL     1       1.899   2.074  18.931  0.00  0.00    +0.000 C 
ATOM     38  C   UNL     1       0.764   2.854  19.570  0.00  0.00    +0.000 C 
ENDBRANCH  36  38
ENDBRANCH   1  36
TORSDOF 6
ENDMDL
MODEL 4
REMARK VINA RESULT:      -7.9      0.288      1.241
REMARK  Name = 
REMARK  7 active torsions:
REMARK  status: ('A' for Active; 'I' for Inactive)
REMARK    1  A    between atoms: C_1  and  C_2
REMARK    2  A    between atoms: C_2  and  O_3
REMARK    3  A    between atoms: O_3  and  C_4
REMARK    4  A    between atoms: C_9  and  C_10
REMARK    5  A    between atoms: C_13  and  C_14
REMARK    6  A    between atoms: C_22  and  C_23
REMARK    7  A    between atoms: C_26  and  C_27
REMARK                            x       y       z     vdW  Elec       q    Type
REMARK                         _______ _______ _______ _____ _____    ______ ____
ROOT
ATOM      1  C   UNL     1       1.094   4.992  20.448  0.00  0.00    +0.000 C 
ATOM      2  O   UNL     1       0.012   5.538  20.620  0.00  0.00    +0.000 OA
ATOM      3  N   UNL     1       2.254   5.670  20.143  0.00  0.00    +0.000 N 
ATOM      4  C   UNL     1       3.552   5.059  19.965  0.00  0.00    +0.000 C 
ATOM      5  C   UNL     1       4.112   5.410  18.614  0.00  0.00    +0.000 C 
ATOM      6  C   UNL     1       5.063   4.624  18.066  0.00  0.00    +0.000 C 
ATOM      7  C   UNL     1       3.573   6.627  17.911  0.00  0.00    +0.000 C 
ATOM      8  O   UNL     1       3.957   6.951  16.788  0.00  0.00    +0.000 OA
ATOM      9  C   UNL     1       2.549   7.450  18.617  0.00  0.00    +0.000 C 
ATOM     10  C   UNL     1       1.979   8.439  17.904  0.00  0.00    +0.000 C 
ATOM     11  C   UNL     1       2.227   7.107  20.030  0.00  0.00    +0.000 C 
ENDROOT
BRANCH   6  12
ATOM     12  C   UNL     1       5.727   4.784  16.769  0.00  0.00    +0.000 A 
ATOM     13  C   UNL     1       6.878   5.573  16.647  0.00  0.00    +0.000 A 
ATOM     14  C   UNL     1       7.525   5.691  15.410  0.00  0.00    +0.000 A 
ATOM     15  C   UNL     1       7.028   5.013  14.290  0.00  0.00    +0.000 A 
ATOM     16  C   UNL     1       5.861   4.255  14.404  0.00  0.00    +0.000 A 
ATOM     17  C   UNL     1       5.214   4.139  15.640  0.00  0.00    +0.000 A 
BRANCH  15  18
ATOM     18  C   UNL     1       7.755   5.095  12.990  0.00  0.00    +0.000 C 
ATOM     19  N   UNL     1       7.418   4.397  11.951  0.00  0.00    +0.000 NA
ATOM     20  N   UNL     1       8.831   5.916  12.841  0.00  0.00    +0.000 N 
ATOM     21  H   UNL     1       6.638   3.771  12.162  0.00  0.00    +0.000 HD
ATOM     22  H   UNL     1       8.763   6.817  13.300  0.00  0.00    +0.000 HD
ATOM     23  H   UNL     1       9.081   6.000  11.860  0.00  0.00    +0.000 HD
ENDBRANCH  15  18
ENDBRANCH   6  12
BRANCH  10  24
ATOM     24  C   UNL     1       0.980   9.364  18.431  0.00  0.00    +0.000 A 
ATOM     25  C   UNL     1       1.270  10.115  19.574  0.00  0.00    +0.000 A 
ATOM     26  C   UNL     1       0.328  11.014  20.078  0.00  0.00    +0.000 A 
ATOM     27  C   UNL     1      -0.909  11.163  19.440  0.00  0.00    +0.000 A 
ATOM     28  C   UNL     1      -1.206  10.396  18.307  0.00  0.00    +0.000 A 
ATOM     29  C   UNL     1      -0.261   9.498  17.804  0.00  0.00    +0.000 A 
BRANCH  27  30
ATOM     30  C   UNL     1      -1.900  12.131  19.980  0.00  0.00    +0.000 C 
ATOM     31  N   UNL     1      -1.769  12.704  21.136  0.00  0.00    +0.000 NA
ATOM     32  N   UNL     1      -3.008  12.462  19.257  0.00  0.00    +0.000 N 
ATOM     33  H   UNL     1      -0.941  12.364  21.628  0.00  0.00    +0.000 HD
ATOM     34  H   UNL     1      -2.875  12.540  18.255  0.00  0.00    +0.000 HD
ATOM     35  H   UNL     1      -3.464  13.277  19.654  0.00  0.00    +0.000 HD
ENDBRANCH  27  30
ENDBRANCH  10  24
BRANCH   1  36
ATOM     36  O   UNL     1       1.300   3.659  20.605  0.00  0.00    +0.000 OA
BRANCH  36  38
ATOM     37  C   UNL     1       1.891   2.019  18.982  0.00  0.00    +0.000 C 
ATOM     38  C   UNL     1       0.751   2.833  19.568  0.00  0.00    +0.000 C 
ENDBRANCH  36  38
ENDBRANCH   1  36
TORSDOF 6
ENDMDL
MODEL 5
REMARK VINA RESULT:      -7.8      4.338     11.823
REMARK  Name = 
REMARK  7 active torsions:
REMARK  status: ('A' for Active; 'I' for Inactive)
REMARK    1  A    between atoms: C_1  and  C_2
REMARK    2  A    between atoms: C_2  and  O_3
REMARK    3  A    between atoms: O_3  and  C_4
REMARK    4  A    between atoms: C_9  and  C_10
REMARK    5  A    between atoms: C_13  and  C_14
REMARK    6  A    between atoms: C_22  and  C_23
REMARK    7  A    between atoms: C_26  and  C_27
REMARK                            x       y       z     vdW  Elec       q    Type
REMARK                         _______ _______ _______ _____ _____    ______ ____
ROOT
ATOM      1  C   UNL     1       1.775  13.895  19.064  0.00  0.00    +0.000 C 
ATOM      2  O   UNL     1       2.332  13.239  18.192  0.00  0.00    +0.000 OA
ATOM      3  N   UNL     1       1.362  13.371  20.269  0.00  0.00    +0.000 N 
ATOM      4  C   UNL     1       0.732  14.125  21.330  0.00  0.00    +0.000 C 
ATOM      5  C   UNL     1      -0.594  13.510  21.688  0.00  0.00    +0.000 C 
ATOM      6  C   UNL     1      -1.529  14.264  22.306  0.00  0.00    +0.000 C 
ATOM      7  C   UNL     1      -0.836  12.070  21.323  0.00  0.00    +0.000 C 
ATOM      8  O   UNL     1      -1.911  11.515  21.550  0.00  0.00    +0.000 OA
ATOM      9  C   UNL     1       0.273  11.314  20.674  0.00  0.00    +0.000 C 
ATOM     10  C   UNL     1      -0.025  10.080  20.225  0.00  0.00    +0.000 C 
ATOM     11  C   UNL     1       1.600  11.979  20.557  0.00  0.00    +0.000 C 
ENDROOT
BRANCH   6  12
ATOM     12  C   UNL     1      -2.874  13.863  22.728  0.00  0.00    +0.000 A 
ATOM     13  C   UNL     1      -3.073  13.190  23.940  0.00  0.00    +0.000 A 
ATOM     14  C   UNL     1      -4.366  12.843  24.351  0.00  0.00    +0.000 A 
ATOM     15  C   UNL     1      -5.469  13.176  23.554  0.00  0.00    +0.000 A 
ATOM     16  C   UNL     1      -5.268  13.816  22.330  0.00  0.00    +0.000 A 
ATOM     17  C   UNL     1      -3.975  14.161  21.919  0.00  0.00    +0.000 A 
BRANCH  15  18
ATOM     18  C   UNL     1      -6.848  12.856  24.026  0.00  0.00    +0.000 C 
ATOM     19  N   UNL     1      -7.386  11.685  23.882  0.00  0.00    +0.000 NA
ATOM     20  N   UNL     1      -7.618  13.803  24.629  0.00  0.00    +0.000 N 
ATOM     21  H   UNL     1      -6.764  11.052  23.374  0.00  0.00    +0.000 HD
ATOM     22  H   UNL     1      -7.131  14.426  25.262  0.00  0.00    +0.000 HD
ATOM     23  H   UNL     1      -8.434  13.376  25.058  0.00  0.00    +0.000 HD
ENDBRANCH  15  18
ENDBRANCH   6  12
BRANCH  10  24
ATOM     24  C   UNL     1       0.935   9.182  19.590  0.00  0.00    +0.000 A 
ATOM     25  C   UNL     1       1.457   8.106  20.313  0.00  0.00    +0.000 A 
ATOM     26  C   UNL     1       2.363   7.232  19.710  0.00  0.00    +0.000 A 
ATOM     27  C   UNL     1       2.751   7.433  18.379  0.00  0.00    +0.000 A 
ATOM     28  C   UNL     1       2.242   8.522  17.662  0.00  0.00    +0.000 A 
ATOM     29  C   UNL     1       1.334   9.395  18.268  0.00  0.00    +0.000 A 
BRANCH  27  30
ATOM     30  C   UNL     1       3.709   6.489  17.745  0.00  0.00    +0.000 C 
ATOM     31  N   UNL     1       4.701   6.879  17.007  0.00  0.00    +0.000 NA
ATOM     32  N   UNL     1       3.576   5.144  17.928  0.00  0.00    +0.000 N 
ATOM     33  H   UNL     1       4.697   7.893  16.885  0.00  0.00    +0.000 HD
ATOM     34  H   UNL     1       3.273   4.850  18.849  0.00  0.00    +0.000 HD
ATOM     35  H   UNL     1       4.412   4.657  17.619  0.00  0.00    +0.000 HD
ENDBRANCH  27  30
ENDBRANCH  10  24
BRANCH   1  36
ATOM     36  O   UNL     1       1.559  15.233  18.979  0.00  0.00    +0.000 OA
BRANCH  36  38
ATOM     37  C   UNL     1       2.606  16.885  17.619  0.00  0.00    +0.000 C 
ATOM     38  C   UNL     1       2.745  16.034  18.868  0.00  0.00    +0.000 C 
ENDBRANCH  36  38
ENDBRANCH   1  36
TORSDOF 6
ENDMDL
MODEL 6
REMARK VINA RESULT:      -7.8      0.654      1.543
REMARK  Name = 
REMARK  7 active torsions:
REMARK  status: ('A' for Active; 'I' for Inactive)
REMARK    1  A    between atoms: C_1  and  C_2
REMARK    2  A    between atoms: C_2  and  O_3
REMARK    3  A    between atoms: O_3  and  C_4
REMARK    4  A    between atoms: C_9  and  C_10
REMARK    5  A    between atoms: C_13  and  C_14
REMARK    6  A    between atoms: C_22  and  C_23
REMARK    7  A    between atoms: C_26  and  C_27
REMARK                            x       y       z     vdW  Elec       q    Type
REMARK                         _______ _______ _______ _____ _____    ______ ____
ROOT
ATOM      1  C   UNL     1       1.125   4.425  20.378  0.00  0.00    +0.000 C 
ATOM      2  O   UNL     1       0.095   5.032  20.645  0.00  0.00    +0.000 OA
ATOM      3  N   UNL     1       2.340   5.038  20.161  0.00  0.00    +0.000 N 
ATOM      4  C   UNL     1       3.578   4.349  19.875  0.00  0.00    +0.000 C 
ATOM      5  C   UNL     1       4.166   4.850  18.584  0.00  0.00    +0.000 C 
ATOM      6  C   UNL     1       5.042   4.075  17.909  0.00  0.00    +0.000 C 
ATOM      7  C   UNL     1       3.736   6.202  18.080  0.00  0.00    +0.000 C 
ATOM      8  O   UNL     1       4.147   6.657  17.013  0.00  0.00    +0.000 OA
ATOM      9  C   UNL     1       2.791   6.995  18.917  0.00  0.00    +0.000 C 
ATOM     10  C   UNL     1       2.310   8.127  18.369  0.00  0.00    +0.000 C 
ATOM     11  C   UNL     1       2.441   6.472  20.266  0.00  0.00    +0.000 C 
ENDROOT
BRANCH   6  12
ATOM     12  C   UNL     1       5.717   4.371  16.642  0.00  0.00    +0.000 A 
ATOM     13  C   UNL     1       6.994   4.945  16.628  0.00  0.00    +0.000 A 
ATOM     14  C   UNL     1       7.644   5.191  15.412  0.00  0.00    +0.000 A 
ATOM     15  C   UNL     1       7.022   4.856  14.203  0.00  0.00    +0.000 A 
ATOM     16  C   UNL     1       5.734   4.317  14.215  0.00  0.00    +0.000 A 
ATOM     17  C   UNL     1       5.084   4.072  15.431  0.00  0.00    +0.000 A 
BRANCH  15  18
ATOM     18  C   UNL     1       7.743   5.066  12.914  0.00  0.00    +0.000 C 
ATOM     19  N   UNL     1       8.696   5.935  12.776  0.00  0.00    +0.000 NA
ATOM     20  N   UNL     1       7.418   4.347  11.805  0.00  0.00    +0.000 N 
ATOM     21  H   UNL     1       8.840   6.467  13.636  0.00  0.00    +0.000 HD
ATOM     22  H   UNL     1       7.194   3.372  11.964  0.00  0.00    +0.000 HD
ATOM     23  H   UNL     1       8.122   4.469  11.083  0.00  0.00    +0.000 HD
ENDBRANCH  15  18
ENDBRANCH   6  12
BRANCH  10  24
ATOM     24  C   UNL     1       1.398   9.045  19.044  0.00  0.00    +0.000 A 
ATOM     25  C   UNL     1       1.137   8.881  20.408  0.00  0.00    +0.000 A 
ATOM     26  C   UNL     1       0.278   9.763  21.067  0.00  0.00    +0.000 A 
ATOM     27  C   UNL     1      -0.323  10.813  20.362  0.00  0.00    +0.000 A 
ATOM     28  C   UNL     1      -0.075  10.966  18.993  0.00  0.00    +0.000 A 
ATOM     29  C   UNL     1       0.785  10.082  18.336  0.00  0.00    +0.000 A 
BRANCH  27  30
ATOM     30  C   UNL     1      -1.227  11.752  21.078  0.00  0.00    +0.000 C 
ATOM     31  N   UNL     1      -2.291  12.259  20.537  0.00  0.00    +0.000 NA
ATOM     32  N   UNL     1      -0.962  12.119  22.364  0.00  0.00    +0.000 N 
ATOM     33  H   UNL     1      -2.385  11.970  19.562  0.00  0.00    +0.000 HD
ATOM     34  H   UNL     1      -0.582  11.395  22.962  0.00  0.00    +0.000 HD
ATOM     35  H   UNL     1      -1.767  12.581  22.777  0.00  0.00    +0.000 HD
ENDBRANCH  27  30
ENDBRANCH  10  24
BRANCH   1  36
ATOM     36  O   UNL     1       1.211   3.071  20.329  0.00  0.00    +0.000 OA
BRANCH  36  38
ATOM     37  C   UNL     1       1.840   1.906  18.349  0.00  0.00    +0.000 C 
ATOM     38  C   UNL     1       0.674   2.471  19.141  0.00  0.00    +0.000 C 
ENDBRANCH  36  38
ENDBRANCH   1  36
TORSDOF 6
ENDMDL
MODEL 7
REMARK VINA RESULT:      -7.7      4.396     11.851
REMARK  Name = 
REMARK  7 active torsions:
REMARK  status: ('A' for Active; 'I' for Inactive)
REMARK    1  A    between atoms: C_1  and  C_2
REMARK    2  A    between atoms: C_2  and  O_3
REMARK    3  A    between atoms: O_3  and  C_4
REMARK    4  A    between atoms: C_9  and  C_10
REMARK    5  A    between atoms: C_13  and  C_14
REMARK    6  A    between atoms: C_22  and  C_23
REMARK    7  A    between atoms: C_26  and  C_27
REMARK                            x       y       z     vdW  Elec       q    Type
REMARK                         _______ _______ _______ _____ _____    ______ ____
ROOT
ATOM      1  C   UNL     1       1.787  14.027  19.078  0.00  0.00    +0.000 C 
ATOM      2  O   UNL     1       2.317  13.349  18.207  0.00  0.00    +0.000 OA
ATOM      3  N   UNL     1       1.374  13.524  20.293  0.00  0.00    +0.000 N 
ATOM      4  C   UNL     1       0.775  14.304  21.354  0.00  0.00    +0.000 C 
ATOM      5  C   UNL     1      -0.562  13.727  21.731  0.00  0.00    +0.000 C 
ATOM      6  C   UNL     1      -1.470  14.510  22.352  0.00  0.00    +0.000 C 
ATOM      7  C   UNL     1      -0.846  12.291  21.383  0.00  0.00    +0.000 C 
ATOM      8  O   UNL     1      -1.931  11.766  21.626  0.00  0.00    +0.000 OA
ATOM      9  C   UNL     1       0.236  11.500  20.729  0.00  0.00    +0.000 C 
ATOM     10  C   UNL     1      -0.098  10.271  20.294  0.00  0.00    +0.000 C 
ATOM     11  C   UNL     1       1.579  12.129  20.591  0.00  0.00    +0.000 C 
ENDROOT
BRANCH   6  12
ATOM     12  C   UNL     1      -2.820  14.149  22.793  0.00  0.00    +0.000 A 
ATOM     13  C   UNL     1      -3.932  14.410  21.983  0.00  0.00    +0.000 A 
ATOM     14  C   UNL     1      -5.214  14.028  22.399  0.00  0.00    +0.000 A 
ATOM     15  C   UNL     1      -5.389  13.374  23.625  0.00  0.00    +0.000 A 
ATOM     16  C   UNL     1      -4.285  13.145  24.449  0.00  0.00    +0.000 A 
ATOM     17  C   UNL     1      -3.004  13.528  24.033  0.00  0.00    +0.000 A 
BRANCH  15  18
ATOM     18  C   UNL     1      -6.748  12.917  24.035  0.00  0.00    +0.000 C 
ATOM     19  N   UNL     1      -7.171  11.707  23.842  0.00  0.00    +0.000 NA
ATOM     20  N   UNL     1      -7.623  13.773  24.632  0.00  0.00    +0.000 N 
ATOM     21  H   UNL     1      -6.476  11.147  23.343  0.00  0.00    +0.000 HD
ATOM     22  H   UNL     1      -7.219  14.420  25.299  0.00  0.00    +0.000 HD
ATOM     23  H   UNL     1      -8.412  13.262  25.019  0.00  0.00    +0.000 HD
ENDBRANCH  15  18
ENDBRANCH   6  12
BRANCH  10  24
ATOM     24  C   UNL     1       0.831   9.342  19.657  0.00  0.00    +0.000 A 
ATOM     25  C   UNL     1       1.383   8.297  20.403  0.00  0.00    +0.000 A 
ATOM     26  C   UNL     1       2.260   7.394  19.799  0.00  0.00    +0.000 A 
ATOM     27  C   UNL     1       2.589   7.535  18.445  0.00  0.00    +0.000 A 
ATOM     28  C   UNL     1       2.050   8.594  17.704  0.00  0.00    +0.000 A 
ATOM     29  C   UNL     1       1.171   9.496  18.310  0.00  0.00    +0.000 A 
BRANCH  27  30
ATOM     30  C   UNL     1       3.516   6.561  17.811  0.00  0.00    +0.000 C 
ATOM     31  N   UNL     1       3.295   5.284  17.794  0.00  0.00    +0.000 NA
ATOM     32  N   UNL     1       4.660   6.990  17.206  0.00  0.00    +0.000 N 
ATOM     33  H   UNL     1       2.445   5.047  18.309  0.00  0.00    +0.000 HD
ATOM     34  H   UNL     1       4.592   7.866  16.701  0.00  0.00    +0.000 HD
ATOM     35  H   UNL     1       5.068   6.249  16.645  0.00  0.00    +0.000 HD
ENDBRANCH  27  30
ENDBRANCH  10  24
BRANCH   1  36
ATOM     36  O   UNL     1       1.605  15.369  18.983  0.00  0.00    +0.000 OA
BRANCH  36  38
ATOM     37  C   UNL     1       3.017  16.619  17.529  0.00  0.00    +0.000 C 
ATOM     38  C   UNL     1       2.812  16.145  18.956  0.00  0.00    +0.000 C 
ENDBRANCH  36  38
ENDBRANCH   1  36
TORSDOF 6
ENDMDL
MODEL 8
REMARK VINA RESULT:      -7.6      4.333     11.845
REMARK  Name = 
REMARK  7 active torsions:
REMARK  status: ('A' for Active; 'I' for Inactive)
REMARK    1  A    between atoms: C_1  and  C_2
REMARK    2  A    between atoms: C_2  and  O_3
REMARK    3  A    between atoms: O_3  and  C_4
REMARK    4  A    between atoms: C_9  and  C_10
REMARK    5  A    between atoms: C_13  and  C_14
REMARK    6  A    between atoms: C_22  and  C_23
REMARK    7  A    between atoms: C_26  and  C_27
REMARK                            x       y       z     vdW  Elec       q    Type
REMARK                         _______ _______ _______ _____ _____    ______ ____
ROOT
ATOM      1  C   UNL     1       1.860  14.023  19.585  0.00  0.00    +0.000 C 
ATOM      2  O   UNL     1       2.422  13.394  18.697  0.00  0.00    +0.000 OA
ATOM      3  N   UNL     1       1.355  13.447  20.730  0.00  0.00    +0.000 N 
ATOM      4  C   UNL     1       0.715  14.165  21.809  0.00  0.00    +0.000 C 
ATOM      5  C   UNL     1      -0.660  13.609  22.060  0.00  0.00    +0.000 C 
ATOM      6  C   UNL     1      -1.582  14.376  22.682  0.00  0.00    +0.000 C 
ATOM      7  C   UNL     1      -0.965  12.214  21.586  0.00  0.00    +0.000 C 
ATOM      8  O   UNL     1      -2.079  11.711  21.722  0.00  0.00    +0.000 OA
ATOM      9  C   UNL     1       0.132  11.437  20.940  0.00  0.00    +0.000 C 
ATOM     10  C   UNL     1      -0.212  10.256  20.393  0.00  0.00    +0.000 C 
ATOM     11  C   UNL     1       1.499  12.027  20.933  0.00  0.00    +0.000 C 
ENDROOT
BRANCH   6  12
ATOM     12  C   UNL     1      -2.967  14.030  23.012  0.00  0.00    +0.000 A 
ATOM     13  C   UNL     1      -4.017  14.386  22.157  0.00  0.00    +0.000 A 
ATOM     14  C   UNL     1      -5.334  14.019  22.464  0.00  0.00    +0.000 A 
ATOM     15  C   UNL     1      -5.605  13.286  23.626  0.00  0.00    +0.000 A 
ATOM     16  C   UNL     1      -4.563  12.961  24.496  0.00  0.00    +0.000 A 
ATOM     17  C   UNL     1      -3.248  13.329  24.190  0.00  0.00    +0.000 A 
BRANCH  15  18
ATOM     18  C   UNL     1      -7.001  12.847  23.917  0.00  0.00    +0.000 C 
ATOM     19  N   UNL     1      -7.803  13.519  24.683  0.00  0.00    +0.000 NA
ATOM     20  N   UNL     1      -7.498  11.696  23.387  0.00  0.00    +0.000 N 
ATOM     21  H   UNL     1      -7.337  14.337  25.081  0.00  0.00    +0.000 HD
ATOM     22  H   UNL     1      -7.226  11.499  22.431  0.00  0.00    +0.000 HD
ATOM     23  H   UNL     1      -8.504  11.648  23.520  0.00  0.00    +0.000 HD
ENDBRANCH  15  18
ENDBRANCH   6  12
BRANCH  10  24
ATOM     24  C   UNL     1       0.727   9.345  19.744  0.00  0.00    +0.000 A 
ATOM     25  C   UNL     1       1.057   9.536  18.399  0.00  0.00    +0.000 A 
ATOM     26  C   UNL     1       1.965   8.680  17.773  0.00  0.00    +0.000 A 
ATOM     27  C   UNL     1       2.546   7.628  18.492  0.00  0.00    +0.000 A 
ATOM     28  C   UNL     1       2.201   7.426  19.834  0.00  0.00    +0.000 A 
ATOM     29  C   UNL     1       1.292   8.285  20.458  0.00  0.00    +0.000 A 
BRANCH  27  30
ATOM     30  C   UNL     1       3.520   6.730  17.817  0.00  0.00    +0.000 C 
ATOM     31  N   UNL     1       3.401   5.439  17.808  0.00  0.00    +0.000 NA
ATOM     32  N   UNL     1       4.598   7.249  17.163  0.00  0.00    +0.000 N 
ATOM     33  H   UNL     1       2.596   5.136  18.359  0.00  0.00    +0.000 HD
ATOM     34  H   UNL     1       4.438   8.115  16.663  0.00  0.00    +0.000 HD
ATOM     35  H   UNL     1       5.039   6.541  16.584  0.00  0.00    +0.000 HD
ENDBRANCH  27  30
ENDBRANCH  10  24
BRANCH   1  36
ATOM     36  O   UNL     1       1.725  15.374  19.582  0.00  0.00    +0.000 OA
BRANCH  36  38
ATOM     37  C   UNL     1      -0.441  16.195  19.026  0.00  0.00    +0.000 C 
ATOM     38  C   UNL     1       0.951  15.905  18.496  0.00  0.00    +0.000 C 
ENDBRANCH  36  38
ENDBRANCH   1  36
TORSDOF 6
ENDMDL
MODEL 9
REMARK VINA RESULT:      -7.6      4.372     11.922
REMARK  Name = 
REMARK  7 active torsions:
REMARK  status: ('A' for Active; 'I' for Inactive)
REMARK    1  A    between atoms: C_1  and  C_2
REMARK    2  A    between atoms: C_2  and  O_3
REMARK    3  A    between atoms: O_3  and  C_4
REMARK    4  A    between atoms: C_9  and  C_10
REMARK    5  A    between atoms: C_13  and  C_14
REMARK    6  A    between atoms: C_22  and  C_23
REMARK    7  A    between atoms: C_26  and  C_27
REMARK                            x       y       z     vdW  Elec       q    Type
REMARK                         _______ _______ _______ _____ _____    ______ ____
ROOT
ATOM      1  C   UNL     1       1.765  14.118  19.500  0.00  0.00    +0.000 C 
ATOM      2  O   UNL     1       2.328  13.495  18.609  0.00  0.00    +0.000 OA
ATOM      3  N   UNL     1       1.283  13.538  20.653  0.00  0.00    +0.000 N 
ATOM      4  C   UNL     1       0.643  14.251  21.737  0.00  0.00    +0.000 C 
ATOM      5  C   UNL     1      -0.720  13.672  22.005  0.00  0.00    +0.000 C 
ATOM      6  C   UNL     1      -1.647  14.425  22.635  0.00  0.00    +0.000 C 
ATOM      7  C   UNL     1      -1.006  12.270  21.540  0.00  0.00    +0.000 C 
ATOM      8  O   UNL     1      -2.110  11.748  21.691  0.00  0.00    +0.000 OA
ATOM      9  C   UNL     1       0.097  11.509  20.885  0.00  0.00    +0.000 C 
ATOM     10  C   UNL     1      -0.233  10.319  20.347  0.00  0.00    +0.000 C 
ATOM     11  C   UNL     1       1.454  12.122  20.860  0.00  0.00    +0.000 C 
ENDROOT
BRANCH   6  12
ATOM     12  C   UNL     1      -3.023  14.057  22.981  0.00  0.00    +0.000 A 
ATOM     13  C   UNL     1      -4.089  14.402  22.143  0.00  0.00    +0.000 A 
ATOM     14  C   UNL     1      -5.396  14.015  22.466  0.00  0.00    +0.000 A 
ATOM     15  C   UNL     1      -5.641  13.271  23.627  0.00  0.00    +0.000 A 
ATOM     16  C   UNL     1      -4.582  12.957  24.482  0.00  0.00    +0.000 A 
ATOM     17  C   UNL     1      -3.277  13.347  24.159  0.00  0.00    +0.000 A 
BRANCH  15  18
ATOM     18  C   UNL     1      -7.026  12.811  23.935  0.00  0.00    +0.000 C 
ATOM     19  N   UNL     1      -7.835  13.478  24.697  0.00  0.00    +0.000 NA
ATOM     20  N   UNL     1      -7.504  11.642  23.426  0.00  0.00    +0.000 N 
ATOM     21  H   UNL     1      -7.382  14.311  25.079  0.00  0.00    +0.000 HD
ATOM     22  H   UNL     1      -7.235  11.437  22.471  0.00  0.00    +0.000 HD
ATOM     23  H   UNL     1      -8.508  11.578  23.568  0.00  0.00    +0.000 HD
ENDBRANCH  15  18
ENDBRANCH   6  12
BRANCH  10  24
ATOM     24  C   UNL     1       0.714   9.422  19.691  0.00  0.00    +0.000 A 
ATOM     25  C   UNL     1       1.284   8.370  20.415  0.00  0.00    +0.000 A 
ATOM     26  C   UNL     1       2.178   7.497  19.793  0.00  0.00    +0.000 A 
ATOM     27  C   UNL     1       2.507   7.675  18.444  0.00  0.00    +0.000 A 
ATOM     28  C   UNL     1       1.950   8.740  17.725  0.00  0.00    +0.000 A 
ATOM     29  C   UNL     1       1.054   9.612  18.350  0.00  0.00    +0.000 A 
BRANCH  27  30
ATOM     30  C   UNL     1       3.453   6.732  17.790  0.00  0.00    +0.000 C 
ATOM     31  N   UNL     1       4.539   7.119  17.198  0.00  0.00    +0.000 NA
ATOM     32  N   UNL     1       3.205   5.391  17.796  0.00  0.00    +0.000 N 
ATOM     33  H   UNL     1       4.621   8.137  17.200  0.00  0.00    +0.000 HD
ATOM     34  H   UNL     1       2.791   5.021  18.643  0.00  0.00    +0.000 HD
ATOM     35  H   UNL     1       4.030   4.874  17.508  0.00  0.00    +0.000 HD
ENDBRANCH  27  30
ENDBRANCH  10  24
BRANCH   1  36
ATOM     36  O   UNL     1       1.607  15.467  19.493  0.00  0.00    +0.000 OA
BRANCH  36  38
ATOM     37  C   UNL     1      -0.146  17.075  19.385  0.00  0.00    +0.000 C 
ATOM     38  C   UNL     1       0.555  15.951  18.645  0.00  0.00    +0.000 C 
ENDBRANCH  36  38
ENDBRANCH   1  36
TORSDOF 6
ENDMDL
