MODEL 1
REMARK VINA RESULT:      -6.9      0.000      0.000
REMARK  Name = 
REMARK  5 active torsions:
REMARK  status: ('A' for Active; 'I' for Inactive)
REMARK    1  A    between atoms: C_1  and  O_2
REMARK    2  A    between atoms: O_2  and  C_3
REMARK    3  A    between atoms: C_6  and  N_7
REMARK    4  A    between atoms: C_8  and  C_10
REMARK    5  A    between atoms: C_15  and  N_16
REMARK                            x       y       z     vdW  Elec       q    Type
REMARK                         _______ _______ _______ _____ _____    ______ ____
ROOT
ATOM      1  N   UNL     1       3.877   3.777  16.065  0.00  0.00    +0.000 N 
ATOM      2  C   UNL     1       5.238   4.048  16.065  0.00  0.00    +0.000 C 
ATOM      3  O   UNL     1       5.957   4.112  17.057  0.00  0.00    +0.000 OA
ATOM      4  H   UNL     1       3.458   3.555  15.171  0.00  0.00    +0.000 HD
ENDROOT
BRANCH   1   8
ATOM      5  C   UNL     1       1.582   3.275  19.592  0.00  0.00    +0.000 A 
ATOM      6  C   UNL     1       1.750   4.543  19.047  0.00  0.00    +0.000 A 
ATOM      7  C   UNL     1       2.481   4.718  17.872  0.00  0.00    +0.000 A 
ATOM      8  C   UNL     1       3.084   3.633  17.231  0.00  0.00    +0.000 A 
ATOM      9  C   UNL     1       2.896   2.356  17.768  0.00  0.00    +0.000 A 
ATOM     10  C   UNL     1       2.155   2.177  18.951  0.00  0.00    +0.000 A 
BRANCH   5  12
ATOM     11  C   UNL     1       1.498   2.574  21.850  0.00  0.00    +0.000 C 
ATOM     12  O   UNL     1       0.879   3.248  20.764  0.00  0.00    +0.000 OA
ENDBRANCH   5  12
ENDBRANCH   1   8
BRANCH   2  13
ATOM     13  C   UNL     1       5.900   4.229  14.745  0.00  0.00    +0.000 A 
ATOM     14  C   UNL     1       5.368   3.466  13.688  0.00  0.00    +0.000 A 
ATOM     15  C   UNL     1       5.958   3.479  12.428  0.00  0.00    +0.000 A 
ATOM     16  C   UNL     1       7.077   4.273  12.209  0.00  0.00    +0.000 A 
ATOM     17  C   UNL     1       7.601   5.050  13.248  0.00  0.00    +0.000 A 
ATOM     18  C   UNL     1       7.060   5.001  14.544  0.00  0.00    +0.000 A 
BRANCH  18  19
ATOM     19  N   UNL     1       7.597   5.857  15.528  0.00  0.00    +0.000 N 
ATOM     20  H   UNL     1       6.907   6.503  15.905  0.00  0.00    +0.000 HD
ATOM     21  H   UNL     1       8.414   6.367  15.190  0.00  0.00    +0.000 HD
ENDBRANCH  18  19
ENDBRANCH   2  13
TORSDOF 4
ENDMDL
MODEL 2
REMARK VINA RESULT:      -6.8      0.111      1.137
REMARK  Name = 
REMARK  5 active torsions:
REMARK  status: ('A' for Active; 'I' for Inactive)
REMARK    1  A    between atoms: C_1  and  O_2
REMARK    2  A    between atoms: O_2  and  C_3
REMARK    3  A    between atoms: C_6  and  N_7
REMARK    4  A    between atoms: C_8  and  C_10
REMARK    5  A    between atoms: C_15  and  N_16
REMARK                            x       y       z     vdW  Elec       q    Type
REMARK                         _______ _______ _______ _____ _____    ______ ____
ROOT
ATOM      1  N   UNL     1       3.950   3.714  16.041  0.00  0.00    +0.000 N 
ATOM      2  C   UNL     1       5.302   4.024  16.018  0.00  0.00    +0.000 C 
ATOM      3  O   UNL     1       6.033   4.123  16.998  0.00  0.00    +0.000 OA
ATOM      4  H   UNL     1       3.525   3.468  15.156  0.00  0.00    +0.000 HD
ENDROOT
BRANCH   1   8
ATOM      5  C   UNL     1       1.568   3.329  19.526  0.00  0.00    +0.000 A 
ATOM      6  C   UNL     1       2.152   2.203  18.955  0.00  0.00    +0.000 A 
ATOM      7  C   UNL     1       2.959   2.321  17.823  0.00  0.00    +0.000 A 
ATOM      8  C   UNL     1       3.179   3.561  17.221  0.00  0.00    +0.000 A 
ATOM      9  C   UNL     1       2.609   4.695  17.808  0.00  0.00    +0.000 A 
ATOM     10  C   UNL     1       1.798   4.580  18.953  0.00  0.00    +0.000 A 
BRANCH   5  12
ATOM     11  C   UNL     1       1.433   2.636  21.784  0.00  0.00    +0.000 C 
ATOM     12  O   UNL     1       0.771   3.070  20.605  0.00  0.00    +0.000 OA
ENDBRANCH   5  12
ENDBRANCH   1   8
BRANCH   2  13
ATOM     13  C   UNL     1       5.939   4.209  14.685  0.00  0.00    +0.000 A 
ATOM     14  C   UNL     1       5.380   3.456  13.635  0.00  0.00    +0.000 A 
ATOM     15  C   UNL     1       5.946   3.472  12.364  0.00  0.00    +0.000 A 
ATOM     16  C   UNL     1       7.065   4.260  12.127  0.00  0.00    +0.000 A 
ATOM     17  C   UNL     1       7.615   5.027  13.160  0.00  0.00    +0.000 A 
ATOM     18  C   UNL     1       7.099   4.974  14.466  0.00  0.00    +0.000 A 
BRANCH  18  19
ATOM     19  N   UNL     1       7.662   5.821  15.444  0.00  0.00    +0.000 N 
ATOM     20  H   UNL     1       8.481   5.415  15.890  0.00  0.00    +0.000 HD
ATOM     21  H   UNL     1       6.978   6.103  16.147  0.00  0.00    +0.000 HD
ENDBRANCH  18  19
ENDBRANCH   2  13
TORSDOF 4
ENDMDL
MODEL 3
REMARK VINA RESULT:      -6.6      2.073      7.233
REMARK  Name = 
REMARK  5 active torsions:
REMARK  status: ('A' for Active; 'I' for Inactive)
REMARK    1  A    between atoms: C_1  and  O_2
REMARK    2  A    between atoms: O_2  and  C_3
REMARK    3  A    between atoms: C_6  and  N_7
REMARK    4  A    between atoms: C_8  and  C_10
REMARK    5  A    between atoms: C_15  and  N_16
REMARK                            x       y       z     vdW  Elec       q    Type
REMARK                         _______ _______ _______ _____ _____    ______ ____
ROOT
ATOM      1  N   UNL     1       4.595   3.576  17.583  0.00  0.00    +0.000 N 
ATOM      2  C   UNL     1       4.122   4.355  18.629  0.00  0.00    +0.000 C 
ATOM      3  O   UNL     1       4.333   5.553  18.784  0.00  0.00    +0.000 OA
ATOM      4  H   UNL     1       4.178   2.660  17.475  0.00  0.00    +0.000 HD
ENDROOT
BRANCH   1   8
ATOM      5  C   UNL     1       7.174   4.987  14.530  0.00  0.00    +0.000 A 
ATOM      6  C   UNL     1       7.589   5.013  15.857  0.00  0.00    +0.000 A 
ATOM      7  C   UNL     1       6.759   4.527  16.868  0.00  0.00    +0.000 A 
ATOM      8  C   UNL     1       5.486   4.030  16.579  0.00  0.00    +0.000 A 
ATOM      9  C   UNL     1       5.079   3.984  15.242  0.00  0.00    +0.000 A 
ATOM     10  C   UNL     1       5.916   4.470  14.220  0.00  0.00    +0.000 A 
BRANCH   5  12
ATOM     11  C   UNL     1       7.787   5.315  12.269  0.00  0.00    +0.000 C 
ATOM     12  O   UNL     1       8.063   5.528  13.646  0.00  0.00    +0.000 OA
ENDBRANCH   5  12
ENDBRANCH   1   8
BRANCH   2  13
ATOM     13  C   UNL     1       3.241   3.695  19.631  0.00  0.00    +0.000 A 
ATOM     14  C   UNL     1       1.949   4.241  19.756  0.00  0.00    +0.000 A 
ATOM     15  C   UNL     1       1.065   3.770  20.722  0.00  0.00    +0.000 A 
ATOM     16  C   UNL     1       1.459   2.732  21.558  0.00  0.00    +0.000 A 
ATOM     17  C   UNL     1       2.734   2.170  21.426  0.00  0.00    +0.000 A 
ATOM     18  C   UNL     1       3.664   2.675  20.502  0.00  0.00    +0.000 A 
BRANCH  18  19
ATOM     19  N   UNL     1       4.908   2.021  20.378  0.00  0.00    +0.000 N 
ATOM     20  H   UNL     1       5.696   2.663  20.435  0.00  0.00    +0.000 HD
ATOM     21  H   UNL     1       4.966   1.463  19.525  0.00  0.00    +0.000 HD
ENDBRANCH  18  19
ENDBRANCH   2  13
TORSDOF 4
ENDMDL
MODEL 4
REMARK VINA RESULT:      -6.6      1.057      1.088
REMARK  Name = 
REMARK  5 active torsions:
REMARK  status: ('A' for Active; 'I' for Inactive)
REMARK    1  A    between atoms: C_1  and  O_2
REMARK    2  A    between atoms: O_2  and  C_3
REMARK    3  A    between atoms: C_6  and  N_7
REMARK    4  A    between atoms: C_8  and  C_10
REMARK    5  A    between atoms: C_15  and  N_16
REMARK                            x       y       z     vdW  Elec       q    Type
REMARK                         _______ _______ _______ _____ _____    ______ ____
ROOT
ATOM      1  N   UNL     1       4.498   3.544  16.267  0.00  0.00    +0.000 N 
ATOM      2  C   UNL     1       5.005   4.665  15.624  0.00  0.00    +0.000 C 
ATOM      3  O   UNL     1       4.951   5.817  16.041  0.00  0.00    +0.000 OA
ATOM      4  H   UNL     1       4.792   2.644  15.910  0.00  0.00    +0.000 HD
ENDROOT
BRANCH   1   8
ATOM      5  C   UNL     1       2.322   3.704  19.901  0.00  0.00    +0.000 A 
ATOM      6  C   UNL     1       1.658   3.839  18.687  0.00  0.00    +0.000 A 
ATOM      7  C   UNL     1       2.360   3.763  17.484  0.00  0.00    +0.000 A 
ATOM      8  C   UNL     1       3.744   3.576  17.467  0.00  0.00    +0.000 A 
ATOM      9  C   UNL     1       4.407   3.418  18.687  0.00  0.00    +0.000 A 
ATOM     10  C   UNL     1       3.701   3.491  19.903  0.00  0.00    +0.000 A 
BRANCH   5  12
ATOM     11  C   UNL     1       1.327   2.666  21.780  0.00  0.00    +0.000 C 
ATOM     12  O   UNL     1       1.526   3.839  21.003  0.00  0.00    +0.000 OA
ENDBRANCH   5  12
ENDBRANCH   1   8
BRANCH   2  13
ATOM     13  C   UNL     1       5.722   4.450  14.338  0.00  0.00    +0.000 A 
ATOM     14  C   UNL     1       5.028   3.695  13.374  0.00  0.00    +0.000 A 
ATOM     15  C   UNL     1       5.629   3.348  12.168  0.00  0.00    +0.000 A 
ATOM     16  C   UNL     1       6.925   3.774  11.906  0.00  0.00    +0.000 A 
ATOM     17  C   UNL     1       7.616   4.543  12.850  0.00  0.00    +0.000 A 
ATOM     18  C   UNL     1       7.051   4.847  14.101  0.00  0.00    +0.000 A 
BRANCH  18  19
ATOM     19  N   UNL     1       7.777   5.678  14.979  0.00  0.00    +0.000 N 
ATOM     20  H   UNL     1       8.748   5.391  15.079  0.00  0.00    +0.000 HD
ATOM     21  H   UNL     1       7.332   5.751  15.896  0.00  0.00    +0.000 HD
ENDBRANCH  18  19
ENDBRANCH   2  13
TORSDOF 4
ENDMDL
MODEL 5
REMARK VINA RESULT:      -6.5      1.948      7.285
REMARK  Name = 
REMARK  5 active torsions:
REMARK  status: ('A' for Active; 'I' for Inactive)
REMARK    1  A    between atoms: C_1  and  O_2
REMARK    2  A    between atoms: O_2  and  C_3
REMARK    3  A    between atoms: C_6  and  N_7
REMARK    4  A    between atoms: C_8  and  C_10
REMARK    5  A    between atoms: C_15  and  N_16
REMARK                            x       y       z     vdW  Elec       q    Type
REMARK                         _______ _______ _______ _____ _____    ______ ____
ROOT
ATOM      1  N   UNL     1       4.656   3.683  17.706  0.00  0.00    +0.000 N 
ATOM      2  C   UNL     1       3.512   4.361  18.104  0.00  0.00    +0.000 C 
ATOM      3  O   UNL     1       3.061   5.375  17.583  0.00  0.00    +0.000 OA
ATOM      4  H   UNL     1       4.794   2.759  18.093  0.00  0.00    +0.000 HD
ENDROOT
BRANCH   1   8
ATOM      5  C   UNL     1       7.209   5.021  14.599  0.00  0.00    +0.000 A 
ATOM      6  C   UNL     1       7.483   5.362  15.918  0.00  0.00    +0.000 A 
ATOM      7  C   UNL     1       6.665   4.906  16.952  0.00  0.00    +0.000 A 
ATOM      8  C   UNL     1       5.539   4.122  16.688  0.00  0.00    +0.000 A 
ATOM      9  C   UNL     1       5.277   3.762  15.363  0.00  0.00    +0.000 A 
ATOM     10  C   UNL     1       6.103   4.218  14.318  0.00  0.00    +0.000 A 
BRANCH   5  12
ATOM     11  C   UNL     1       7.775   5.293  12.318  0.00  0.00    +0.000 C 
ATOM     12  O   UNL     1       8.063   5.565  13.682  0.00  0.00    +0.000 OA
ENDBRANCH   5  12
ENDBRANCH   1   8
BRANCH   2  13
ATOM     13  C   UNL     1       2.734   3.785  19.234  0.00  0.00    +0.000 A 
ATOM     14  C   UNL     1       2.758   4.527  20.430  0.00  0.00    +0.000 A 
ATOM     15  C   UNL     1       2.145   4.047  21.583  0.00  0.00    +0.000 A 
ATOM     16  C   UNL     1       1.483   2.825  21.543  0.00  0.00    +0.000 A 
ATOM     17  C   UNL     1       1.437   2.090  20.353  0.00  0.00    +0.000 A 
ATOM     18  C   UNL     1       2.105   2.527  19.197  0.00  0.00    +0.000 A 
BRANCH  18  19
ATOM     19  N   UNL     1       1.964   1.769  18.015  0.00  0.00    +0.000 N 
ATOM     20  H   UNL     1       2.795   1.223  17.798  0.00  0.00    +0.000 HD
ATOM     21  H   UNL     1       1.700   2.348  17.216  0.00  0.00    +0.000 HD
ENDBRANCH  18  19
ENDBRANCH   2  13
TORSDOF 4
ENDMDL
MODEL 6
REMARK VINA RESULT:      -6.5      2.034      7.194
REMARK  Name = 
REMARK  5 active torsions:
REMARK  status: ('A' for Active; 'I' for Inactive)
REMARK    1  A    between atoms: C_1  and  O_2
REMARK    2  A    between atoms: O_2  and  C_3
REMARK    3  A    between atoms: C_6  and  N_7
REMARK    4  A    between atoms: C_8  and  C_10
REMARK    5  A    between atoms: C_15  and  N_16
REMARK                            x       y       z     vdW  Elec       q    Type
REMARK                         _______ _______ _______ _____ _____    ______ ____
ROOT
ATOM      1  N   UNL     1       4.542   4.166  17.812  0.00  0.00    +0.000 N 
ATOM      2  C   UNL     1       3.933   2.957  18.116  0.00  0.00    +0.000 C 
ATOM      3  O   UNL     1       4.082   1.904  17.504  0.00  0.00    +0.000 OA
ATOM      4  H   UNL     1       4.488   4.891  18.515  0.00  0.00    +0.000 HD
ENDROOT
BRANCH   1   8
ATOM      5  C   UNL     1       6.902   4.907  14.369  0.00  0.00    +0.000 A 
ATOM      6  C   UNL     1       7.478   4.967  15.633  0.00  0.00    +0.000 A 
ATOM      7  C   UNL     1       6.718   4.700  16.772  0.00  0.00    +0.000 A 
ATOM      8  C   UNL     1       5.359   4.393  16.675  0.00  0.00    +0.000 A 
ATOM      9  C   UNL     1       4.786   4.311  15.403  0.00  0.00    +0.000 A 
ATOM     10  C   UNL     1       5.551   4.577  14.252  0.00  0.00    +0.000 A 
BRANCH   5  12
ATOM     11  C   UNL     1       7.415   4.694  12.070  0.00  0.00    +0.000 C 
ATOM     12  O   UNL     1       7.745   5.229  13.344  0.00  0.00    +0.000 OA
ENDBRANCH   5  12
ENDBRANCH   1   8
BRANCH   2  13
ATOM     13  C   UNL     1       3.058   2.915  19.319  0.00  0.00    +0.000 A 
ATOM     14  C   UNL     1       1.764   3.444  19.147  0.00  0.00    +0.000 A 
ATOM     15  C   UNL     1       0.885   3.545  20.221  0.00  0.00    +0.000 A 
ATOM     16  C   UNL     1       1.286   3.097  21.474  0.00  0.00    +0.000 A 
ATOM     17  C   UNL     1       2.563   2.551  21.649  0.00  0.00    +0.000 A 
ATOM     18  C   UNL     1       3.488   2.501  20.593  0.00  0.00    +0.000 A 
BRANCH  18  19
ATOM     19  N   UNL     1       4.734   1.881  20.822  0.00  0.00    +0.000 N 
ATOM     20  H   UNL     1       5.247   2.304  21.592  0.00  0.00    +0.000 HD
ATOM     21  H   UNL     1       5.312   1.856  19.981  0.00  0.00    +0.000 HD
ENDBRANCH  18  19
ENDBRANCH   2  13
TORSDOF 4
ENDMDL
MODEL 7
REMARK VINA RESULT:      -6.5      2.023      7.113
REMARK  Name = 
REMARK  5 active torsions:
REMARK  status: ('A' for Active; 'I' for Inactive)
REMARK    1  A    between atoms: C_1  and  O_2
REMARK    2  A    between atoms: O_2  and  C_3
REMARK    3  A    between atoms: C_6  and  N_7
REMARK    4  A    between atoms: C_8  and  C_10
REMARK    5  A    between atoms: C_15  and  N_16
REMARK                            x       y       z     vdW  Elec       q    Type
REMARK                         _______ _______ _______ _____ _____    ______ ____
ROOT
ATOM      1  N   UNL     1       4.344   3.840  17.057  0.00  0.00    +0.000 N 
ATOM      2  C   UNL     1       3.490   4.719  17.709  0.00  0.00    +0.000 C 
ATOM      3  O   UNL     1       3.448   5.933  17.544  0.00  0.00    +0.000 OA
ATOM      4  H   UNL     1       4.131   2.854  17.139  0.00  0.00    +0.000 HD
ENDROOT
BRANCH   1   8
ATOM      5  C   UNL     1       7.354   5.043  14.326  0.00  0.00    +0.000 A 
ATOM      6  C   UNL     1       7.501   5.307  15.683  0.00  0.00    +0.000 A 
ATOM      7  C   UNL     1       6.530   4.893  16.595  0.00  0.00    +0.000 A 
ATOM      8  C   UNL     1       5.377   4.230  16.168  0.00  0.00    +0.000 A 
ATOM      9  C   UNL     1       5.240   3.946  14.806  0.00  0.00    +0.000 A 
ATOM     10  C   UNL     1       6.220   4.360  13.884  0.00  0.00    +0.000 A 
BRANCH   5  12
ATOM     11  C   UNL     1       8.033   5.743  12.171  0.00  0.00    +0.000 C 
ATOM     12  O   UNL     1       8.355   5.537  13.539  0.00  0.00    +0.000 OA
ENDBRANCH   5  12
ENDBRANCH   1   8
BRANCH   2  13
ATOM     13  C   UNL     1       2.502   4.136  18.657  0.00  0.00    +0.000 A 
ATOM     14  C   UNL     1       1.821   2.993  18.198  0.00  0.00    +0.000 A 
ATOM     15  C   UNL     1       0.808   2.412  18.956  0.00  0.00    +0.000 A 
ATOM     16  C   UNL     1       0.483   2.959  20.191  0.00  0.00    +0.000 A 
ATOM     17  C   UNL     1       1.169   4.083  20.664  0.00  0.00    +0.000 A 
ATOM     18  C   UNL     1       2.149   4.723  19.886  0.00  0.00    +0.000 A 
BRANCH  18  19
ATOM     19  N   UNL     1       2.845   5.813  20.449  0.00  0.00    +0.000 N 
ATOM     20  H   UNL     1       2.634   5.947  21.435  0.00  0.00    +0.000 HD
ATOM     21  H   UNL     1       2.687   6.679  19.931  0.00  0.00    +0.000 HD
ENDBRANCH  18  19
ENDBRANCH   2  13
TORSDOF 4
ENDMDL
MODEL 8
REMARK VINA RESULT:      -6.5      2.026      7.179
REMARK  Name = 
REMARK  5 active torsions:
REMARK  status: ('A' for Active; 'I' for Inactive)
REMARK    1  A    between atoms: C_1  and  O_2
REMARK    2  A    between atoms: O_2  and  C_3
REMARK    3  A    between atoms: C_6  and  N_7
REMARK    4  A    between atoms: C_8  and  C_10
REMARK    5  A    between atoms: C_15  and  N_16
REMARK                            x       y       z     vdW  Elec       q    Type
REMARK                         _______ _______ _______ _____ _____    ______ ____
ROOT
ATOM      1  N   UNL     1       4.498   4.260  17.833  0.00  0.00    +0.000 N 
ATOM      2  C   UNL     1       3.889   3.043  18.106  0.00  0.00    +0.000 C 
ATOM      3  O   UNL     1       4.022   2.012  17.456  0.00  0.00    +0.000 OA
ATOM      4  H   UNL     1       4.460   4.961  18.561  0.00  0.00    +0.000 HD
ENDROOT
BRANCH   1   8
ATOM      5  C   UNL     1       6.966   4.991  14.465  0.00  0.00    +0.000 A 
ATOM      6  C   UNL     1       5.639   4.619  14.286  0.00  0.00    +0.000 A 
ATOM      7  C   UNL     1       4.809   4.400  15.386  0.00  0.00    +0.000 A 
ATOM      8  C   UNL     1       5.295   4.523  16.690  0.00  0.00    +0.000 A 
ATOM      9  C   UNL     1       6.624   4.919  16.869  0.00  0.00    +0.000 A 
ATOM     10  C   UNL     1       7.462   5.144  15.760  0.00  0.00    +0.000 A 
BRANCH   5  12
ATOM     11  C   UNL     1       7.221   4.380  12.194  0.00  0.00    +0.000 C 
ATOM     12  O   UNL     1       7.678   5.134  13.308  0.00  0.00    +0.000 OA
ENDBRANCH   5  12
ENDBRANCH   1   8
BRANCH   2  13
ATOM     13  C   UNL     1       3.035   2.964  19.322  0.00  0.00    +0.000 A 
ATOM     14  C   UNL     1       1.738   3.493  19.189  0.00  0.00    +0.000 A 
ATOM     15  C   UNL     1       0.877   3.560  20.281  0.00  0.00    +0.000 A 
ATOM     16  C   UNL     1       1.301   3.077  21.513  0.00  0.00    +0.000 A 
ATOM     17  C   UNL     1       2.582   2.530  21.649  0.00  0.00    +0.000 A 
ATOM     18  C   UNL     1       3.489   2.513  20.576  0.00  0.00    +0.000 A 
BRANCH  18  19
ATOM     19  N   UNL     1       4.740   1.890  20.765  0.00  0.00    +0.000 N 
ATOM     20  H   UNL     1       5.296   2.339  21.489  0.00  0.00    +0.000 HD
ATOM     21  H   UNL     1       5.274   1.827  19.896  0.00  0.00    +0.000 HD
ENDBRANCH  18  19
ENDBRANCH   2  13
TORSDOF 4
ENDMDL
MODEL 9
REMARK VINA RESULT:      -6.5      2.094      7.255
REMARK  Name = 
REMARK  5 active torsions:
REMARK  status: ('A' for Active; 'I' for Inactive)
REMARK    1  A    between atoms: C_1  and  O_2
REMARK    2  A    between atoms: O_2  and  C_3
REMARK    3  A    between atoms: C_6  and  N_7
REMARK    4  A    between atoms: C_8  and  C_10
REMARK    5  A    between atoms: C_15  and  N_16
REMARK                            x       y       z     vdW  Elec       q    Type
REMARK                         _______ _______ _______ _____ _____    ______ ____
ROOT
ATOM      1  N   UNL     1       4.200   4.133  17.477  0.00  0.00    +0.000 N 
ATOM      2  C   UNL     1       4.526   3.884  18.802  0.00  0.00    +0.000 C 
ATOM      3  O   UNL     1       5.636   4.018  19.306  0.00  0.00    +0.000 OA
ATOM      4  H   UNL     1       3.215   4.176  17.252  0.00  0.00    +0.000 HD
ENDROOT
BRANCH   1   8
ATOM      5  C   UNL     1       7.064   5.225  14.549  0.00  0.00    +0.000 A 
ATOM      6  C   UNL     1       6.314   4.066  14.389  0.00  0.00    +0.000 A 
ATOM      7  C   UNL     1       5.350   3.709  15.333  0.00  0.00    +0.000 A 
ATOM      8  C   UNL     1       5.134   4.489  16.471  0.00  0.00    +0.000 A 
ATOM      9  C   UNL     1       5.873   5.666  16.620  0.00  0.00    +0.000 A 
ATOM     10  C   UNL     1       6.843   6.030  15.667  0.00  0.00    +0.000 A 
BRANCH   5  12
ATOM     11  C   UNL     1       7.661   4.984  12.273  0.00  0.00    +0.000 C 
ATOM     12  O   UNL     1       7.999   5.436  13.576  0.00  0.00    +0.000 OA
ENDBRANCH   5  12
ENDBRANCH   1   8
BRANCH   2  13
ATOM     13  C   UNL     1       3.425   3.461  19.710  0.00  0.00    +0.000 A 
ATOM     14  C   UNL     1       2.201   4.133  19.535  0.00  0.00    +0.000 A 
ATOM     15  C   UNL     1       1.125   3.892  20.383  0.00  0.00    +0.000 A 
ATOM     16  C   UNL     1       1.258   2.957  21.403  0.00  0.00    +0.000 A 
ATOM     17  C   UNL     1       2.464   2.269  21.571  0.00  0.00    +0.000 A 
ATOM     18  C   UNL     1       3.583   2.546  20.767  0.00  0.00    +0.000 A 
BRANCH  18  19
ATOM     19  N   UNL     1       4.748   1.771  20.950  0.00  0.00    +0.000 N 
ATOM     20  H   UNL     1       5.164   1.475  20.069  0.00  0.00    +0.000 HD
ATOM     21  H   UNL     1       4.583   0.964  21.554  0.00  0.00    +0.000 HD
ENDBRANCH  18  19
ENDBRANCH   2  13
TORSDOF 4
ENDMDL
