MODEL 1
REMARK VINA RESULT:      -5.8      0.000      0.000
REMARK  Name = 
REMARK  4 active torsions:
REMARK  status: ('A' for Active; 'I' for Inactive)
REMARK    1  A    between atoms: C_1  and  C_2
REMARK    2  A    between atoms: C_6  and  O_7
REMARK    3  A    between atoms: O_7  and  C_8
REMARK    4  A    between atoms: C_8  and  C_9
REMARK                            x       y       z     vdW  Elec       q    Type
REMARK                         _______ _______ _______ _____ _____    ______ ____
ROOT
ATOM      1  C   UNL     1       1.421   2.760  21.572  0.00  0.00    +0.000 C 
ATOM      2  C   UNL     1       1.742   3.387  20.253  0.00  0.00    +0.000 A 
ATOM      3  C   UNL     1       1.056   3.029  19.098  0.00  0.00    +0.000 A 
ATOM      4  N   UNL     1       1.292   3.570  17.882  0.00  0.00    +0.000 NA
ATOM      5  C   UNL     1       2.258   4.515  17.822  0.00  0.00    +0.000 A 
ATOM      6  C   UNL     1       3.015   4.937  18.907  0.00  0.00    +0.000 A 
ATOM      7  C   UNL     1       2.743   4.364  20.145  0.00  0.00    +0.000 A 
ENDROOT
BRANCH   6   8
ATOM      8  O   UNL     1       3.939   5.909  18.663  0.00  0.00    +0.000 OA
BRANCH   8   9
ATOM      9  C   UNL     1       4.967   5.590  17.721  0.00  0.00    +0.000 C 
BRANCH   9  10
ATOM     10  C   UNL     1       6.053   4.724  18.390  0.00  0.00    +0.000 C 
ATOM     11  C   UNL     1       7.485   4.789  17.820  0.00  0.00    +0.000 C 
ATOM     12  C   UNL     1       7.772   5.781  18.955  0.00  0.00    +0.000 C 
ATOM     13  N   UNL     1       6.595   5.246  19.674  0.00  0.00    +0.000 NA
ATOM     14  H   UNL     1       6.026   5.965  20.119  0.00  0.00    +0.000 HD
ENDBRANCH   9  10
ENDBRANCH   8   9
ENDBRANCH   6   8
TORSDOF 3
ENDMDL
MODEL 2
REMARK VINA RESULT:      -5.6      1.331      1.388
REMARK  Name = 
REMARK  4 active torsions:
REMARK  status: ('A' for Active; 'I' for Inactive)
REMARK    1  A    between atoms: C_1  and  C_2
REMARK    2  A    between atoms: C_6  and  O_7
REMARK    3  A    between atoms: O_7  and  C_8
REMARK    4  A    between atoms: C_8  and  C_9
REMARK                            x       y       z     vdW  Elec       q    Type
REMARK                         _______ _______ _______ _____ _____    ______ ____
ROOT
ATOM      1  C   UNL     1       2.073   3.427  21.551  0.00  0.00    +0.000 C 
ATOM      2  C   UNL     1       2.283   3.490  20.071  0.00  0.00    +0.000 A 
ATOM      3  C   UNL     1       1.209   3.483  19.189  0.00  0.00    +0.000 A 
ATOM      4  N   UNL     1       1.336   3.552  17.845  0.00  0.00    +0.000 NA
ATOM      5  C   UNL     1       2.598   3.632  17.365  0.00  0.00    +0.000 A 
ATOM      6  C   UNL     1       3.742   3.630  18.152  0.00  0.00    +0.000 A 
ATOM      7  C   UNL     1       3.576   3.565  19.531  0.00  0.00    +0.000 A 
ENDROOT
BRANCH   6   8
ATOM      8  O   UNL     1       4.931   3.730  17.495  0.00  0.00    +0.000 OA
BRANCH   8   9
ATOM      9  C   UNL     1       5.280   5.026  16.998  0.00  0.00    +0.000 C 
BRANCH   9  10
ATOM     10  C   UNL     1       6.811   5.206  17.010  0.00  0.00    +0.000 C 
ATOM     11  C   UNL     1       7.386   6.482  17.661  0.00  0.00    +0.000 C 
ATOM     12  C   UNL     1       7.616   5.611  18.902  0.00  0.00    +0.000 C 
ATOM     13  N   UNL     1       7.547   4.415  18.034  0.00  0.00    +0.000 NA
ATOM     14  H   UNL     1       7.019   3.644  18.442  0.00  0.00    +0.000 HD
ENDBRANCH   9  10
ENDBRANCH   8   9
ENDBRANCH   6   8
TORSDOF 3
ENDMDL
MODEL 3
REMARK VINA RESULT:      -5.6      1.845      5.384
REMARK  Name = 
REMARK  4 active torsions:
REMARK  status: ('A' for Active; 'I' for Inactive)
REMARK    1  A    between atoms: C_1  and  C_2
REMARK    2  A    between atoms: C_6  and  O_7
REMARK    3  A    between atoms: O_7  and  C_8
REMARK    4  A    between atoms: C_8  and  C_9
REMARK                            x       y       z     vdW  Elec       q    Type
REMARK                         _______ _______ _______ _____ _____    ______ ____
ROOT
ATOM      1  C   UNL     1       6.780   4.933  15.279  0.00  0.00    +0.000 C 
ATOM      2  C   UNL     1       6.093   4.519  16.541  0.00  0.00    +0.000 A 
ATOM      3  C   UNL     1       6.682   4.724  17.784  0.00  0.00    +0.000 A 
ATOM      4  N   UNL     1       6.104   4.384  18.958  0.00  0.00    +0.000 NA
ATOM      5  C   UNL     1       4.879   3.814  18.881  0.00  0.00    +0.000 A 
ATOM      6  C   UNL     1       4.207   3.549  17.696  0.00  0.00    +0.000 A 
ATOM      7  C   UNL     1       4.826   3.917  16.507  0.00  0.00    +0.000 A 
ENDROOT
BRANCH   6   8
ATOM      8  O   UNL     1       2.974   2.980  17.811  0.00  0.00    +0.000 OA
BRANCH   8   9
ATOM      9  C   UNL     1       1.898   3.853  18.167  0.00  0.00    +0.000 C 
BRANCH   9  10
ATOM     10  C   UNL     1       1.063   3.232  19.305  0.00  0.00    +0.000 C 
ATOM     11  C   UNL     1       1.792   2.354  20.343  0.00  0.00    +0.000 C 
ATOM     12  C   UNL     1       1.810   3.609  21.226  0.00  0.00    +0.000 C 
ATOM     13  N   UNL     1       0.699   4.153  20.416  0.00  0.00    +0.000 NA
ATOM     14  H   UNL     1       0.798   5.145  20.200  0.00  0.00    +0.000 HD
ENDBRANCH   9  10
ENDBRANCH   8   9
ENDBRANCH   6   8
TORSDOF 3
ENDMDL
MODEL 4
REMARK VINA RESULT:      -5.6      1.867      5.389
REMARK  Name = 
REMARK  4 active torsions:
REMARK  status: ('A' for Active; 'I' for Inactive)
REMARK    1  A    between atoms: C_1  and  C_2
REMARK    2  A    between atoms: C_6  and  O_7
REMARK    3  A    between atoms: O_7  and  C_8
REMARK    4  A    between atoms: C_8  and  C_9
REMARK                            x       y       z     vdW  Elec       q    Type
REMARK                         _______ _______ _______ _____ _____    ______ ____
ROOT
ATOM      1  C   UNL     1       6.346   4.241  14.784  0.00  0.00    +0.000 C 
ATOM      2  C   UNL     1       6.096   4.343  16.255  0.00  0.00    +0.000 A 
ATOM      3  C   UNL     1       7.134   4.580  17.149  0.00  0.00    +0.000 A 
ATOM      4  N   UNL     1       6.967   4.696  18.485  0.00  0.00    +0.000 NA
ATOM      5  C   UNL     1       5.701   4.569  18.945  0.00  0.00    +0.000 A 
ATOM      6  C   UNL     1       4.594   4.316  18.146  0.00  0.00    +0.000 A 
ATOM      7  C   UNL     1       4.800   4.209  16.775  0.00  0.00    +0.000 A 
ENDROOT
BRANCH   6   8
ATOM      8  O   UNL     1       3.392   4.232  18.783  0.00  0.00    +0.000 OA
BRANCH   8   9
ATOM      9  C   UNL     1       3.249   5.000  19.981  0.00  0.00    +0.000 C 
BRANCH   9  10
ATOM     10  C   UNL     1       1.977   4.570  20.740  0.00  0.00    +0.000 C 
ATOM     11  C   UNL     1       1.017   3.582  20.044  0.00  0.00    +0.000 C 
ATOM     12  C   UNL     1       1.715   2.495  20.873  0.00  0.00    +0.000 C 
ATOM     13  N   UNL     1       2.175   3.549  21.804  0.00  0.00    +0.000 NA
ATOM     14  H   UNL     1       3.140   3.430  22.111  0.00  0.00    +0.000 HD
ENDBRANCH   9  10
ENDBRANCH   8   9
ENDBRANCH   6   8
TORSDOF 3
ENDMDL
MODEL 5
REMARK VINA RESULT:      -5.6      2.127      5.593
REMARK  Name = 
REMARK  4 active torsions:
REMARK  status: ('A' for Active; 'I' for Inactive)
REMARK    1  A    between atoms: C_1  and  C_2
REMARK    2  A    between atoms: C_6  and  O_7
REMARK    3  A    between atoms: O_7  and  C_8
REMARK    4  A    between atoms: C_8  and  C_9
REMARK                            x       y       z     vdW  Elec       q    Type
REMARK                         _______ _______ _______ _____ _____    ______ ____
ROOT
ATOM      1  C   UNL     1       5.602   4.023  13.985  0.00  0.00    +0.000 C 
ATOM      2  C   UNL     1       5.925   4.233  15.430  0.00  0.00    +0.000 A 
ATOM      3  C   UNL     1       7.200   4.612  15.836  0.00  0.00    +0.000 A 
ATOM      4  N   UNL     1       7.547   4.830  17.124  0.00  0.00    +0.000 NA
ATOM      5  C   UNL     1       6.572   4.661  18.046  0.00  0.00    +0.000 A 
ATOM      6  C   UNL     1       5.272   4.269  17.754  0.00  0.00    +0.000 A 
ATOM      7  C   UNL     1       4.946   4.060  16.419  0.00  0.00    +0.000 A 
ENDROOT
BRANCH   6   8
ATOM      8  O   UNL     1       4.419   4.161  18.811  0.00  0.00    +0.000 OA
BRANCH   8   9
ATOM      9  C   UNL     1       4.237   2.850  19.355  0.00  0.00    +0.000 C 
BRANCH   9  10
ATOM     10  C   UNL     1       2.785   2.672  19.841  0.00  0.00    +0.000 C 
ATOM     11  C   UNL     1       1.769   3.788  19.515  0.00  0.00    +0.000 C 
ATOM     12  C   UNL     1       1.340   2.898  18.340  0.00  0.00    +0.000 C 
ATOM     13  N   UNL     1       1.944   1.743  19.039  0.00  0.00    +0.000 NA
ATOM     14  H   UNL     1       2.463   1.118  18.422  0.00  0.00    +0.000 HD
ENDBRANCH   9  10
ENDBRANCH   8   9
ENDBRANCH   6   8
TORSDOF 3
ENDMDL
MODEL 6
REMARK VINA RESULT:      -5.5      2.986      5.690
REMARK  Name = 
REMARK  4 active torsions:
REMARK  status: ('A' for Active; 'I' for Inactive)
REMARK    1  A    between atoms: C_1  and  C_2
REMARK    2  A    between atoms: C_6  and  O_7
REMARK    3  A    between atoms: O_7  and  C_8
REMARK    4  A    between atoms: C_8  and  C_9
REMARK                            x       y       z     vdW  Elec       q    Type
REMARK                         _______ _______ _______ _____ _____    ______ ____
ROOT
ATOM      1  C   UNL     1       5.798   3.529  12.760  0.00  0.00    +0.000 C 
ATOM      2  C   UNL     1       6.167   4.111  14.087  0.00  0.00    +0.000 A 
ATOM      3  C   UNL     1       7.217   5.013  14.214  0.00  0.00    +0.000 A 
ATOM      4  N   UNL     1       7.587   5.581  15.383  0.00  0.00    +0.000 NA
ATOM      5  C   UNL     1       6.870   5.230  16.475  0.00  0.00    +0.000 A 
ATOM      6  C   UNL     1       5.813   4.328  16.467  0.00  0.00    +0.000 A 
ATOM      7  C   UNL     1       5.455   3.766  15.246  0.00  0.00    +0.000 A 
ENDROOT
BRANCH   6   8
ATOM      8  O   UNL     1       5.198   4.103  17.661  0.00  0.00    +0.000 OA
BRANCH   8   9
ATOM      9  C   UNL     1       5.204   5.185  18.597  0.00  0.00    +0.000 C 
BRANCH   9  10
ATOM     10  C   UNL     1       3.818   5.859  18.641  0.00  0.00    +0.000 C 
ATOM     11  C   UNL     1       2.596   5.034  18.183  0.00  0.00    +0.000 C 
ATOM     12  C   UNL     1       2.361   4.763  19.674  0.00  0.00    +0.000 C 
ATOM     13  N   UNL     1       3.186   5.950  19.986  0.00  0.00    +0.000 NA
ATOM     14  H   UNL     1       3.824   5.810  20.769  0.00  0.00    +0.000 HD
ENDBRANCH   9  10
ENDBRANCH   8   9
ENDBRANCH   6   8
TORSDOF 3
ENDMDL
MODEL 7
REMARK VINA RESULT:      -5.5      2.184      5.765
REMARK  Name = 
REMARK  4 active torsions:
REMARK  status: ('A' for Active; 'I' for Inactive)
REMARK    1  A    between atoms: C_1  and  C_2
REMARK    2  A    between atoms: C_6  and  O_7
REMARK    3  A    between atoms: O_7  and  C_8
REMARK    4  A    between atoms: C_8  and  C_9
REMARK                            x       y       z     vdW  Elec       q    Type
REMARK                         _______ _______ _______ _____ _____    ______ ____
ROOT
ATOM      1  C   UNL     1       5.955   3.954  13.733  0.00  0.00    +0.000 C 
ATOM      2  C   UNL     1       6.119   4.189  15.201  0.00  0.00    +0.000 A 
ATOM      3  C   UNL     1       7.308   4.684  15.724  0.00  0.00    +0.000 A 
ATOM      4  N   UNL     1       7.509   4.931  17.038  0.00  0.00    +0.000 NA
ATOM      5  C   UNL     1       6.471   4.669  17.864  0.00  0.00    +0.000 A 
ATOM      6  C   UNL     1       5.247   4.158  17.453  0.00  0.00    +0.000 A 
ATOM      7  C   UNL     1       5.070   3.923  16.094  0.00  0.00    +0.000 A 
ENDROOT
BRANCH   6   8
ATOM      8  O   UNL     1       4.311   3.968  18.425  0.00  0.00    +0.000 OA
BRANCH   8   9
ATOM      9  C   UNL     1       3.452   2.834  18.272  0.00  0.00    +0.000 C 
BRANCH   9  10
ATOM     10  C   UNL     1       1.984   3.290  18.151  0.00  0.00    +0.000 C 
ATOM     11  C   UNL     1       0.901   2.441  18.850  0.00  0.00    +0.000 C 
ATOM     12  C   UNL     1       0.985   3.473  19.983  0.00  0.00    +0.000 C 
ATOM     13  N   UNL     1       1.586   4.426  19.025  0.00  0.00    +0.000 NA
ATOM     14  H   UNL     1       2.363   4.961  19.414  0.00  0.00    +0.000 HD
ENDBRANCH   9  10
ENDBRANCH   8   9
ENDBRANCH   6   8
TORSDOF 3
ENDMDL
MODEL 8
REMARK VINA RESULT:      -5.5      1.634      5.560
REMARK  Name = 
REMARK  4 active torsions:
REMARK  status: ('A' for Active; 'I' for Inactive)
REMARK    1  A    between atoms: C_1  and  C_2
REMARK    2  A    between atoms: C_6  and  O_7
REMARK    3  A    between atoms: O_7  and  C_8
REMARK    4  A    between atoms: C_8  and  C_9
REMARK                            x       y       z     vdW  Elec       q    Type
REMARK                         _______ _______ _______ _____ _____    ______ ____
ROOT
ATOM      1  C   UNL     1       6.602   4.341  14.463  0.00  0.00    +0.000 C 
ATOM      2  C   UNL     1       6.270   4.437  15.918  0.00  0.00    +0.000 A 
ATOM      3  C   UNL     1       7.268   4.501  16.884  0.00  0.00    +0.000 A 
ATOM      4  N   UNL     1       7.029   4.603  18.210  0.00  0.00    +0.000 NA
ATOM      5  C   UNL     1       5.730   4.642  18.585  0.00  0.00    +0.000 A 
ATOM      6  C   UNL     1       4.655   4.569  17.709  0.00  0.00    +0.000 A 
ATOM      7  C   UNL     1       4.936   4.472  16.351  0.00  0.00    +0.000 A 
ENDROOT
BRANCH   6   8
ATOM      8  O   UNL     1       3.413   4.636  18.266  0.00  0.00    +0.000 OA
BRANCH   8   9
ATOM      9  C   UNL     1       2.378   3.899  17.608  0.00  0.00    +0.000 C 
BRANCH   9  10
ATOM     10  C   UNL     1       2.081   2.597  18.377  0.00  0.00    +0.000 C 
ATOM     11  C   UNL     1       2.486   2.525  19.865  0.00  0.00    +0.000 C 
ATOM     12  C   UNL     1       1.021   2.873  20.164  0.00  0.00    +0.000 C 
ATOM     13  N   UNL     1       0.669   2.406  18.805  0.00  0.00    +0.000 NA
ATOM     14  H   UNL     1      -0.008   3.003  18.331  0.00  0.00    +0.000 HD
ENDBRANCH   9  10
ENDBRANCH   8   9
ENDBRANCH   6   8
TORSDOF 3
ENDMDL
MODEL 9
REMARK VINA RESULT:      -5.5      2.355      3.023
REMARK  Name = 
REMARK  4 active torsions:
REMARK  status: ('A' for Active; 'I' for Inactive)
REMARK    1  A    between atoms: C_1  and  C_2
REMARK    2  A    between atoms: C_6  and  O_7
REMARK    3  A    between atoms: O_7  and  C_8
REMARK    4  A    between atoms: C_8  and  C_9
REMARK                            x       y       z     vdW  Elec       q    Type
REMARK                         _______ _______ _______ _____ _____    ______ ____
ROOT
ATOM      1  C   UNL     1       1.298   4.419  17.613  0.00  0.00    +0.000 C 
ATOM      2  C   UNL     1       2.469   3.878  18.368  0.00  0.00    +0.000 A 
ATOM      3  C   UNL     1       2.321   2.848  19.289  0.00  0.00    +0.000 A 
ATOM      4  N   UNL     1       3.343   2.309  19.990  0.00  0.00    +0.000 NA
ATOM      5  C   UNL     1       4.570   2.827  19.756  0.00  0.00    +0.000 A 
ATOM      6  C   UNL     1       4.831   3.866  18.872  0.00  0.00    +0.000 A 
ATOM      7  C   UNL     1       3.758   4.393  18.162  0.00  0.00    +0.000 A 
ENDROOT
BRANCH   6   8
ATOM      8  O   UNL     1       6.133   4.252  18.756  0.00  0.00    +0.000 OA
BRANCH   8   9
ATOM      9  C   UNL     1       6.430   5.193  17.720  0.00  0.00    +0.000 C 
BRANCH   9  10
ATOM     10  C   UNL     1       7.096   4.478  16.527  0.00  0.00    +0.000 C 
ATOM     11  C   UNL     1       6.183   3.761  15.509  0.00  0.00    +0.000 C 
ATOM     12  C   UNL     1       6.329   5.028  14.656  0.00  0.00    +0.000 C 
ATOM     13  N   UNL     1       7.552   5.360  15.418  0.00  0.00    +0.000 NA
ATOM     14  H   UNL     1       7.629   6.348  15.659  0.00  0.00    +0.000 HD
ENDBRANCH   9  10
ENDBRANCH   8   9
ENDBRANCH   6   8
TORSDOF 3
ENDMDL
