MODEL 1
REMARK VINA RESULT:      -8.6      0.000      0.000
REMARK  Name = 
REMARK  6 active torsions:
REMARK  status: ('A' for Active; 'I' for Inactive)
REMARK    1  A    between atoms: C_1  and  C_2
REMARK    2  A    between atoms: C_6  and  C_7
REMARK    3  A    between atoms: N_9  and  C_10
REMARK    4  A    between atoms: C_13  and  S_14
REMARK    5  A    between atoms: S_14  and  N_15
REMARK    6  A    between atoms: C_20  and  C_21
REMARK                            x       y       z     vdW  Elec       q    Type
REMARK                         _______ _______ _______ _____ _____    ______ ____
ROOT
ATOM      1  C   UNL     1      -0.826  10.294  18.297  0.00  0.00    +0.000 C 
ATOM      2  N   UNL     1       0.185   9.753  17.681  0.00  0.00    +0.000 NA
ATOM      3  N   UNL     1       1.235   9.747  18.601  0.00  0.00    +0.000 N 
ATOM      4  C   UNL     1       0.892  10.690  19.703  0.00  0.00    +0.000 C 
ATOM      5  C   UNL     1      -0.605  10.429  19.772  0.00  0.00    +0.000 C 
ENDROOT
BRANCH   4   6
ATOM      6  C   UNL     1       1.346  12.142  19.385  0.00  0.00    +0.000 A 
ATOM      7  C   UNL     1       2.312  12.369  18.380  0.00  0.00    +0.000 A 
ATOM      8  C   UNL     1       3.064  13.541  18.350  0.00  0.00    +0.000 A 
ATOM      9  C   UNL     1       2.951  14.450  19.394  0.00  0.00    +0.000 A 
ATOM     10  C   UNL     1       1.968  14.285  20.379  0.00  0.00    +0.000 A 
ATOM     11  C   UNL     1       1.890  15.173  21.468  0.00  0.00    +0.000 A 
ATOM     12  C   UNL     1       0.822  15.127  22.360  0.00  0.00    +0.000 A 
ATOM     13  C   UNL     1      -0.221  14.253  22.118  0.00  0.00    +0.000 A 
ATOM     14  C   UNL     1      -0.098  13.308  21.103  0.00  0.00    +0.000 A 
ATOM     15  C   UNL     1       1.050  13.215  20.284  0.00  0.00    +0.000 A 
ENDBRANCH   4   6
BRANCH   1  21
ATOM     16  C   UNL     1      -3.892  10.137  14.378  0.00  0.00    +0.000 C 
ATOM     17  C   UNL     1      -3.567  10.681  15.734  0.00  0.00    +0.000 A 
ATOM     18  C   UNL     1      -4.548  11.289  16.521  0.00  0.00    +0.000 A 
ATOM     19  C   UNL     1      -4.270  11.673  17.832  0.00  0.00    +0.000 A 
ATOM     20  C   UNL     1      -3.017  11.421  18.383  0.00  0.00    +0.000 A 
ATOM     21  C   UNL     1      -2.035  10.793  17.618  0.00  0.00    +0.000 A 
ATOM     22  C   UNL     1      -2.311  10.460  16.284  0.00  0.00    +0.000 A 
ENDBRANCH   1  21
BRANCH   3  23
ATOM     23  C   UNL     1       1.709   8.471  19.004  0.00  0.00    +0.000 A 
ATOM     24  C   UNL     1       1.496   7.994  20.310  0.00  0.00    +0.000 A 
ATOM     25  C   UNL     1       1.897   6.717  20.696  0.00  0.00    +0.000 A 
ATOM     26  C   UNL     1       2.499   5.880  19.759  0.00  0.00    +0.000 A 
ATOM     27  C   UNL     1       2.773   6.336  18.470  0.00  0.00    +0.000 A 
ATOM     28  C   UNL     1       2.375   7.627  18.097  0.00  0.00    +0.000 A 
BRANCH  26  29
ATOM     29  S   UNL     1       2.858   4.212  20.208  0.00  0.00    +0.000 S 
ATOM     30  O   UNL     1       4.157   3.842  19.721  0.00  0.00    +0.000 OA
ATOM     31  O   UNL     1       2.443   3.983  21.574  0.00  0.00    +0.000 OA
BRANCH  29  32
ATOM     32  N   UNL     1       1.743   3.387  19.248  0.00  0.00    +0.000 NA
ATOM     33  H   UNL     1       1.186   2.748  19.814  0.00  0.00    +0.000 HD
ATOM     34  H   UNL     1       1.202   4.035  18.677  0.00  0.00    +0.000 HD
ENDBRANCH  29  32
ENDBRANCH  26  29
ENDBRANCH   3  23
TORSDOF 5
ENDMDL
MODEL 2
REMARK VINA RESULT:      -8.5      1.070      1.528
REMARK  Name = 
REMARK  6 active torsions:
REMARK  status: ('A' for Active; 'I' for Inactive)
REMARK    1  A    between atoms: C_1  and  C_2
REMARK    2  A    between atoms: C_6  and  C_7
REMARK    3  A    between atoms: N_9  and  C_10
REMARK    4  A    between atoms: C_13  and  S_14
REMARK    5  A    between atoms: S_14  and  N_15
REMARK    6  A    between atoms: C_20  and  C_21
REMARK                            x       y       z     vdW  Elec       q    Type
REMARK                         _______ _______ _______ _____ _____    ______ ____
ROOT
ATOM      1  C   UNL     1      -0.921  10.216  18.297  0.00  0.00    +0.000 C 
ATOM      2  N   UNL     1       0.275  10.098  17.795  0.00  0.00    +0.000 NA
ATOM      3  N   UNL     1       1.135   9.958  18.885  0.00  0.00    +0.000 N 
ATOM      4  C   UNL     1       0.407  10.397  20.110  0.00  0.00    +0.000 C 
ATOM      5  C   UNL     1      -0.977   9.878  19.755  0.00  0.00    +0.000 C 
ENDROOT
BRANCH   4   6
ATOM      6  C   UNL     1       0.552  11.926  20.353  0.00  0.00    +0.000 A 
ATOM      7  C   UNL     1       1.745  12.584  19.980  0.00  0.00    +0.000 A 
ATOM      8  C   UNL     1       2.108  13.802  20.549  0.00  0.00    +0.000 A 
ATOM      9  C   UNL     1       1.347  14.323  21.589  0.00  0.00    +0.000 A 
ATOM     10  C   UNL     1       0.131  13.726  21.949  0.00  0.00    +0.000 A 
ATOM     11  C   UNL     1      -0.612  14.218  23.038  0.00  0.00    +0.000 A 
ATOM     12  C   UNL     1      -1.896  13.750  23.304  0.00  0.00    +0.000 A 
ATOM     13  C   UNL     1      -2.482  12.855  22.430  0.00  0.00    +0.000 A 
ATOM     14  C   UNL     1      -1.715  12.293  21.412  0.00  0.00    +0.000 A 
ATOM     15  C   UNL     1      -0.353  12.619  21.217  0.00  0.00    +0.000 A 
ENDBRANCH   4   6
BRANCH   1  21
ATOM     16  C   UNL     1      -3.688  10.073  14.161  0.00  0.00    +0.000 C 
ATOM     17  C   UNL     1      -3.476  10.596  15.548  0.00  0.00    +0.000 A 
ATOM     18  C   UNL     1      -4.525  11.166  16.271  0.00  0.00    +0.000 A 
ATOM     19  C   UNL     1      -4.353  11.529  17.606  0.00  0.00    +0.000 A 
ATOM     20  C   UNL     1      -3.138  11.293  18.243  0.00  0.00    +0.000 A 
ATOM     21  C   UNL     1      -2.089  10.702  17.540  0.00  0.00    +0.000 A 
ATOM     22  C   UNL     1      -2.258  10.391  16.184  0.00  0.00    +0.000 A 
ENDBRANCH   1  21
BRANCH   3  23
ATOM     23  C   UNL     1       1.825   8.722  18.986  0.00  0.00    +0.000 A 
ATOM     24  C   UNL     1       1.729   7.927  20.143  0.00  0.00    +0.000 A 
ATOM     25  C   UNL     1       2.348   6.681  20.226  0.00  0.00    +0.000 A 
ATOM     26  C   UNL     1       3.055   6.197  19.128  0.00  0.00    +0.000 A 
ATOM     27  C   UNL     1       3.215   6.979  17.984  0.00  0.00    +0.000 A 
ATOM     28  C   UNL     1       2.598   8.236  17.917  0.00  0.00    +0.000 A 
BRANCH  26  29
ATOM     29  S   UNL     1       3.698   4.555  19.180  0.00  0.00    +0.000 S 
ATOM     30  O   UNL     1       5.117   4.591  19.397  0.00  0.00    +0.000 OA
ATOM     31  O   UNL     1       2.812   3.718  19.957  0.00  0.00    +0.000 OA
BRANCH  29  32
ATOM     32  N   UNL     1       3.479   4.086  17.575  0.00  0.00    +0.000 NA
ATOM     33  H   UNL     1       4.361   3.782  17.167  0.00  0.00    +0.000 HD
ATOM     34  H   UNL     1       2.715   3.415  17.492  0.00  0.00    +0.000 HD
ENDBRANCH  29  32
ENDBRANCH  26  29
ENDBRANCH   3  23
TORSDOF 5
ENDMDL
MODEL 3
REMARK VINA RESULT:      -8.4      4.764      6.873
REMARK  Name = 
REMARK  6 active torsions:
REMARK  status: ('A' for Active; 'I' for Inactive)
REMARK    1  A    between atoms: C_1  and  C_2
REMARK    2  A    between atoms: C_6  and  C_7
REMARK    3  A    between atoms: N_9  and  C_10
REMARK    4  A    between atoms: C_13  and  S_14
REMARK    5  A    between atoms: S_14  and  N_15
REMARK    6  A    between atoms: C_20  and  C_21
REMARK                            x       y       z     vdW  Elec       q    Type
REMARK                         _______ _______ _______ _____ _____    ______ ____
ROOT
ATOM      1  C   UNL     1       0.452  10.378  19.625  0.00  0.00    +0.000 C 
ATOM      2  N   UNL     1       0.418  10.986  20.776  0.00  0.00    +0.000 NA
ATOM      3  N   UNL     1      -0.320  12.152  20.571  0.00  0.00    +0.000 N 
ATOM      4  C   UNL     1      -0.398  12.401  19.104  0.00  0.00    +0.000 C 
ATOM      5  C   UNL     1      -0.507  10.960  18.631  0.00  0.00    +0.000 C 
ENDROOT
BRANCH   4   6
ATOM      6  C   UNL     1       0.815  13.228  18.590  0.00  0.00    +0.000 A 
ATOM      7  C   UNL     1       2.005  12.565  18.219  0.00  0.00    +0.000 A 
ATOM      8  C   UNL     1       3.225  13.236  18.180  0.00  0.00    +0.000 A 
ATOM      9  C   UNL     1       3.296  14.549  18.631  0.00  0.00    +0.000 A 
ATOM     10  C   UNL     1       2.129  15.253  18.957  0.00  0.00    +0.000 A 
ATOM     11  C   UNL     1       2.203  16.562  19.468  0.00  0.00    +0.000 A 
ATOM     12  C   UNL     1       1.058  17.335  19.636  0.00  0.00    +0.000 A 
ATOM     13  C   UNL     1      -0.159  16.840  19.210  0.00  0.00    +0.000 A 
ATOM     14  C   UNL     1      -0.249  15.512  18.799  0.00  0.00    +0.000 A 
ATOM     15  C   UNL     1       0.867  14.645  18.776  0.00  0.00    +0.000 A 
ENDBRANCH   4   6
BRANCH   1  21
ATOM     16  C   UNL     1       2.143   5.791  20.561  0.00  0.00    +0.000 C 
ATOM     17  C   UNL     1       2.174   7.023  19.711  0.00  0.00    +0.000 A 
ATOM     18  C   UNL     1       2.718   6.999  18.426  0.00  0.00    +0.000 A 
ATOM     19  C   UNL     1       2.624   8.113  17.593  0.00  0.00    +0.000 A 
ATOM     20  C   UNL     1       1.952   9.253  18.025  0.00  0.00    +0.000 A 
ATOM     21  C   UNL     1       1.382   9.283  19.296  0.00  0.00    +0.000 A 
ATOM     22  C   UNL     1       1.530   8.176  20.143  0.00  0.00    +0.000 A 
ENDBRANCH   1  21
BRANCH   3  23
ATOM     23  C   UNL     1      -1.544  12.254  21.282  0.00  0.00    +0.000 A 
ATOM     24  C   UNL     1      -1.632  11.889  22.638  0.00  0.00    +0.000 A 
ATOM     25  C   UNL     1      -2.812  12.049  23.362  0.00  0.00    +0.000 A 
ATOM     26  C   UNL     1      -3.923  12.610  22.738  0.00  0.00    +0.000 A 
ATOM     27  C   UNL     1      -3.889  12.936  21.382  0.00  0.00    +0.000 A 
ATOM     28  C   UNL     1      -2.701  12.759  20.661  0.00  0.00    +0.000 A 
BRANCH  26  29
ATOM     29  S   UNL     1      -5.360  12.959  23.701  0.00  0.00    +0.000 S 
ATOM     30  O   UNL     1      -5.381  14.347  24.067  0.00  0.00    +0.000 OA
ATOM     31  O   UNL     1      -6.501  12.289  23.118  0.00  0.00    +0.000 OA
BRANCH  29  32
ATOM     32  N   UNL     1      -5.002  12.106  25.111  0.00  0.00    +0.000 NA
ATOM     33  H   UNL     1      -5.108  11.104  24.960  0.00  0.00    +0.000 HD
ATOM     34  H   UNL     1      -4.100  12.389  25.490  0.00  0.00    +0.000 HD
ENDBRANCH  29  32
ENDBRANCH  26  29
ENDBRANCH   3  23
TORSDOF 5
ENDMDL
MODEL 4
REMARK VINA RESULT:      -8.4      0.835      1.491
REMARK  Name = 
REMARK  6 active torsions:
REMARK  status: ('A' for Active; 'I' for Inactive)
REMARK    1  A    between atoms: C_1  and  C_2
REMARK    2  A    between atoms: C_6  and  C_7
REMARK    3  A    between atoms: N_9  and  C_10
REMARK    4  A    between atoms: C_13  and  S_14
REMARK    5  A    between atoms: S_14  and  N_15
REMARK    6  A    between atoms: C_20  and  C_21
REMARK                            x       y       z     vdW  Elec       q    Type
REMARK                         _______ _______ _______ _____ _____    ______ ____
ROOT
ATOM      1  C   UNL     1      -0.705   9.905  18.273  0.00  0.00    +0.000 C 
ATOM      2  N   UNL     1       0.308   9.563  17.529  0.00  0.00    +0.000 NA
ATOM      3  N   UNL     1       1.432   9.647  18.352  0.00  0.00    +0.000 N 
ATOM      4  C   UNL     1       1.069  10.450  19.554  0.00  0.00    +0.000 C 
ATOM      5  C   UNL     1      -0.363   9.968  19.729  0.00  0.00    +0.000 C 
ENDROOT
BRANCH   4   6
ATOM      6  C   UNL     1       1.282  11.973  19.320  0.00  0.00    +0.000 A 
ATOM      7  C   UNL     1       2.233  12.408  18.372  0.00  0.00    +0.000 A 
ATOM      8  C   UNL     1       2.776  13.690  18.427  0.00  0.00    +0.000 A 
ATOM      9  C   UNL     1       2.470  14.514  19.502  0.00  0.00    +0.000 A 
ATOM     10  C   UNL     1       1.492  14.137  20.433  0.00  0.00    +0.000 A 
ATOM     11  C   UNL     1       1.222  14.944  21.553  0.00  0.00    +0.000 A 
ATOM     12  C   UNL     1       0.144  14.674  22.391  0.00  0.00    +0.000 A 
ATOM     13  C   UNL     1      -0.726  13.651  22.065  0.00  0.00    +0.000 A 
ATOM     14  C   UNL     1      -0.405  12.792  21.017  0.00  0.00    +0.000 A 
ATOM     15  C   UNL     1       0.773  12.934  20.249  0.00  0.00    +0.000 A 
ENDBRANCH   4   6
BRANCH   1  21
ATOM     16  C   UNL     1      -5.005  12.348  18.839  0.00  0.00    +0.000 C 
ATOM     17  C   UNL     1      -4.110  11.502  17.988  0.00  0.00    +0.000 A 
ATOM     18  C   UNL     1      -4.305  11.409  16.608  0.00  0.00    +0.000 A 
ATOM     19  C   UNL     1      -3.392  10.727  15.806  0.00  0.00    +0.000 A 
ATOM     20  C   UNL     1      -2.252  10.160  16.371  0.00  0.00    +0.000 A 
ATOM     21  C   UNL     1      -2.032  10.266  17.744  0.00  0.00    +0.000 A 
ATOM     22  C   UNL     1      -2.985  10.908  18.546  0.00  0.00    +0.000 A 
ENDBRANCH   1  21
BRANCH   3  23
ATOM     23  C   UNL     1       2.117   8.431  18.606  0.00  0.00    +0.000 A 
ATOM     24  C   UNL     1       1.905   7.709  19.795  0.00  0.00    +0.000 A 
ATOM     25  C   UNL     1       2.521   6.480  20.024  0.00  0.00    +0.000 A 
ATOM     26  C   UNL     1       3.345   5.938  19.040  0.00  0.00    +0.000 A 
ATOM     27  C   UNL     1       3.621   6.648  17.872  0.00  0.00    +0.000 A 
ATOM     28  C   UNL     1       3.004   7.889  17.658  0.00  0.00    +0.000 A 
BRANCH  26  29
ATOM     29  S   UNL     1       3.992   4.312  19.267  0.00  0.00    +0.000 S 
ATOM     30  O   UNL     1       5.425   4.361  19.342  0.00  0.00    +0.000 OA
ATOM     31  O   UNL     1       3.184   3.606  20.236  0.00  0.00    +0.000 OA
BRANCH  29  32
ATOM     32  N   UNL     1       3.622   3.621  17.774  0.00  0.00    +0.000 NA
ATOM     33  H   UNL     1       4.222   4.002  17.044  0.00  0.00    +0.000 HD
ATOM     34  H   UNL     1       3.614   2.604  17.834  0.00  0.00    +0.000 HD
ENDBRANCH  29  32
ENDBRANCH  26  29
ENDBRANCH   3  23
TORSDOF 5
ENDMDL
MODEL 5
REMARK VINA RESULT:      -8.1      4.686      6.891
REMARK  Name = 
REMARK  6 active torsions:
REMARK  status: ('A' for Active; 'I' for Inactive)
REMARK    1  A    between atoms: C_1  and  C_2
REMARK    2  A    between atoms: C_6  and  C_7
REMARK    3  A    between atoms: N_9  and  C_10
REMARK    4  A    between atoms: C_13  and  S_14
REMARK    5  A    between atoms: S_14  and  N_15
REMARK    6  A    between atoms: C_20  and  C_21
REMARK                            x       y       z     vdW  Elec       q    Type
REMARK                         _______ _______ _______ _____ _____    ______ ____
ROOT
ATOM      1  C   UNL     1       0.514  10.474  19.757  0.00  0.00    +0.000 C 
ATOM      2  N   UNL     1       0.558  11.118  20.888  0.00  0.00    +0.000 NA
ATOM      3  N   UNL     1      -0.145  12.305  20.680  0.00  0.00    +0.000 N 
ATOM      4  C   UNL     1      -0.286  12.510  19.210  0.00  0.00    +0.000 C 
ATOM      5  C   UNL     1      -0.470  11.060  18.792  0.00  0.00    +0.000 C 
ENDROOT
BRANCH   4   6
ATOM      6  C   UNL     1       0.930  13.274  18.612  0.00  0.00    +0.000 A 
ATOM      7  C   UNL     1       2.073  12.554  18.200  0.00  0.00    +0.000 A 
ATOM      8  C   UNL     1       3.314  13.174  18.081  0.00  0.00    +0.000 A 
ATOM      9  C   UNL     1       3.459  14.494  18.490  0.00  0.00    +0.000 A 
ATOM     10  C   UNL     1       2.339  15.254  18.854  0.00  0.00    +0.000 A 
ATOM     11  C   UNL     1       2.490  16.571  19.323  0.00  0.00    +0.000 A 
ATOM     12  C   UNL     1       1.386  17.395  19.527  0.00  0.00    +0.000 A 
ATOM     13  C   UNL     1       0.130  16.937  19.177  0.00  0.00    +0.000 A 
ATOM     14  C   UNL     1      -0.032  15.603  18.809  0.00  0.00    +0.000 A 
ATOM     15  C   UNL     1       1.046  14.692  18.755  0.00  0.00    +0.000 A 
ENDBRANCH   4   6
BRANCH   1  21
ATOM     16  C   UNL     1       1.951   5.792  20.650  0.00  0.00    +0.000 C 
ATOM     17  C   UNL     1       2.053   7.031  19.814  0.00  0.00    +0.000 A 
ATOM     18  C   UNL     1       2.604   6.992  18.532  0.00  0.00    +0.000 A 
ATOM     19  C   UNL     1       2.576   8.119  17.712  0.00  0.00    +0.000 A 
ATOM     20  C   UNL     1       1.962   9.288  18.153  0.00  0.00    +0.000 A 
ATOM     21  C   UNL     1       1.386   9.334  19.422  0.00  0.00    +0.000 A 
ATOM     22  C   UNL     1       1.469   8.211  20.256  0.00  0.00    +0.000 A 
ENDBRANCH   1  21
BRANCH   3  23
ATOM     23  C   UNL     1      -1.329  12.476  21.444  0.00  0.00    +0.000 A 
ATOM     24  C   UNL     1      -2.404  13.245  20.960  0.00  0.00    +0.000 A 
ATOM     25  C   UNL     1      -3.596  13.363  21.672  0.00  0.00    +0.000 A 
ATOM     26  C   UNL     1      -3.740  12.681  22.877  0.00  0.00    +0.000 A 
ATOM     27  C   UNL     1      -2.679  11.952  23.413  0.00  0.00    +0.000 A 
ATOM     28  C   UNL     1      -1.480  11.850  22.694  0.00  0.00    +0.000 A 
BRANCH  26  29
ATOM     29  S   UNL     1      -5.305  12.704  23.692  0.00  0.00    +0.000 S 
ATOM     30  O   UNL     1      -6.352  12.430  22.749  0.00  0.00    +0.000 OA
ATOM     31  O   UNL     1      -5.196  12.014  24.958  0.00  0.00    +0.000 OA
BRANCH  29  32
ATOM     32  N   UNL     1      -5.431  14.341  24.074  0.00  0.00    +0.000 NA
ATOM     33  H   UNL     1      -6.216  14.503  24.703  0.00  0.00    +0.000 HD
ATOM     34  H   UNL     1      -4.538  14.710  24.399  0.00  0.00    +0.000 HD
ENDBRANCH  29  32
ENDBRANCH  26  29
ENDBRANCH   3  23
TORSDOF 5
ENDMDL
MODEL 6
REMARK VINA RESULT:      -8.1      4.369      8.967
REMARK  Name = 
REMARK  6 active torsions:
REMARK  status: ('A' for Active; 'I' for Inactive)
REMARK    1  A    between atoms: C_1  and  C_2
REMARK    2  A    between atoms: C_6  and  C_7
REMARK    3  A    between atoms: N_9  and  C_10
REMARK    4  A    between atoms: C_13  and  S_14
REMARK    5  A    between atoms: S_14  and  N_15
REMARK    6  A    between atoms: C_20  and  C_21
REMARK                            x       y       z     vdW  Elec       q    Type
REMARK                         _______ _______ _______ _____ _____    ______ ____
ROOT
ATOM      1  C   UNL     1       2.363   5.477  19.379  0.00  0.00    +0.000 C 
ATOM      2  N   UNL     1       2.544   6.587  20.035  0.00  0.00    +0.000 NA
ATOM      3  N   UNL     1       2.759   7.571  19.069  0.00  0.00    +0.000 N 
ATOM      4  C   UNL     1       3.087   6.895  17.782  0.00  0.00    +0.000 C 
ATOM      5  C   UNL     1       2.163   5.694  17.911  0.00  0.00    +0.000 C 
ENDROOT
BRANCH   4   6
ATOM      6  C   UNL     1       4.610   6.609  17.649  0.00  0.00    +0.000 A 
ATOM      7  C   UNL     1       5.543   7.569  18.097  0.00  0.00    +0.000 A 
ATOM      8  C   UNL     1       6.853   7.581  17.623  0.00  0.00    +0.000 A 
ATOM      9  C   UNL     1       7.217   6.711  16.602  0.00  0.00    +0.000 A 
ATOM     10  C   UNL     1       6.335   5.712  16.170  0.00  0.00    +0.000 A 
ATOM     11  C   UNL     1       6.679   4.868  15.099  0.00  0.00    +0.000 A 
ATOM     12  C   UNL     1       5.895   3.767  14.768  0.00  0.00    +0.000 A 
ATOM     13  C   UNL     1       4.810   3.449  15.562  0.00  0.00    +0.000 A 
ATOM     14  C   UNL     1       4.410   4.336  16.558  0.00  0.00    +0.000 A 
ATOM     15  C   UNL     1       5.086   5.551  16.812  0.00  0.00    +0.000 A 
ENDBRANCH   4   6
BRANCH   1  21
ATOM     16  C   UNL     1       5.058   1.515  20.727  0.00  0.00    +0.000 C 
ATOM     17  C   UNL     1       3.740   2.225  20.704  0.00  0.00    +0.000 A 
ATOM     18  C   UNL     1       2.714   1.868  21.580  0.00  0.00    +0.000 A 
ATOM     19  C   UNL     1       1.540   2.618  21.643  0.00  0.00    +0.000 A 
ATOM     20  C   UNL     1       1.395   3.756  20.854  0.00  0.00    +0.000 A 
ATOM     21  C   UNL     1       2.422   4.138  19.992  0.00  0.00    +0.000 A 
ATOM     22  C   UNL     1       3.574   3.345  19.900  0.00  0.00    +0.000 A 
ENDBRANCH   1  21
BRANCH   3  23
ATOM     23  C   UNL     1       1.787   8.602  18.995  0.00  0.00    +0.000 A 
ATOM     24  C   UNL     1       1.483   9.230  17.773  0.00  0.00    +0.000 A 
ATOM     25  C   UNL     1       0.483  10.196  17.677  0.00  0.00    +0.000 A 
ATOM     26  C   UNL     1      -0.254  10.528  18.811  0.00  0.00    +0.000 A 
ATOM     27  C   UNL     1       0.054   9.966  20.050  0.00  0.00    +0.000 A 
ATOM     28  C   UNL     1       1.070   9.005  20.136  0.00  0.00    +0.000 A 
BRANCH  26  29
ATOM     29  S   UNL     1      -1.622  11.631  18.650  0.00  0.00    +0.000 S 
ATOM     30  O   UNL     1      -2.766  10.922  18.147  0.00  0.00    +0.000 OA
ATOM     31  O   UNL     1      -1.686  12.488  19.812  0.00  0.00    +0.000 OA
BRANCH  29  32
ATOM     32  N   UNL     1      -1.083  12.611  17.388  0.00  0.00    +0.000 NA
ATOM     33  H   UNL     1      -1.779  13.320  17.163  0.00  0.00    +0.000 HD
ATOM     34  H   UNL     1      -0.150  12.972  17.580  0.00  0.00    +0.000 HD
ENDBRANCH  29  32
ENDBRANCH  26  29
ENDBRANCH   3  23
TORSDOF 5
ENDMDL
MODEL 7
REMARK VINA RESULT:      -8.1      4.804      8.085
REMARK  Name = 
REMARK  6 active torsions:
REMARK  status: ('A' for Active; 'I' for Inactive)
REMARK    1  A    between atoms: C_1  and  C_2
REMARK    2  A    between atoms: C_6  and  C_7
REMARK    3  A    between atoms: N_9  and  C_10
REMARK    4  A    between atoms: C_13  and  S_14
REMARK    5  A    between atoms: S_14  and  N_15
REMARK    6  A    between atoms: C_20  and  C_21
REMARK                            x       y       z     vdW  Elec       q    Type
REMARK                         _______ _______ _______ _____ _____    ______ ____
ROOT
ATOM      1  C   UNL     1       0.575  10.505  19.396  0.00  0.00    +0.000 C 
ATOM      2  N   UNL     1       0.903  11.386  18.496  0.00  0.00    +0.000 NA
ATOM      3  N   UNL     1      -0.051  12.401  18.588  0.00  0.00    +0.000 N 
ATOM      4  C   UNL     1      -1.217  11.873  19.353  0.00  0.00    +0.000 C 
ATOM      5  C   UNL     1      -0.465  11.006  20.351  0.00  0.00    +0.000 C 
ENDROOT
BRANCH   4   6
ATOM      6  C   UNL     1      -2.245  11.163  18.427  0.00  0.00    +0.000 A 
ATOM      7  C   UNL     1      -1.786  10.305  17.403  0.00  0.00    +0.000 A 
ATOM      8  C   UNL     1      -2.584  10.003  16.301  0.00  0.00    +0.000 A 
ATOM      9  C   UNL     1      -3.803  10.650  16.144  0.00  0.00    +0.000 A 
ATOM     10  C   UNL     1      -4.313  11.466  17.164  0.00  0.00    +0.000 A 
ATOM     11  C   UNL     1      -5.519  12.167  16.984  0.00  0.00    +0.000 A 
ATOM     12  C   UNL     1      -6.125  12.843  18.039  0.00  0.00    +0.000 A 
ATOM     13  C   UNL     1      -5.576  12.747  19.304  0.00  0.00    +0.000 A 
ATOM     14  C   UNL     1      -4.333  12.140  19.465  0.00  0.00    +0.000 A 
ATOM     15  C   UNL     1      -3.608  11.591  18.383  0.00  0.00    +0.000 A 
ENDBRANCH   4   6
BRANCH   1  21
ATOM     16  C   UNL     1       3.626   7.051  17.515  0.00  0.00    +0.000 C 
ATOM     17  C   UNL     1       2.635   7.457  18.561  0.00  0.00    +0.000 A 
ATOM     18  C   UNL     1       2.529   6.758  19.765  0.00  0.00    +0.000 A 
ATOM     19  C   UNL     1       1.699   7.220  20.785  0.00  0.00    +0.000 A 
ATOM     20  C   UNL     1       0.992   8.409  20.625  0.00  0.00    +0.000 A 
ATOM     21  C   UNL     1       1.106   9.131  19.438  0.00  0.00    +0.000 A 
ATOM     22  C   UNL     1       1.903   8.627  18.400  0.00  0.00    +0.000 A 
ENDBRANCH   1  21
BRANCH   3  23
ATOM     23  C   UNL     1       0.424  13.676  18.989  0.00  0.00    +0.000 A 
ATOM     24  C   UNL     1       1.771  14.043  18.805  0.00  0.00    +0.000 A 
ATOM     25  C   UNL     1       2.232  15.316  19.132  0.00  0.00    +0.000 A 
ATOM     26  C   UNL     1       1.335  16.260  19.626  0.00  0.00    +0.000 A 
ATOM     27  C   UNL     1       0.005  15.917  19.870  0.00  0.00    +0.000 A 
ATOM     28  C   UNL     1      -0.445  14.630  19.549  0.00  0.00    +0.000 A 
BRANCH  26  29
ATOM     29  S   UNL     1       1.889  17.915  19.885  0.00  0.00    +0.000 S 
ATOM     30  O   UNL     1       1.107  18.538  20.915  0.00  0.00    +0.000 OA
ATOM     31  O   UNL     1       3.335  17.942  19.880  0.00  0.00    +0.000 OA
BRANCH  29  32
ATOM     32  N   UNL     1       1.414  18.631  18.434  0.00  0.00    +0.000 NA
ATOM     33  H   UNL     1       1.129  19.597  18.588  0.00  0.00    +0.000 HD
ATOM     34  H   UNL     1       2.124  18.503  17.714  0.00  0.00    +0.000 HD
ENDBRANCH  29  32
ENDBRANCH  26  29
ENDBRANCH   3  23
TORSDOF 5
ENDMDL
MODEL 8
REMARK VINA RESULT:      -8.0      4.387      8.976
REMARK  Name = 
REMARK  6 active torsions:
REMARK  status: ('A' for Active; 'I' for Inactive)
REMARK    1  A    between atoms: C_1  and  C_2
REMARK    2  A    between atoms: C_6  and  C_7
REMARK    3  A    between atoms: N_9  and  C_10
REMARK    4  A    between atoms: C_13  and  S_14
REMARK    5  A    between atoms: S_14  and  N_15
REMARK    6  A    between atoms: C_20  and  C_21
REMARK                            x       y       z     vdW  Elec       q    Type
REMARK                         _______ _______ _______ _____ _____    ______ ____
ROOT
ATOM      1  C   UNL     1       2.421   5.526  19.321  0.00  0.00    +0.000 C 
ATOM      2  N   UNL     1       2.622   6.638  19.968  0.00  0.00    +0.000 NA
ATOM      3  N   UNL     1       2.879   7.605  18.995  0.00  0.00    +0.000 N 
ATOM      4  C   UNL     1       3.206   6.906  17.720  0.00  0.00    +0.000 C 
ATOM      5  C   UNL     1       2.247   5.732  17.848  0.00  0.00    +0.000 C 
ENDROOT
BRANCH   4   6
ATOM      6  C   UNL     1       4.722   6.576  17.612  0.00  0.00    +0.000 A 
ATOM      7  C   UNL     1       5.674   7.497  18.103  0.00  0.00    +0.000 A 
ATOM      8  C   UNL     1       6.994   7.480  17.657  0.00  0.00    +0.000 A 
ATOM      9  C   UNL     1       7.354   6.624  16.624  0.00  0.00    +0.000 A 
ATOM     10  C   UNL     1       6.451   5.662  16.150  0.00  0.00    +0.000 A 
ATOM     11  C   UNL     1       6.794   4.833  15.066  0.00  0.00    +0.000 A 
ATOM     12  C   UNL     1       5.984   3.765  14.692  0.00  0.00    +0.000 A 
ATOM     13  C   UNL     1       4.873   3.461  15.455  0.00  0.00    +0.000 A 
ATOM     14  C   UNL     1       4.478   4.337  16.464  0.00  0.00    +0.000 A 
ATOM     15  C   UNL     1       5.184   5.525  16.760  0.00  0.00    +0.000 A 
ENDBRANCH   4   6
BRANCH   1  21
ATOM     16  C   UNL     1       4.985   1.505  20.749  0.00  0.00    +0.000 C 
ATOM     17  C   UNL     1       3.688   2.251  20.699  0.00  0.00    +0.000 A 
ATOM     18  C   UNL     1       2.640   1.932  21.565  0.00  0.00    +0.000 A 
ATOM     19  C   UNL     1       1.487   2.715  21.603  0.00  0.00    +0.000 A 
ATOM     20  C   UNL     1       1.385   3.848  20.800  0.00  0.00    +0.000 A 
ATOM     21  C   UNL     1       2.433   4.192  19.949  0.00  0.00    +0.000 A 
ATOM     22  C   UNL     1       3.564   3.367  19.882  0.00  0.00    +0.000 A 
ENDBRANCH   1  21
BRANCH   3  23
ATOM     23  C   UNL     1       1.937   8.661  18.896  0.00  0.00    +0.000 A 
ATOM     24  C   UNL     1       1.003   8.904  19.921  0.00  0.00    +0.000 A 
ATOM     25  C   UNL     1       0.120   9.980  19.864  0.00  0.00    +0.000 A 
ATOM     26  C   UNL     1       0.179  10.854  18.781  0.00  0.00    +0.000 A 
ATOM     27  C   UNL     1       1.054  10.616  17.722  0.00  0.00    +0.000 A 
ATOM     28  C   UNL     1       1.930   9.523  17.785  0.00  0.00    +0.000 A 
BRANCH  26  29
ATOM     29  S   UNL     1      -0.830  12.302  18.794  0.00  0.00    +0.000 S 
ATOM     30  O   UNL     1      -1.847  12.182  19.799  0.00  0.00    +0.000 OA
ATOM     31  O   UNL     1       0.011  13.472  18.670  0.00  0.00    +0.000 OA
BRANCH  29  32
ATOM     32  N   UNL     1      -1.614  12.145  17.309  0.00  0.00    +0.000 NA
ATOM     33  H   UNL     1      -1.919  11.184  17.165  0.00  0.00    +0.000 HD
ATOM     34  H   UNL     1      -2.346  12.847  17.207  0.00  0.00    +0.000 HD
ENDBRANCH  29  32
ENDBRANCH  26  29
ENDBRANCH   3  23
TORSDOF 5
ENDMDL
MODEL 9
REMARK VINA RESULT:      -8.0      1.214      2.037
REMARK  Name = 
REMARK  6 active torsions:
REMARK  status: ('A' for Active; 'I' for Inactive)
REMARK    1  A    between atoms: C_1  and  C_2
REMARK    2  A    between atoms: C_6  and  C_7
REMARK    3  A    between atoms: N_9  and  C_10
REMARK    4  A    between atoms: C_13  and  S_14
REMARK    5  A    between atoms: S_14  and  N_15
REMARK    6  A    between atoms: C_20  and  C_21
REMARK                            x       y       z     vdW  Elec       q    Type
REMARK                         _______ _______ _______ _____ _____    ______ ____
ROOT
ATOM      1  C   UNL     1      -0.885   9.941  18.276  0.00  0.00    +0.000 C 
ATOM      2  N   UNL     1       0.168   9.764  17.530  0.00  0.00    +0.000 NA
ATOM      3  N   UNL     1       1.258   9.763  18.401  0.00  0.00    +0.000 N 
ATOM      4  C   UNL     1       0.817  10.350  19.698  0.00  0.00    +0.000 C 
ATOM      5  C   UNL     1      -0.595   9.786  19.738  0.00  0.00    +0.000 C 
ENDROOT
BRANCH   4   6
ATOM      6  C   UNL     1       0.965  11.898  19.715  0.00  0.00    +0.000 A 
ATOM      7  C   UNL     1       2.026  12.506  19.009  0.00  0.00    +0.000 A 
ATOM      8  C   UNL     1       2.468  13.787  19.330  0.00  0.00    +0.000 A 
ATOM      9  C   UNL     1       1.940  14.433  20.441  0.00  0.00    +0.000 A 
ATOM     10  C   UNL     1       0.851  13.883  21.133  0.00  0.00    +0.000 A 
ATOM     11  C   UNL     1       0.353  14.506  22.291  0.00  0.00    +0.000 A 
ATOM     12  C   UNL     1      -0.826  14.073  22.891  0.00  0.00    +0.000 A 
ATOM     13  C   UNL     1      -1.563  13.073  22.286  0.00  0.00    +0.000 A 
ATOM     14  C   UNL     1      -1.022  12.390  21.199  0.00  0.00    +0.000 A 
ATOM     15  C   UNL     1       0.252  12.692  20.667  0.00  0.00    +0.000 A 
ENDBRANCH   4   6
BRANCH   1  21
ATOM     16  C   UNL     1      -5.145  12.444  18.883  0.00  0.00    +0.000 C 
ATOM     17  C   UNL     1      -4.268  11.590  18.021  0.00  0.00    +0.000 A 
ATOM     18  C   UNL     1      -4.471  11.510  16.641  0.00  0.00    +0.000 A 
ATOM     19  C   UNL     1      -3.572  10.821  15.829  0.00  0.00    +0.000 A 
ATOM     20  C   UNL     1      -2.438  10.233  16.385  0.00  0.00    +0.000 A 
ATOM     21  C   UNL     1      -2.209  10.325  17.757  0.00  0.00    +0.000 A 
ATOM     22  C   UNL     1      -3.149  10.976  18.568  0.00  0.00    +0.000 A 
ENDBRANCH   1  21
BRANCH   3  23
ATOM     23  C   UNL     1       1.991   8.552  18.489  0.00  0.00    +0.000 A 
ATOM     24  C   UNL     1       2.869   8.155  17.463  0.00  0.00    +0.000 A 
ATOM     25  C   UNL     1       3.645   7.002  17.570  0.00  0.00    +0.000 A 
ATOM     26  C   UNL     1       3.571   6.238  18.732  0.00  0.00    +0.000 A 
ATOM     27  C   UNL     1       2.675   6.570  19.747  0.00  0.00    +0.000 A 
ATOM     28  C   UNL     1       1.891   7.726  19.623  0.00  0.00    +0.000 A 
BRANCH  26  29
ATOM     29  S   UNL     1       4.671   4.872  18.929  0.00  0.00    +0.000 S 
ATOM     30  O   UNL     1       4.826   4.183  17.678  0.00  0.00    +0.000 OA
ATOM     31  O   UNL     1       5.797   5.277  19.740  0.00  0.00    +0.000 OA
BRANCH  29  32
ATOM     32  N   UNL     1       3.741   3.864  19.910  0.00  0.00    +0.000 NA
ATOM     33  H   UNL     1       3.600   4.287  20.826  0.00  0.00    +0.000 HD
ATOM     34  H   UNL     1       2.886   3.579  19.433  0.00  0.00    +0.000 HD
ENDBRANCH  29  32
ENDBRANCH  26  29
ENDBRANCH   3  23
TORSDOF 5
ENDMDL
