MODEL 1
REMARK VINA RESULT:      -8.1      0.000      0.000
REMARK  Name = 
REMARK  10 active torsions:
REMARK  status: ('A' for Active; 'I' for Inactive)
REMARK    1  A    between atoms: C_1  and  C_2
REMARK    2  A    between atoms: C_4  and  C_5
REMARK    3  A    between atoms: C_6  and  S_7
REMARK    4  A    between atoms: S_7  and  N_10
REMARK    5  A    between atoms: N_10  and  C_11
REMARK    6  A    between atoms: N_10  and  C_12
REMARK    7  A    between atoms: C_12  and  C_13
REMARK    8  A    between atoms: N_15  and  C_16
REMARK    9  A    between atoms: C_16  and  C_17
REMARK   10  A    between atoms: C_23  and  C_24
REMARK                            x       y       z     vdW  Elec       q    Type
REMARK                         _______ _______ _______ _____ _____    ______ ____
ROOT
ATOM      1  N   UNL     1       3.435   3.129  18.725  0.00  0.00    +0.000 NA
ATOM      2  C   UNL     1       3.834   1.968  17.895  0.00  0.00    +0.000 C 
ENDROOT
BRANCH   1   3
ATOM      3  S   UNL     1       2.698   4.404  17.831  0.00  0.00    +0.000 S 
ATOM      4  O   UNL     1       1.498   3.854  17.251  0.00  0.00    +0.000 OA
ATOM      5  O   UNL     1       3.717   4.975  16.967  0.00  0.00    +0.000 OA
BRANCH   3  11
ATOM      6  C   UNL     1       0.925   8.826  21.712  0.00  0.00    +0.000 C 
ATOM      7  C   UNL     1       1.437   7.748  20.803  0.00  0.00    +0.000 A 
ATOM      8  C   UNL     1       2.142   8.041  19.639  0.00  0.00    +0.000 A 
ATOM      9  C   UNL     1       2.584   7.022  18.769  0.00  0.00    +0.000 A 
ATOM     10  C   UNL     1       3.337   7.461  17.537  0.00  0.00    +0.000 C 
ATOM     11  C   UNL     1       2.306   5.660  19.080  0.00  0.00    +0.000 A 
ATOM     12  C   UNL     1       1.637   5.348  20.289  0.00  0.00    +0.000 A 
ATOM     13  C   UNL     1       1.277   3.983  20.810  0.00  0.00    +0.000 C 
ATOM     14  C   UNL     1       1.194   6.410  21.112  0.00  0.00    +0.000 A 
ENDBRANCH   3  11
ENDBRANCH   1   3
BRANCH   1  15
ATOM     15  C   UNL     1       4.543   3.625  19.603  0.00  0.00    +0.000 C 
BRANCH  15  16
ATOM     16  C   UNL     1       5.583   4.503  18.905  0.00  0.00    +0.000 C 
ATOM     17  O   UNL     1       5.806   5.663  19.260  0.00  0.00    +0.000 OA
ATOM     18  N   UNL     1       6.277   3.918  17.871  0.00  0.00    +0.000 N 
ATOM     19  H   UNL     1       5.963   3.038  17.479  0.00  0.00    +0.000 HD
BRANCH  18  20
ATOM     20  C   UNL     1       7.240   4.672  17.088  0.00  0.00    +0.000 C 
BRANCH  20  21
ATOM     21  C   UNL     1       7.002   4.549  15.601  0.00  0.00    +0.000 A 
ATOM     22  C   UNL     1       6.069   3.636  15.111  0.00  0.00    +0.000 A 
ATOM     23  C   UNL     1       5.874   3.542  13.736  0.00  0.00    +0.000 A 
ATOM     24  C   UNL     1       6.613   4.356  12.886  0.00  0.00    +0.000 A 
ATOM     25  C   UNL     1       7.527   5.229  13.451  0.00  0.00    +0.000 A 
ATOM     26  N   UNL     1       7.745   5.339  14.782  0.00  0.00    +0.000 NA
ENDBRANCH  20  21
ENDBRANCH  18  20
ENDBRANCH  15  16
ENDBRANCH   1  15
TORSDOF 6
ENDMDL
MODEL 2
REMARK VINA RESULT:      -8.1      2.045      3.466
REMARK  Name = 
REMARK  10 active torsions:
REMARK  status: ('A' for Active; 'I' for Inactive)
REMARK    1  A    between atoms: C_1  and  C_2
REMARK    2  A    between atoms: C_4  and  C_5
REMARK    3  A    between atoms: C_6  and  S_7
REMARK    4  A    between atoms: S_7  and  N_10
REMARK    5  A    between atoms: N_10  and  C_11
REMARK    6  A    between atoms: N_10  and  C_12
REMARK    7  A    between atoms: C_12  and  C_13
REMARK    8  A    between atoms: N_15  and  C_16
REMARK    9  A    between atoms: C_16  and  C_17
REMARK   10  A    between atoms: C_23  and  C_24
REMARK                            x       y       z     vdW  Elec       q    Type
REMARK                         _______ _______ _______ _____ _____    ______ ____
ROOT
ATOM      1  N   UNL     1       6.121   4.984  18.244  0.00  0.00    +0.000 NA
ATOM      2  C   UNL     1       6.782   5.469  19.479  0.00  0.00    +0.000 C 
ENDROOT
BRANCH   1   3
ATOM      3  S   UNL     1       4.738   3.998  18.536  0.00  0.00    +0.000 S 
ATOM      4  O   UNL     1       5.113   3.068  19.573  0.00  0.00    +0.000 OA
ATOM      5  O   UNL     1       4.283   3.497  17.251  0.00  0.00    +0.000 OA
BRANCH   3  11
ATOM      6  C   UNL     1       0.800   8.021  20.997  0.00  0.00    +0.000 C 
ATOM      7  C   UNL     1       1.696   7.007  20.348  0.00  0.00    +0.000 A 
ATOM      8  C   UNL     1       1.800   5.705  20.828  0.00  0.00    +0.000 A 
ATOM      9  C   UNL     1       2.675   4.770  20.236  0.00  0.00    +0.000 A 
ATOM     10  C   UNL     1       2.704   3.389  20.844  0.00  0.00    +0.000 C 
ATOM     11  C   UNL     1       3.475   5.159  19.124  0.00  0.00    +0.000 A 
ATOM     12  C   UNL     1       3.336   6.466  18.594  0.00  0.00    +0.000 A 
ATOM     13  C   UNL     1       4.061   7.057  17.416  0.00  0.00    +0.000 C 
ATOM     14  C   UNL     1       2.462   7.370  19.241  0.00  0.00    +0.000 A 
ENDBRANCH   3  11
ENDBRANCH   1   3
BRANCH   1  15
ATOM     15  C   UNL     1       7.077   4.342  17.286  0.00  0.00    +0.000 C 
BRANCH  15  16
ATOM     16  C   UNL     1       7.060   4.914  15.868  0.00  0.00    +0.000 C 
ATOM     17  O   UNL     1       7.601   5.986  15.587  0.00  0.00    +0.000 OA
ATOM     18  N   UNL     1       6.428   4.152  14.912  0.00  0.00    +0.000 N 
ATOM     19  H   UNL     1       5.842   3.373  15.187  0.00  0.00    +0.000 HD
BRANCH  18  20
ATOM     20  C   UNL     1       6.288   4.623  13.545  0.00  0.00    +0.000 C 
BRANCH  20  21
ATOM     21  C   UNL     1       6.306   3.494  12.540  0.00  0.00    +0.000 A 
ATOM     22  C   UNL     1       7.513   3.041  12.011  0.00  0.00    +0.000 A 
ATOM     23  C   UNL     1       7.497   2.003  11.085  0.00  0.00    +0.000 A 
ATOM     24  C   UNL     1       6.282   1.446  10.707  0.00  0.00    +0.000 A 
ATOM     25  C   UNL     1       5.126   1.958  11.271  0.00  0.00    +0.000 A 
ATOM     26  N   UNL     1       5.107   2.971  12.168  0.00  0.00    +0.000 NA
ENDBRANCH  20  21
ENDBRANCH  18  20
ENDBRANCH  15  16
ENDBRANCH   1  15
TORSDOF 6
ENDMDL
MODEL 3
REMARK VINA RESULT:      -8.0      1.971      3.380
REMARK  Name = 
REMARK  10 active torsions:
REMARK  status: ('A' for Active; 'I' for Inactive)
REMARK    1  A    between atoms: C_1  and  C_2
REMARK    2  A    between atoms: C_4  and  C_5
REMARK    3  A    between atoms: C_6  and  S_7
REMARK    4  A    between atoms: S_7  and  N_10
REMARK    5  A    between atoms: N_10  and  C_11
REMARK    6  A    between atoms: N_10  and  C_12
REMARK    7  A    between atoms: C_12  and  C_13
REMARK    8  A    between atoms: N_15  and  C_16
REMARK    9  A    between atoms: C_16  and  C_17
REMARK   10  A    between atoms: C_23  and  C_24
REMARK                            x       y       z     vdW  Elec       q    Type
REMARK                         _______ _______ _______ _____ _____    ______ ____
ROOT
ATOM      1  N   UNL     1       6.072   4.984  18.247  0.00  0.00    +0.000 NA
ATOM      2  C   UNL     1       6.722   5.492  19.479  0.00  0.00    +0.000 C 
ENDROOT
BRANCH   1   3
ATOM      3  S   UNL     1       4.676   4.018  18.544  0.00  0.00    +0.000 S 
ATOM      4  O   UNL     1       5.041   3.083  19.580  0.00  0.00    +0.000 OA
ATOM      5  O   UNL     1       4.209   3.523  17.261  0.00  0.00    +0.000 OA
BRANCH   3  11
ATOM      6  C   UNL     1       0.806   8.100  21.017  0.00  0.00    +0.000 C 
ATOM      7  C   UNL     1       1.684   7.073  20.365  0.00  0.00    +0.000 A 
ATOM      8  C   UNL     1       1.773   5.770  20.847  0.00  0.00    +0.000 A 
ATOM      9  C   UNL     1       2.632   4.822  20.253  0.00  0.00    +0.000 A 
ATOM     10  C   UNL     1       2.645   3.442  20.863  0.00  0.00    +0.000 C 
ATOM     11  C   UNL     1       3.432   5.198  19.136  0.00  0.00    +0.000 A 
ATOM     12  C   UNL     1       3.308   6.505  18.604  0.00  0.00    +0.000 A 
ATOM     13  C   UNL     1       4.036   7.084  17.421  0.00  0.00    +0.000 C 
ATOM     14  C   UNL     1       2.450   7.423  19.254  0.00  0.00    +0.000 A 
ENDBRANCH   3  11
ENDBRANCH   1   3
BRANCH   1  15
ATOM     15  C   UNL     1       7.034   4.311  17.317  0.00  0.00    +0.000 C 
BRANCH  15  16
ATOM     16  C   UNL     1       7.128   4.927  15.920  0.00  0.00    +0.000 C 
ATOM     17  O   UNL     1       7.520   6.082  15.738  0.00  0.00    +0.000 OA
ATOM     18  N   UNL     1       6.774   4.109  14.871  0.00  0.00    +0.000 N 
ATOM     19  H   UNL     1       6.291   3.237  15.044  0.00  0.00    +0.000 HD
BRANCH  18  20
ATOM     20  C   UNL     1       6.757   4.604  13.505  0.00  0.00    +0.000 C 
BRANCH  20  21
ATOM     21  C   UNL     1       6.073   3.649  12.553  0.00  0.00    +0.000 A 
ATOM     22  C   UNL     1       4.745   3.854  12.183  0.00  0.00    +0.000 A 
ATOM     23  C   UNL     1       4.142   2.956  11.307  0.00  0.00    +0.000 A 
ATOM     24  C   UNL     1       4.873   1.877  10.827  0.00  0.00    +0.000 A 
ATOM     25  C   UNL     1       6.184   1.738  11.251  0.00  0.00    +0.000 A 
ATOM     26  N   UNL     1       6.797   2.589  12.105  0.00  0.00    +0.000 NA
ENDBRANCH  20  21
ENDBRANCH  18  20
ENDBRANCH  15  16
ENDBRANCH   1  15
TORSDOF 6
ENDMDL
MODEL 4
REMARK VINA RESULT:      -8.0      4.616      5.913
REMARK  Name = 
REMARK  10 active torsions:
REMARK  status: ('A' for Active; 'I' for Inactive)
REMARK    1  A    between atoms: C_1  and  C_2
REMARK    2  A    between atoms: C_4  and  C_5
REMARK    3  A    between atoms: C_6  and  S_7
REMARK    4  A    between atoms: S_7  and  N_10
REMARK    5  A    between atoms: N_10  and  C_11
REMARK    6  A    between atoms: N_10  and  C_12
REMARK    7  A    between atoms: C_12  and  C_13
REMARK    8  A    between atoms: N_15  and  C_16
REMARK    9  A    between atoms: C_16  and  C_17
REMARK   10  A    between atoms: C_23  and  C_24
REMARK                            x       y       z     vdW  Elec       q    Type
REMARK                         _______ _______ _______ _____ _____    ______ ____
ROOT
ATOM      1  N   UNL     1       6.591   5.803  17.111  0.00  0.00    +0.000 NA
ATOM      2  C   UNL     1       7.511   4.645  17.014  0.00  0.00    +0.000 C 
ENDROOT
BRANCH   1   3
ATOM      3  S   UNL     1       5.167   5.643  16.154  0.00  0.00    +0.000 S 
ATOM      4  O   UNL     1       5.372   4.490  15.311  0.00  0.00    +0.000 OA
ATOM      5  O   UNL     1       4.901   6.936  15.549  0.00  0.00    +0.000 OA
BRANCH   3  11
ATOM      6  C   UNL     1       1.112   4.514  20.629  0.00  0.00    +0.000 C 
ATOM      7  C   UNL     1       2.038   4.776  19.478  0.00  0.00    +0.000 A 
ATOM      8  C   UNL     1       2.693   3.743  18.813  0.00  0.00    +0.000 A 
ATOM      9  C   UNL     1       3.593   4.002  17.758  0.00  0.00    +0.000 A 
ATOM     10  C   UNL     1       4.245   2.803  17.114  0.00  0.00    +0.000 C 
ATOM     11  C   UNL     1       3.845   5.345  17.360  0.00  0.00    +0.000 A 
ATOM     12  C   UNL     1       3.142   6.400  17.994  0.00  0.00    +0.000 A 
ATOM     13  C   UNL     1       3.243   7.872  17.702  0.00  0.00    +0.000 C 
ATOM     14  C   UNL     1       2.270   6.086  19.062  0.00  0.00    +0.000 A 
ENDBRANCH   3  11
ENDBRANCH   1   3
BRANCH   1  15
ATOM     15  C   UNL     1       7.277   7.114  16.882  0.00  0.00    +0.000 C 
BRANCH  15  16
ATOM     16  C   UNL     1       8.025   7.679  18.091  0.00  0.00    +0.000 C 
ATOM     17  O   UNL     1       8.349   6.973  19.049  0.00  0.00    +0.000 OA
ATOM     18  N   UNL     1       8.339   9.018  18.040  0.00  0.00    +0.000 N 
ATOM     19  H   UNL     1       7.918   9.615  17.340  0.00  0.00    +0.000 HD
BRANCH  18  20
ATOM     20  C   UNL     1       8.987   9.681  19.158  0.00  0.00    +0.000 C 
BRANCH  20  21
ATOM     21  C   UNL     1       9.617  10.998  18.763  0.00  0.00    +0.000 A 
ATOM     22  C   UNL     1       8.964  11.852  17.877  0.00  0.00    +0.000 A 
ATOM     23  C   UNL     1       9.571  13.056  17.529  0.00  0.00    +0.000 A 
ATOM     24  C   UNL     1      10.810  13.375  18.069  0.00  0.00    +0.000 A 
ATOM     25  C   UNL     1      11.397  12.467  18.935  0.00  0.00    +0.000 A 
ATOM     26  N   UNL     1      10.838  11.287  19.287  0.00  0.00    +0.000 NA
ENDBRANCH  20  21
ENDBRANCH  18  20
ENDBRANCH  15  16
ENDBRANCH   1  15
TORSDOF 6
ENDMDL
MODEL 5
REMARK VINA RESULT:      -7.8      4.546      5.721
REMARK  Name = 
REMARK  10 active torsions:
REMARK  status: ('A' for Active; 'I' for Inactive)
REMARK    1  A    between atoms: C_1  and  C_2
REMARK    2  A    between atoms: C_4  and  C_5
REMARK    3  A    between atoms: C_6  and  S_7
REMARK    4  A    between atoms: S_7  and  N_10
REMARK    5  A    between atoms: N_10  and  C_11
REMARK    6  A    between atoms: N_10  and  C_12
REMARK    7  A    between atoms: C_12  and  C_13
REMARK    8  A    between atoms: N_15  and  C_16
REMARK    9  A    between atoms: C_16  and  C_17
REMARK   10  A    between atoms: C_23  and  C_24
REMARK                            x       y       z     vdW  Elec       q    Type
REMARK                         _______ _______ _______ _____ _____    ______ ____
ROOT
ATOM      1  N   UNL     1       6.608   5.720  17.120  0.00  0.00    +0.000 NA
ATOM      2  C   UNL     1       7.505   4.551  16.963  0.00  0.00    +0.000 C 
ENDROOT
BRANCH   1   3
ATOM      3  S   UNL     1       5.092   5.547  16.318  0.00  0.00    +0.000 S 
ATOM      4  O   UNL     1       5.251   4.464  15.378  0.00  0.00    +0.000 OA
ATOM      5  O   UNL     1       4.700   6.861  15.840  0.00  0.00    +0.000 OA
BRANCH   3  11
ATOM      6  C   UNL     1       0.731   4.135  20.409  0.00  0.00    +0.000 C 
ATOM      7  C   UNL     1       1.850   4.494  19.477  0.00  0.00    +0.000 A 
ATOM      8  C   UNL     1       2.123   5.815  19.130  0.00  0.00    +0.000 A 
ATOM      9  C   UNL     1       3.152   6.140  18.221  0.00  0.00    +0.000 A 
ATOM     10  C   UNL     1       3.352   7.605  17.921  0.00  0.00    +0.000 C 
ATOM     11  C   UNL     1       3.932   5.101  17.640  0.00  0.00    +0.000 A 
ATOM     12  C   UNL     1       3.700   3.759  18.027  0.00  0.00    +0.000 A 
ATOM     13  C   UNL     1       4.428   2.530  17.555  0.00  0.00    +0.000 C 
ATOM     14  C   UNL     1       2.639   3.487  18.923  0.00  0.00    +0.000 A 
ENDBRANCH   3  11
ENDBRANCH   1   3
BRANCH   1  15
ATOM     15  C   UNL     1       7.276   7.017  16.783  0.00  0.00    +0.000 C 
BRANCH  15  16
ATOM     16  C   UNL     1       7.994   7.702  17.947  0.00  0.00    +0.000 C 
ATOM     17  O   UNL     1       8.363   7.080  18.946  0.00  0.00    +0.000 OA
ATOM     18  N   UNL     1       8.229   9.050  17.807  0.00  0.00    +0.000 N 
ATOM     19  H   UNL     1       7.770   9.575  17.073  0.00  0.00    +0.000 HD
BRANCH  18  20
ATOM     20  C   UNL     1       8.841   9.822  18.875  0.00  0.00    +0.000 C 
BRANCH  20  21
ATOM     21  C   UNL     1       9.534  11.066  18.366  0.00  0.00    +0.000 A 
ATOM     22  C   UNL     1      10.925  11.132  18.331  0.00  0.00    +0.000 A 
ATOM     23  C   UNL     1      11.534  12.292  17.861  0.00  0.00    +0.000 A 
ATOM     24  C   UNL     1      10.743  13.354  17.442  0.00  0.00    +0.000 A 
ATOM     25  C   UNL     1       9.368  13.213  17.517  0.00  0.00    +0.000 A 
ATOM     26  N   UNL     1       8.746  12.103  17.975  0.00  0.00    +0.000 NA
ENDBRANCH  20  21
ENDBRANCH  18  20
ENDBRANCH  15  16
ENDBRANCH   1  15
TORSDOF 6
ENDMDL
MODEL 6
REMARK VINA RESULT:      -7.6      2.460      7.088
REMARK  Name = 
REMARK  10 active torsions:
REMARK  status: ('A' for Active; 'I' for Inactive)
REMARK    1  A    between atoms: C_1  and  C_2
REMARK    2  A    between atoms: C_4  and  C_5
REMARK    3  A    between atoms: C_6  and  S_7
REMARK    4  A    between atoms: S_7  and  N_10
REMARK    5  A    between atoms: N_10  and  C_11
REMARK    6  A    between atoms: N_10  and  C_12
REMARK    7  A    between atoms: C_12  and  C_13
REMARK    8  A    between atoms: N_15  and  C_16
REMARK    9  A    between atoms: C_16  and  C_17
REMARK   10  A    between atoms: C_23  and  C_24
REMARK                            x       y       z     vdW  Elec       q    Type
REMARK                         _______ _______ _______ _____ _____    ______ ____
ROOT
ATOM      1  N   UNL     1       4.118   5.672  19.329  0.00  0.00    +0.000 NA
ATOM      2  C   UNL     1       3.744   6.471  18.138  0.00  0.00    +0.000 C 
ENDROOT
BRANCH   1   3
ATOM      3  S   UNL     1       5.556   4.745  19.122  0.00  0.00    +0.000 S 
ATOM      4  O   UNL     1       5.264   3.424  19.622  0.00  0.00    +0.000 OA
ATOM      5  O   UNL     1       6.652   5.505  19.697  0.00  0.00    +0.000 OA
BRANCH   3  11
ATOM      6  C   UNL     1       6.955   4.380  13.150  0.00  0.00    +0.000 C 
ATOM      7  C   UNL     1       6.559   4.536  14.589  0.00  0.00    +0.000 A 
ATOM      8  C   UNL     1       7.183   5.455  15.427  0.00  0.00    +0.000 A 
ATOM      9  C   UNL     1       6.832   5.566  16.790  0.00  0.00    +0.000 A 
ATOM     10  C   UNL     1       7.579   6.597  17.600  0.00  0.00    +0.000 C 
ATOM     11  C   UNL     1       5.820   4.721  17.327  0.00  0.00    +0.000 A 
ATOM     12  C   UNL     1       5.141   3.820  16.470  0.00  0.00    +0.000 A 
ATOM     13  C   UNL     1       4.031   2.872  16.834  0.00  0.00    +0.000 C 
ATOM     14  C   UNL     1       5.550   3.733  15.118  0.00  0.00    +0.000 A 
ENDBRANCH   3  11
ENDBRANCH   1   3
BRANCH   1  15
ATOM     15  C   UNL     1       2.987   4.844  19.854  0.00  0.00    +0.000 C 
BRANCH  15  16
ATOM     16  C   UNL     1       1.822   5.635  20.451  0.00  0.00    +0.000 C 
ATOM     17  O   UNL     1       0.708   5.134  20.621  0.00  0.00    +0.000 OA
ATOM     18  N   UNL     1       2.093   6.935  20.813  0.00  0.00    +0.000 N 
ATOM     19  H   UNL     1       2.948   7.382  20.509  0.00  0.00    +0.000 HD
BRANCH  18  20
ATOM     20  C   UNL     1       1.049   7.806  21.327  0.00  0.00    +0.000 C 
BRANCH  20  21
ATOM     21  C   UNL     1       0.703   8.921  20.367  0.00  0.00    +0.000 A 
ATOM     22  C   UNL     1      -0.367   9.773  20.634  0.00  0.00    +0.000 A 
ATOM     23  C   UNL     1      -0.664  10.789  19.730  0.00  0.00    +0.000 A 
ATOM     24  C   UNL     1       0.110  10.928  18.584  0.00  0.00    +0.000 A 
ATOM     25  C   UNL     1       1.149  10.035  18.387  0.00  0.00    +0.000 A 
ATOM     26  N   UNL     1       1.459   9.034  19.242  0.00  0.00    +0.000 NA
ENDBRANCH  20  21
ENDBRANCH  18  20
ENDBRANCH  15  16
ENDBRANCH   1  15
TORSDOF 6
ENDMDL
MODEL 7
REMARK VINA RESULT:      -7.6      4.605      6.026
REMARK  Name = 
REMARK  10 active torsions:
REMARK  status: ('A' for Active; 'I' for Inactive)
REMARK    1  A    between atoms: C_1  and  C_2
REMARK    2  A    between atoms: C_4  and  C_5
REMARK    3  A    between atoms: C_6  and  S_7
REMARK    4  A    between atoms: S_7  and  N_10
REMARK    5  A    between atoms: N_10  and  C_11
REMARK    6  A    between atoms: N_10  and  C_12
REMARK    7  A    between atoms: C_12  and  C_13
REMARK    8  A    between atoms: N_15  and  C_16
REMARK    9  A    between atoms: C_16  and  C_17
REMARK   10  A    between atoms: C_23  and  C_24
REMARK                            x       y       z     vdW  Elec       q    Type
REMARK                         _______ _______ _______ _____ _____    ______ ____
ROOT
ATOM      1  N   UNL     1       6.564   5.888  17.198  0.00  0.00    +0.000 NA
ATOM      2  C   UNL     1       7.482   4.725  17.154  0.00  0.00    +0.000 C 
ENDROOT
BRANCH   1   3
ATOM      3  S   UNL     1       5.164   5.708  16.208  0.00  0.00    +0.000 S 
ATOM      4  O   UNL     1       5.412   4.570  15.357  0.00  0.00    +0.000 OA
ATOM      5  O   UNL     1       4.882   7.002  15.613  0.00  0.00    +0.000 OA
BRANCH   3  11
ATOM      6  C   UNL     1       1.043   4.435  20.584  0.00  0.00    +0.000 C 
ATOM      7  C   UNL     1       1.987   4.731  19.456  0.00  0.00    +0.000 A 
ATOM      8  C   UNL     1       2.679   3.722  18.793  0.00  0.00    +0.000 A 
ATOM      9  C   UNL     1       3.595   4.013  17.760  0.00  0.00    +0.000 A 
ATOM     10  C   UNL     1       4.287   2.836  17.117  0.00  0.00    +0.000 C 
ATOM     11  C   UNL     1       3.824   5.366  17.382  0.00  0.00    +0.000 A 
ATOM     12  C   UNL     1       3.084   6.397  18.013  0.00  0.00    +0.000 A 
ATOM     13  C   UNL     1       3.158   7.875  17.740  0.00  0.00    +0.000 C 
ATOM     14  C   UNL     1       2.197   6.051  19.059  0.00  0.00    +0.000 A 
ENDBRANCH   3  11
ENDBRANCH   1   3
BRANCH   1  15
ATOM     15  C   UNL     1       7.260   7.191  16.952  0.00  0.00    +0.000 C 
BRANCH  15  16
ATOM     16  C   UNL     1       8.077   7.725  18.130  0.00  0.00    +0.000 C 
ATOM     17  O   UNL     1       8.469   6.992  19.041  0.00  0.00    +0.000 OA
ATOM     18  N   UNL     1       8.372   9.069  18.105  0.00  0.00    +0.000 N 
ATOM     19  H   UNL     1       7.899   9.683  17.454  0.00  0.00    +0.000 HD
BRANCH  18  20
ATOM     20  C   UNL     1       9.082   9.704  19.202  0.00  0.00    +0.000 C 
BRANCH  20  21
ATOM     21  C   UNL     1       9.300  11.182  18.971  0.00  0.00    +0.000 A 
ATOM     22  C   UNL     1       9.960  11.954  19.926  0.00  0.00    +0.000 A 
ATOM     23  C   UNL     1      10.143  13.313  19.686  0.00  0.00    +0.000 A 
ATOM     24  C   UNL     1       9.663  13.867  18.506  0.00  0.00    +0.000 A 
ATOM     25  C   UNL     1       9.009  13.034  17.614  0.00  0.00    +0.000 A 
ATOM     26  N   UNL     1       8.809  11.713  17.820  0.00  0.00    +0.000 NA
ENDBRANCH  20  21
ENDBRANCH  18  20
ENDBRANCH  15  16
ENDBRANCH   1  15
TORSDOF 6
ENDMDL
MODEL 8
REMARK VINA RESULT:      -7.6      1.266      1.610
REMARK  Name = 
REMARK  10 active torsions:
REMARK  status: ('A' for Active; 'I' for Inactive)
REMARK    1  A    between atoms: C_1  and  C_2
REMARK    2  A    between atoms: C_4  and  C_5
REMARK    3  A    between atoms: C_6  and  S_7
REMARK    4  A    between atoms: S_7  and  N_10
REMARK    5  A    between atoms: N_10  and  C_11
REMARK    6  A    between atoms: N_10  and  C_12
REMARK    7  A    between atoms: C_12  and  C_13
REMARK    8  A    between atoms: N_15  and  C_16
REMARK    9  A    between atoms: C_16  and  C_17
REMARK   10  A    between atoms: C_23  and  C_24
REMARK                            x       y       z     vdW  Elec       q    Type
REMARK                         _______ _______ _______ _____ _____    ______ ____
ROOT
ATOM      1  N   UNL     1       4.361   4.601  18.947  0.00  0.00    +0.000 NA
ATOM      2  C   UNL     1       4.602   3.221  18.464  0.00  0.00    +0.000 C 
ENDROOT
BRANCH   1   3
ATOM      3  S   UNL     1       3.144   5.446  18.065  0.00  0.00    +0.000 S 
ATOM      4  O   UNL     1       2.212   4.448  17.602  0.00  0.00    +0.000 OA
ATOM      5  O   UNL     1       3.818   6.301  17.104  0.00  0.00    +0.000 OA
BRANCH   3  11
ATOM      6  C   UNL     1       0.066   9.150  21.880  0.00  0.00    +0.000 C 
ATOM      7  C   UNL     1       0.892   8.274  20.985  0.00  0.00    +0.000 A 
ATOM      8  C   UNL     1       1.443   8.748  19.798  0.00  0.00    +0.000 A 
ATOM      9  C   UNL     1       2.184   7.905  18.942  0.00  0.00    +0.000 A 
ATOM     10  C   UNL     1       2.730   8.531  17.682  0.00  0.00    +0.000 C 
ATOM     11  C   UNL     1       2.377   6.539  19.292  0.00  0.00    +0.000 A 
ATOM     12  C   UNL     1       1.868   6.061  20.525  0.00  0.00    +0.000 A 
ATOM     13  C   UNL     1       1.989   4.670  21.087  0.00  0.00    +0.000 C 
ATOM     14  C   UNL     1       1.110   6.941  21.333  0.00  0.00    +0.000 A 
ENDBRANCH   3  11
ENDBRANCH   1   3
BRANCH   1  15
ATOM     15  C   UNL     1       5.620   5.402  19.075  0.00  0.00    +0.000 C 
BRANCH  15  16
ATOM     16  C   UNL     1       6.717   5.055  18.068  0.00  0.00    +0.000 C 
ATOM     17  O   UNL     1       7.718   4.409  18.386  0.00  0.00    +0.000 OA
ATOM     18  N   UNL     1       6.514   5.484  16.776  0.00  0.00    +0.000 N 
ATOM     19  H   UNL     1       5.786   6.156  16.570  0.00  0.00    +0.000 HD
BRANCH  18  20
ATOM     20  C   UNL     1       7.518   5.274  15.747  0.00  0.00    +0.000 C 
BRANCH  20  21
ATOM     21  C   UNL     1       6.934   4.691  14.480  0.00  0.00    +0.000 A 
ATOM     22  C   UNL     1       7.620   4.804  13.272  0.00  0.00    +0.000 A 
ATOM     23  C   UNL     1       7.056   4.260  12.121  0.00  0.00    +0.000 A 
ATOM     24  C   UNL     1       5.824   3.623  12.203  0.00  0.00    +0.000 A 
ATOM     25  C   UNL     1       5.202   3.562  13.439  0.00  0.00    +0.000 A 
ATOM     26  N   UNL     1       5.720   4.086  14.573  0.00  0.00    +0.000 NA
ENDBRANCH  20  21
ENDBRANCH  18  20
ENDBRANCH  15  16
ENDBRANCH   1  15
TORSDOF 6
ENDMDL
MODEL 9
REMARK VINA RESULT:      -7.5      2.943      7.218
REMARK  Name = 
REMARK  10 active torsions:
REMARK  status: ('A' for Active; 'I' for Inactive)
REMARK    1  A    between atoms: C_1  and  C_2
REMARK    2  A    between atoms: C_4  and  C_5
REMARK    3  A    between atoms: C_6  and  S_7
REMARK    4  A    between atoms: S_7  and  N_10
REMARK    5  A    between atoms: N_10  and  C_11
REMARK    6  A    between atoms: N_10  and  C_12
REMARK    7  A    between atoms: C_12  and  C_13
REMARK    8  A    between atoms: N_15  and  C_16
REMARK    9  A    between atoms: C_16  and  C_17
REMARK   10  A    between atoms: C_23  and  C_24
REMARK                            x       y       z     vdW  Elec       q    Type
REMARK                         _______ _______ _______ _____ _____    ______ ____
ROOT
ATOM      1  N   UNL     1       3.395   4.728  19.475  0.00  0.00    +0.000 NA
ATOM      2  C   UNL     1       2.579   3.910  20.404  0.00  0.00    +0.000 C 
ENDROOT
BRANCH   1   3
ATOM      3  S   UNL     1       5.020   4.181  19.310  0.00  0.00    +0.000 S 
ATOM      4  O   UNL     1       5.040   2.817  19.779  0.00  0.00    +0.000 OA
ATOM      5  O   UNL     1       5.879   5.169  19.939  0.00  0.00    +0.000 OA
BRANCH   3  11
ATOM      6  C   UNL     1       6.450   3.984  13.338  0.00  0.00    +0.000 C 
ATOM      7  C   UNL     1       6.080   4.117  14.786  0.00  0.00    +0.000 A 
ATOM      8  C   UNL     1       6.985   4.583  15.735  0.00  0.00    +0.000 A 
ATOM      9  C   UNL     1       6.641   4.666  17.101  0.00  0.00    +0.000 A 
ATOM     10  C   UNL     1       7.705   5.186  18.037  0.00  0.00    +0.000 C 
ATOM     11  C   UNL     1       5.344   4.264  17.527  0.00  0.00    +0.000 A 
ATOM     12  C   UNL     1       4.398   3.840  16.561  0.00  0.00    +0.000 A 
ATOM     13  C   UNL     1       2.977   3.405  16.801  0.00  0.00    +0.000 C 
ATOM     14  C   UNL     1       4.803   3.752  15.209  0.00  0.00    +0.000 A 
ENDBRANCH   3  11
ENDBRANCH   1   3
BRANCH   1  15
ATOM     15  C   UNL     1       3.323   6.194  19.774  0.00  0.00    +0.000 C 
BRANCH  15  16
ATOM     16  C   UNL     1       2.816   7.069  18.626  0.00  0.00    +0.000 C 
ATOM     17  O   UNL     1       3.039   6.794  17.445  0.00  0.00    +0.000 OA
ATOM     18  N   UNL     1       2.072   8.170  18.985  0.00  0.00    +0.000 N 
ATOM     19  H   UNL     1       2.048   8.477  19.949  0.00  0.00    +0.000 HD
BRANCH  18  20
ATOM     20  C   UNL     1       1.594   9.112  17.988  0.00  0.00    +0.000 C 
BRANCH  20  21
ATOM     21  C   UNL     1       0.437   9.947  18.489  0.00  0.00    +0.000 A 
ATOM     22  C   UNL     1      -0.754  10.004  17.767  0.00  0.00    +0.000 A 
ATOM     23  C   UNL     1      -1.800  10.784  18.252  0.00  0.00    +0.000 A 
ATOM     24  C   UNL     1      -1.632  11.488  19.438  0.00  0.00    +0.000 A 
ATOM     25  C   UNL     1      -0.415  11.386  20.089  0.00  0.00    +0.000 A 
ATOM     26  N   UNL     1       0.623  10.643  19.642  0.00  0.00    +0.000 NA
ENDBRANCH  20  21
ENDBRANCH  18  20
ENDBRANCH  15  16
ENDBRANCH   1  15
TORSDOF 6
ENDMDL
