MODEL 1
REMARK VINA RESULT:      -6.2      0.000      0.000
REMARK  Name = 
REMARK  10 active torsions:
REMARK  status: ('A' for Active; 'I' for Inactive)
REMARK    1  A    between atoms: C_1  and  C_2
REMARK    2  A    between atoms: C_3  and  C_4
REMARK    3  A    between atoms: C_4  and  C_5
REMARK    4  A    between atoms: C_5  and  C_6
REMARK    5  A    between atoms: C_6  and  C_7
REMARK    6  A    between atoms: C_7  and  C_8
REMARK    7  A    between atoms: C_8  and  O_9
REMARK    8  A    between atoms: C_11  and  O_12
REMARK    9  A    between atoms: C_13  and  C_14
REMARK   10  A    between atoms: C_16  and  O_17
REMARK                            x       y       z     vdW  Elec       q    Type
REMARK                         _______ _______ _______ _____ _____    ______ ____
ROOT
ATOM      1  C   UNL     1       4.730   3.098  19.912  0.00  0.00    +0.000 C 
ATOM      2  C   UNL     1       4.875   3.996  18.707  0.00  0.00    +0.000 A 
ATOM      3  C   UNL     1       3.997   3.961  17.597  0.00  0.00    +0.000 A 
ATOM      4  C   UNL     1       4.188   4.900  16.559  0.00  0.00    +0.000 A 
ATOM      5  C   UNL     1       5.228   5.829  16.596  0.00  0.00    +0.000 A 
ATOM      6  C   UNL     1       6.111   5.845  17.669  0.00  0.00    +0.000 A 
ATOM      7  C   UNL     1       5.942   4.921  18.712  0.00  0.00    +0.000 A 
ENDROOT
BRANCH   5   8
ATOM      8  O   UNL     1       5.376   6.721  15.570  0.00  0.00    +0.000 OA
ATOM      9  H   UNL     1       5.574   6.238  14.748  0.00  0.00    +0.000 HD
ENDBRANCH   5   8
BRANCH   6  10
ATOM     10  C   UNL     1       7.196   6.845  17.702  0.00  0.00    +0.000 C 
ATOM     11  O   UNL     1       7.804   7.146  16.676  0.00  0.00    +0.000 OA
ENDBRANCH   6  10
BRANCH   7  12
ATOM     12  O   UNL     1       6.806   4.878  19.779  0.00  0.00    +0.000 OA
ATOM     13  H   UNL     1       6.441   4.253  20.448  0.00  0.00    +0.000 HD
ENDBRANCH   7  12
BRANCH   3  14
ATOM     14  C   UNL     1       2.825   2.993  17.534  0.00  0.00    +0.000 C 
BRANCH  14  15
ATOM     15  C   UNL     1       1.480   3.546  18.016  0.00  0.00    +0.000 C 
BRANCH  15  16
ATOM     16  C   UNL     1       0.861   2.673  19.109  0.00  0.00    +0.000 C 
BRANCH  16  17
ATOM     17  C   UNL     1       1.172   3.260  20.482  0.00  0.00    +0.000 C 
BRANCH  17  18
ATOM     18  C   UNL     1       1.307   4.775  20.441  0.00  0.00    +0.000 C 
BRANCH  18  19
ATOM     19  O   UNL     1       2.359   5.180  21.308  0.00  0.00    +0.000 OA
ATOM     20  H   UNL     1       3.082   4.537  21.215  0.00  0.00    +0.000 HD
ENDBRANCH  18  19
ENDBRANCH  17  18
ENDBRANCH  16  17
ENDBRANCH  15  16
ENDBRANCH  14  15
ENDBRANCH   3  14
TORSDOF 9
ENDMDL
MODEL 2
REMARK VINA RESULT:      -6.1      1.862      2.477
REMARK  Name = 
REMARK  10 active torsions:
REMARK  status: ('A' for Active; 'I' for Inactive)
REMARK    1  A    between atoms: C_1  and  C_2
REMARK    2  A    between atoms: C_3  and  C_4
REMARK    3  A    between atoms: C_4  and  C_5
REMARK    4  A    between atoms: C_5  and  C_6
REMARK    5  A    between atoms: C_6  and  C_7
REMARK    6  A    between atoms: C_7  and  C_8
REMARK    7  A    between atoms: C_8  and  O_9
REMARK    8  A    between atoms: C_11  and  O_12
REMARK    9  A    between atoms: C_13  and  C_14
REMARK   10  A    between atoms: C_16  and  O_17
REMARK                            x       y       z     vdW  Elec       q    Type
REMARK                         _______ _______ _______ _____ _____    ______ ____
ROOT
ATOM      1  C   UNL     1       3.240   2.799  17.353  0.00  0.00    +0.000 C 
ATOM      2  C   UNL     1       4.047   4.055  17.127  0.00  0.00    +0.000 A 
ATOM      3  C   UNL     1       3.657   5.330  17.603  0.00  0.00    +0.000 A 
ATOM      4  C   UNL     1       4.529   6.421  17.396  0.00  0.00    +0.000 A 
ATOM      5  C   UNL     1       5.739   6.271  16.718  0.00  0.00    +0.000 A 
ATOM      6  C   UNL     1       6.110   5.026  16.222  0.00  0.00    +0.000 A 
ATOM      7  C   UNL     1       5.260   3.928  16.415  0.00  0.00    +0.000 A 
ENDROOT
BRANCH   5   8
ATOM      8  O   UNL     1       6.555   7.354  16.541  0.00  0.00    +0.000 OA
ATOM      9  H   UNL     1       7.288   7.314  17.181  0.00  0.00    +0.000 HD
ENDBRANCH   5   8
BRANCH   6  10
ATOM     10  C   UNL     1       7.401   4.880  15.522  0.00  0.00    +0.000 C 
ATOM     11  O   UNL     1       7.612   5.470  14.463  0.00  0.00    +0.000 OA
ENDBRANCH   6  10
BRANCH   7  12
ATOM     12  O   UNL     1       5.569   2.685  15.918  0.00  0.00    +0.000 OA
ATOM     13  H   UNL     1       5.219   2.623  15.000  0.00  0.00    +0.000 HD
ENDBRANCH   7  12
BRANCH   3  14
ATOM     14  C   UNL     1       2.366   5.532  18.384  0.00  0.00    +0.000 C 
BRANCH  14  15
ATOM     15  C   UNL     1       2.518   5.628  19.905  0.00  0.00    +0.000 C 
BRANCH  15  16
ATOM     16  C   UNL     1       1.296   5.072  20.638  0.00  0.00    +0.000 C 
BRANCH  16  17
ATOM     17  C   UNL     1       0.992   3.661  20.147  0.00  0.00    +0.000 C 
BRANCH  17  18
ATOM     18  C   UNL     1       1.880   2.619  20.810  0.00  0.00    +0.000 C 
BRANCH  18  19
ATOM     19  O   UNL     1       1.849   2.799  22.220  0.00  0.00    +0.000 OA
ATOM     20  H   UNL     1       2.560   2.256  22.602  0.00  0.00    +0.000 HD
ENDBRANCH  18  19
ENDBRANCH  17  18
ENDBRANCH  16  17
ENDBRANCH  15  16
ENDBRANCH  14  15
ENDBRANCH   3  14
TORSDOF 9
ENDMDL
MODEL 3
REMARK VINA RESULT:      -5.9      1.909      5.462
REMARK  Name = 
REMARK  10 active torsions:
REMARK  status: ('A' for Active; 'I' for Inactive)
REMARK    1  A    between atoms: C_1  and  C_2
REMARK    2  A    between atoms: C_3  and  C_4
REMARK    3  A    between atoms: C_4  and  C_5
REMARK    4  A    between atoms: C_5  and  C_6
REMARK    5  A    between atoms: C_6  and  C_7
REMARK    6  A    between atoms: C_7  and  C_8
REMARK    7  A    between atoms: C_8  and  O_9
REMARK    8  A    between atoms: C_11  and  O_12
REMARK    9  A    between atoms: C_13  and  C_14
REMARK   10  A    between atoms: C_16  and  O_17
REMARK                            x       y       z     vdW  Elec       q    Type
REMARK                         _______ _______ _______ _____ _____    ______ ____
ROOT
ATOM      1  C   UNL     1       3.820   6.719  18.224  0.00  0.00    +0.000 C 
ATOM      2  C   UNL     1       3.340   5.295  18.376  0.00  0.00    +0.000 A 
ATOM      3  C   UNL     1       3.669   4.259  17.469  0.00  0.00    +0.000 A 
ATOM      4  C   UNL     1       3.224   2.950  17.754  0.00  0.00    +0.000 A 
ATOM      5  C   UNL     1       2.455   2.669  18.883  0.00  0.00    +0.000 A 
ATOM      6  C   UNL     1       2.104   3.689  19.759  0.00  0.00    +0.000 A 
ATOM      7  C   UNL     1       2.534   4.998  19.497  0.00  0.00    +0.000 A 
ENDROOT
BRANCH   5   8
ATOM      8  O   UNL     1       2.046   1.385  19.122  0.00  0.00    +0.000 OA
ATOM      9  H   UNL     1       1.474   1.370  19.910  0.00  0.00    +0.000 HD
ENDBRANCH   5   8
BRANCH   6  10
ATOM     10  C   UNL     1       1.305   3.373  20.959  0.00  0.00    +0.000 C 
ATOM     11  O   UNL     1       1.803   2.763  21.903  0.00  0.00    +0.000 OA
ENDBRANCH   6  10
BRANCH   7  12
ATOM     12  O   UNL     1       2.189   6.046  20.316  0.00  0.00    +0.000 OA
ATOM     13  H   UNL     1       1.216   6.183  20.249  0.00  0.00    +0.000 HD
ENDBRANCH   7  12
BRANCH   3  14
ATOM     14  C   UNL     1       4.540   4.512  16.246  0.00  0.00    +0.000 C 
BRANCH  14  15
ATOM     15  C   UNL     1       6.045   4.311  16.450  0.00  0.00    +0.000 C 
BRANCH  15  16
ATOM     16  C   UNL     1       6.833   5.597  16.197  0.00  0.00    +0.000 C 
BRANCH  16  17
ATOM     17  C   UNL     1       7.287   6.198  17.523  0.00  0.00    +0.000 C 
BRANCH  17  18
ATOM     18  C   UNL     1       7.606   5.130  18.558  0.00  0.00    +0.000 C 
BRANCH  18  19
ATOM     19  O   UNL     1       6.883   5.396  19.753  0.00  0.00    +0.000 OA
ATOM     20  H   UNL     1       5.947   5.507  19.513  0.00  0.00    +0.000 HD
ENDBRANCH  18  19
ENDBRANCH  17  18
ENDBRANCH  16  17
ENDBRANCH  15  16
ENDBRANCH  14  15
ENDBRANCH   3  14
TORSDOF 9
ENDMDL
MODEL 4
REMARK VINA RESULT:      -5.9      1.905      2.506
REMARK  Name = 
REMARK  10 active torsions:
REMARK  status: ('A' for Active; 'I' for Inactive)
REMARK    1  A    between atoms: C_1  and  C_2
REMARK    2  A    between atoms: C_3  and  C_4
REMARK    3  A    between atoms: C_4  and  C_5
REMARK    4  A    between atoms: C_5  and  C_6
REMARK    5  A    between atoms: C_6  and  C_7
REMARK    6  A    between atoms: C_7  and  C_8
REMARK    7  A    between atoms: C_8  and  O_9
REMARK    8  A    between atoms: C_11  and  O_12
REMARK    9  A    between atoms: C_13  and  C_14
REMARK   10  A    between atoms: C_16  and  O_17
REMARK                            x       y       z     vdW  Elec       q    Type
REMARK                         _______ _______ _______ _____ _____    ______ ____
ROOT
ATOM      1  C   UNL     1       2.980   7.365  18.190  0.00  0.00    +0.000 C 
ATOM      2  C   UNL     1       3.667   6.121  17.682  0.00  0.00    +0.000 A 
ATOM      3  C   UNL     1       3.060   4.841  17.676  0.00  0.00    +0.000 A 
ATOM      4  C   UNL     1       3.772   3.763  17.107  0.00  0.00    +0.000 A 
ATOM      5  C   UNL     1       5.054   3.928  16.583  0.00  0.00    +0.000 A 
ATOM      6  C   UNL     1       5.665   5.177  16.615  0.00  0.00    +0.000 A 
ATOM      7  C   UNL     1       4.977   6.263  17.176  0.00  0.00    +0.000 A 
ENDROOT
BRANCH   5   8
ATOM      8  O   UNL     1       5.708   2.856  16.040  0.00  0.00    +0.000 OA
ATOM      9  H   UNL     1       6.012   2.268  16.754  0.00  0.00    +0.000 HD
ENDBRANCH   5   8
BRANCH   6  10
ATOM     10  C   UNL     1       7.014   5.340  16.041  0.00  0.00    +0.000 C 
ATOM     11  O   UNL     1       7.900   4.519  16.275  0.00  0.00    +0.000 OA
ENDBRANCH   6  10
BRANCH   7  12
ATOM     12  O   UNL     1       5.550   7.510  17.258  0.00  0.00    +0.000 OA
ATOM     13  H   UNL     1       5.550   7.789  18.203  0.00  0.00    +0.000 HD
ENDBRANCH   7  12
BRANCH   3  14
ATOM     14  C   UNL     1       1.648   4.622  18.200  0.00  0.00    +0.000 C 
BRANCH  14  15
ATOM     15  C   UNL     1       1.089   3.206  18.031  0.00  0.00    +0.000 C 
BRANCH  15  16
ATOM     16  C   UNL     1       1.072   2.437  19.353  0.00  0.00    +0.000 C 
BRANCH  16  17
ATOM     17  C   UNL     1       1.193   3.409  20.522  0.00  0.00    +0.000 C 
BRANCH  17  18
ATOM     18  C   UNL     1       1.435   2.692  21.842  0.00  0.00    +0.000 C 
BRANCH  18  19
ATOM     19  O   UNL     1       2.829   2.469  22.011  0.00  0.00    +0.000 OA
ATOM     20  H   UNL     1       3.202   3.256  22.444  0.00  0.00    +0.000 HD
ENDBRANCH  18  19
ENDBRANCH  17  18
ENDBRANCH  16  17
ENDBRANCH  15  16
ENDBRANCH  14  15
ENDBRANCH   3  14
TORSDOF 9
ENDMDL
MODEL 5
REMARK VINA RESULT:      -5.9      1.936      3.259
REMARK  Name = 
REMARK  10 active torsions:
REMARK  status: ('A' for Active; 'I' for Inactive)
REMARK    1  A    between atoms: C_1  and  C_2
REMARK    2  A    between atoms: C_3  and  C_4
REMARK    3  A    between atoms: C_4  and  C_5
REMARK    4  A    between atoms: C_5  and  C_6
REMARK    5  A    between atoms: C_6  and  C_7
REMARK    6  A    between atoms: C_7  and  C_8
REMARK    7  A    between atoms: C_8  and  O_9
REMARK    8  A    between atoms: C_11  and  O_12
REMARK    9  A    between atoms: C_13  and  C_14
REMARK   10  A    between atoms: C_16  and  O_17
REMARK                            x       y       z     vdW  Elec       q    Type
REMARK                         _______ _______ _______ _____ _____    ______ ____
ROOT
ATOM      1  C   UNL     1       2.412   7.677  17.705  0.00  0.00    +0.000 C 
ATOM      2  C   UNL     1       3.474   6.651  18.020  0.00  0.00    +0.000 A 
ATOM      3  C   UNL     1       3.426   5.798  19.149  0.00  0.00    +0.000 A 
ATOM      4  C   UNL     1       4.439   4.826  19.300  0.00  0.00    +0.000 A 
ATOM      5  C   UNL     1       5.485   4.712  18.386  0.00  0.00    +0.000 A 
ATOM      6  C   UNL     1       5.553   5.569  17.293  0.00  0.00    +0.000 A 
ATOM      7  C   UNL     1       4.558   6.543  17.122  0.00  0.00    +0.000 A 
ENDROOT
BRANCH   5   8
ATOM      8  O   UNL     1       6.445   3.755  18.570  0.00  0.00    +0.000 OA
ATOM      9  H   UNL     1       7.290   4.185  18.795  0.00  0.00    +0.000 HD
ENDBRANCH   5   8
BRANCH   6  10
ATOM     10  C   UNL     1       6.656   5.425  16.324  0.00  0.00    +0.000 C 
ATOM     11  O   UNL     1       7.473   6.330  16.161  0.00  0.00    +0.000 OA
ENDBRANCH   6  10
BRANCH   7  12
ATOM     12  O   UNL     1       4.597   7.432  16.075  0.00  0.00    +0.000 OA
ATOM     13  H   UNL     1       5.353   7.191  15.492  0.00  0.00    +0.000 HD
ENDBRANCH   7  12
BRANCH   3  14
ATOM     14  C   UNL     1       2.281   5.860  20.150  0.00  0.00    +0.000 C 
BRANCH  14  15
ATOM     15  C   UNL     1       2.142   4.646  21.075  0.00  0.00    +0.000 C 
BRANCH  15  16
ATOM     16  C   UNL     1       1.020   3.709  20.624  0.00  0.00    +0.000 C 
BRANCH  16  17
ATOM     17  C   UNL     1       1.613   2.441  20.018  0.00  0.00    +0.000 C 
BRANCH  17  18
ATOM     18  C   UNL     1       1.289   2.306  18.538  0.00  0.00    +0.000 C 
BRANCH  18  19
ATOM     19  O   UNL     1       2.373   1.671  17.871  0.00  0.00    +0.000 OA
ATOM     20  H   UNL     1       2.972   2.369  17.553  0.00  0.00    +0.000 HD
ENDBRANCH  18  19
ENDBRANCH  17  18
ENDBRANCH  16  17
ENDBRANCH  15  16
ENDBRANCH  14  15
ENDBRANCH   3  14
TORSDOF 9
ENDMDL
MODEL 6
REMARK VINA RESULT:      -5.9      2.012      5.427
REMARK  Name = 
REMARK  10 active torsions:
REMARK  status: ('A' for Active; 'I' for Inactive)
REMARK    1  A    between atoms: C_1  and  C_2
REMARK    2  A    between atoms: C_3  and  C_4
REMARK    3  A    between atoms: C_4  and  C_5
REMARK    4  A    between atoms: C_5  and  C_6
REMARK    5  A    between atoms: C_6  and  C_7
REMARK    6  A    between atoms: C_7  and  C_8
REMARK    7  A    between atoms: C_8  and  O_9
REMARK    8  A    between atoms: C_11  and  O_12
REMARK    9  A    between atoms: C_13  and  C_14
REMARK   10  A    between atoms: C_16  and  O_17
REMARK                            x       y       z     vdW  Elec       q    Type
REMARK                         _______ _______ _______ _____ _____    ______ ____
ROOT
ATOM      1  C   UNL     1       2.503   6.938  18.620  0.00  0.00    +0.000 C 
ATOM      2  C   UNL     1       3.051   5.539  18.772  0.00  0.00    +0.000 A 
ATOM      3  C   UNL     1       4.056   4.998  17.935  0.00  0.00    +0.000 A 
ATOM      4  C   UNL     1       4.543   3.703  18.219  0.00  0.00    +0.000 A 
ATOM      5  C   UNL     1       4.038   2.949  19.278  0.00  0.00    +0.000 A 
ATOM      6  C   UNL     1       3.029   3.464  20.083  0.00  0.00    +0.000 A 
ATOM      7  C   UNL     1       2.529   4.749  19.820  0.00  0.00    +0.000 A 
ENDROOT
BRANCH   5   8
ATOM      8  O   UNL     1       4.540   1.699  19.518  0.00  0.00    +0.000 OA
ATOM      9  H   UNL     1       4.547   1.534  20.478  0.00  0.00    +0.000 HD
ENDBRANCH   5   8
BRANCH   6  10
ATOM     10  C   UNL     1       2.518   2.661  21.210  0.00  0.00    +0.000 C 
ATOM     11  O   UNL     1       2.356   3.167  22.320  0.00  0.00    +0.000 OA
ENDBRANCH   6  10
BRANCH   7  12
ATOM     12  O   UNL     1       1.512   5.290  20.568  0.00  0.00    +0.000 OA
ATOM     13  H   UNL     1       1.852   6.101  21.012  0.00  0.00    +0.000 HD
ENDBRANCH   7  12
BRANCH   3  14
ATOM     14  C   UNL     1       4.664   5.801  16.793  0.00  0.00    +0.000 C 
BRANCH  14  15
ATOM     15  C   UNL     1       5.888   5.173  16.118  0.00  0.00    +0.000 C 
BRANCH  15  16
ATOM     16  C   UNL     1       7.170   5.950  16.423  0.00  0.00    +0.000 C 
BRANCH  16  17
ATOM     17  C   UNL     1       7.097   6.544  17.825  0.00  0.00    +0.000 C 
BRANCH  17  18
ATOM     18  C   UNL     1       7.854   5.705  18.844  0.00  0.00    +0.000 C 
BRANCH  18  19
ATOM     19  O   UNL     1       6.999   5.404  19.939  0.00  0.00    +0.000 OA
ATOM     20  H   UNL     1       6.193   4.995  19.580  0.00  0.00    +0.000 HD
ENDBRANCH  18  19
ENDBRANCH  17  18
ENDBRANCH  16  17
ENDBRANCH  15  16
ENDBRANCH  14  15
ENDBRANCH   3  14
TORSDOF 9
ENDMDL
MODEL 7
REMARK VINA RESULT:      -5.9      2.230      5.336
REMARK  Name = 
REMARK  10 active torsions:
REMARK  status: ('A' for Active; 'I' for Inactive)
REMARK    1  A    between atoms: C_1  and  C_2
REMARK    2  A    between atoms: C_3  and  C_4
REMARK    3  A    between atoms: C_4  and  C_5
REMARK    4  A    between atoms: C_5  and  C_6
REMARK    5  A    between atoms: C_6  and  C_7
REMARK    6  A    between atoms: C_7  and  C_8
REMARK    7  A    between atoms: C_8  and  O_9
REMARK    8  A    between atoms: C_11  and  O_12
REMARK    9  A    between atoms: C_13  and  C_14
REMARK   10  A    between atoms: C_16  and  O_17
REMARK                            x       y       z     vdW  Elec       q    Type
REMARK                         _______ _______ _______ _____ _____    ______ ____
ROOT
ATOM      1  C   UNL     1       4.510   3.358  17.052  0.00  0.00    +0.000 C 
ATOM      2  C   UNL     1       3.917   4.386  17.986  0.00  0.00    +0.000 A 
ATOM      3  C   UNL     1       4.010   5.782  17.770  0.00  0.00    +0.000 A 
ATOM      4  C   UNL     1       3.352   6.646  18.672  0.00  0.00    +0.000 A 
ATOM      5  C   UNL     1       2.645   6.157  19.770  0.00  0.00    +0.000 A 
ATOM      6  C   UNL     1       2.578   4.788  20.002  0.00  0.00    +0.000 A 
ATOM      7  C   UNL     1       3.223   3.909  19.120  0.00  0.00    +0.000 A 
ENDROOT
BRANCH   5   8
ATOM      8  O   UNL     1       2.022   7.030  20.618  0.00  0.00    +0.000 OA
ATOM      9  H   UNL     1       1.264   6.586  21.039  0.00  0.00    +0.000 HD
ENDBRANCH   5   8
BRANCH   6  10
ATOM     10  C   UNL     1       1.811   4.284  21.158  0.00  0.00    +0.000 C 
ATOM     11  O   UNL     1       2.260   3.385  21.867  0.00  0.00    +0.000 OA
ENDBRANCH   6  10
BRANCH   7  12
ATOM     12  O   UNL     1       3.211   2.550  19.323  0.00  0.00    +0.000 OA
ATOM     13  H   UNL     1       4.062   2.180  18.995  0.00  0.00    +0.000 HD
ENDBRANCH   7  12
BRANCH   3  14
ATOM     14  C   UNL     1       4.737   6.359  16.564  0.00  0.00    +0.000 C 
BRANCH  14  15
ATOM     15  C   UNL     1       6.265   6.255  16.597  0.00  0.00    +0.000 C 
BRANCH  15  16
ATOM     16  C   UNL     1       6.897   7.387  17.408  0.00  0.00    +0.000 C 
BRANCH  16  17
ATOM     17  C   UNL     1       7.902   6.816  18.403  0.00  0.00    +0.000 C 
BRANCH  17  18
ATOM     18  C   UNL     1       7.352   5.608  19.145  0.00  0.00    +0.000 C 
BRANCH  18  19
ATOM     19  O   UNL     1       7.991   5.496  20.410  0.00  0.00    +0.000 OA
ATOM     20  H   UNL     1       7.296   5.468  21.090  0.00  0.00    +0.000 HD
ENDBRANCH  18  19
ENDBRANCH  17  18
ENDBRANCH  16  17
ENDBRANCH  15  16
ENDBRANCH  14  15
ENDBRANCH   3  14
TORSDOF 9
ENDMDL
MODEL 8
REMARK VINA RESULT:      -5.9      2.427      5.888
REMARK  Name = 
REMARK  10 active torsions:
REMARK  status: ('A' for Active; 'I' for Inactive)
REMARK    1  A    between atoms: C_1  and  C_2
REMARK    2  A    between atoms: C_3  and  C_4
REMARK    3  A    between atoms: C_4  and  C_5
REMARK    4  A    between atoms: C_5  and  C_6
REMARK    5  A    between atoms: C_6  and  C_7
REMARK    6  A    between atoms: C_7  and  C_8
REMARK    7  A    between atoms: C_8  and  O_9
REMARK    8  A    between atoms: C_11  and  O_12
REMARK    9  A    between atoms: C_13  and  C_14
REMARK   10  A    between atoms: C_16  and  O_17
REMARK                            x       y       z     vdW  Elec       q    Type
REMARK                         _______ _______ _______ _____ _____    ______ ____
ROOT
ATOM      1  C   UNL     1       2.403   7.274  19.016  0.00  0.00    +0.000 C 
ATOM      2  C   UNL     1       3.092   5.932  19.083  0.00  0.00    +0.000 A 
ATOM      3  C   UNL     1       4.222   5.595  18.301  0.00  0.00    +0.000 A 
ATOM      4  C   UNL     1       4.827   4.335  18.503  0.00  0.00    +0.000 A 
ATOM      5  C   UNL     1       4.321   3.421  19.426  0.00  0.00    +0.000 A 
ATOM      6  C   UNL     1       3.192   3.736  20.174  0.00  0.00    +0.000 A 
ATOM      7  C   UNL     1       2.574   4.982  19.990  0.00  0.00    +0.000 A 
ENDROOT
BRANCH   5   8
ATOM      8  O   UNL     1       4.940   2.211  19.591  0.00  0.00    +0.000 OA
ATOM      9  H   UNL     1       5.872   2.356  19.833  0.00  0.00    +0.000 HD
ENDBRANCH   5   8
BRANCH   6  10
ATOM     10  C   UNL     1       2.680   2.766  21.160  0.00  0.00    +0.000 C 
ATOM     11  O   UNL     1       2.216   3.146  22.234  0.00  0.00    +0.000 OA
ENDBRANCH   6  10
BRANCH   7  12
ATOM     12  O   UNL     1       1.439   5.329  20.683  0.00  0.00    +0.000 OA
ATOM     13  H   UNL     1       1.476   4.902  21.570  0.00  0.00    +0.000 HD
ENDBRANCH   7  12
BRANCH   3  14
ATOM     14  C   UNL     1       4.833   6.577  17.311  0.00  0.00    +0.000 C 
BRANCH  14  15
ATOM     15  C   UNL     1       5.289   5.977  15.977  0.00  0.00    +0.000 C 
BRANCH  15  16
ATOM     16  C   UNL     1       6.791   5.689  15.963  0.00  0.00    +0.000 C 
BRANCH  16  17
ATOM     17  C   UNL     1       7.125   4.720  14.834  0.00  0.00    +0.000 C 
BRANCH  17  18
ATOM     18  C   UNL     1       5.878   4.097  14.225  0.00  0.00    +0.000 C 
BRANCH  18  19
ATOM     19  O   UNL     1       6.252   3.226  13.165  0.00  0.00    +0.000 OA
ATOM     20  H   UNL     1       7.082   2.789  13.423  0.00  0.00    +0.000 HD
ENDBRANCH  18  19
ENDBRANCH  17  18
ENDBRANCH  16  17
ENDBRANCH  15  16
ENDBRANCH  14  15
ENDBRANCH   3  14
TORSDOF 9
ENDMDL
MODEL 9
REMARK VINA RESULT:      -5.9      2.132      5.244
REMARK  Name = 
REMARK  10 active torsions:
REMARK  status: ('A' for Active; 'I' for Inactive)
REMARK    1  A    between atoms: C_1  and  C_2
REMARK    2  A    between atoms: C_3  and  C_4
REMARK    3  A    between atoms: C_4  and  C_5
REMARK    4  A    between atoms: C_5  and  C_6
REMARK    5  A    between atoms: C_6  and  C_7
REMARK    6  A    between atoms: C_7  and  C_8
REMARK    7  A    between atoms: C_8  and  O_9
REMARK    8  A    between atoms: C_11  and  O_12
REMARK    9  A    between atoms: C_13  and  C_14
REMARK   10  A    between atoms: C_16  and  O_17
REMARK                            x       y       z     vdW  Elec       q    Type
REMARK                         _______ _______ _______ _____ _____    ______ ____
ROOT
ATOM      1  C   UNL     1       3.931   7.105  17.458  0.00  0.00    +0.000 C 
ATOM      2  C   UNL     1       3.754   5.632  17.739  0.00  0.00    +0.000 A 
ATOM      3  C   UNL     1       4.326   4.611  16.942  0.00  0.00    +0.000 A 
ATOM      4  C   UNL     1       4.153   3.269  17.346  0.00  0.00    +0.000 A 
ATOM      5  C   UNL     1       3.418   2.935  18.482  0.00  0.00    +0.000 A 
ATOM      6  C   UNL     1       2.829   3.934  19.249  0.00  0.00    +0.000 A 
ATOM      7  C   UNL     1       2.986   5.275  18.869  0.00  0.00    +0.000 A 
ENDROOT
BRANCH   5   8
ATOM      8  O   UNL     1       3.277   1.622  18.837  0.00  0.00    +0.000 OA
ATOM      9  H   UNL     1       2.418   1.497  19.279  0.00  0.00    +0.000 HD
ENDBRANCH   5   8
BRANCH   6  10
ATOM     10  C   UNL     1       2.068   3.567  20.460  0.00  0.00    +0.000 C 
ATOM     11  O   UNL     1       0.900   3.926  20.601  0.00  0.00    +0.000 OA
ENDBRANCH   6  10
BRANCH   7  12
ATOM     12  O   UNL     1       2.398   6.296  19.577  0.00  0.00    +0.000 OA
ATOM     13  H   UNL     1       1.515   5.989  19.886  0.00  0.00    +0.000 HD
ENDBRANCH   7  12
BRANCH   3  14
ATOM     14  C   UNL     1       5.170   4.930  15.717  0.00  0.00    +0.000 C 
BRANCH  14  15
ATOM     15  C   UNL     1       6.568   5.489  16.001  0.00  0.00    +0.000 C 
BRANCH  15  16
ATOM     16  C   UNL     1       7.249   4.762  17.162  0.00  0.00    +0.000 C 
BRANCH  16  17
ATOM     17  C   UNL     1       7.657   5.765  18.236  0.00  0.00    +0.000 C 
BRANCH  17  18
ATOM     18  C   UNL     1       6.985   5.481  19.571  0.00  0.00    +0.000 C 
BRANCH  18  19
ATOM     19  O   UNL     1       7.964   5.478  20.603  0.00  0.00    +0.000 OA
ATOM     20  H   UNL     1       8.833   5.354  20.184  0.00  0.00    +0.000 HD
ENDBRANCH  18  19
ENDBRANCH  17  18
ENDBRANCH  16  17
ENDBRANCH  15  16
ENDBRANCH  14  15
ENDBRANCH   3  14
TORSDOF 9
ENDMDL
