MODEL 1
REMARK VINA RESULT:      -8.5      0.000      0.000
REMARK  Name = 
REMARK  7 active torsions:
REMARK  status: ('A' for Active; 'I' for Inactive)
REMARK    1  A    between atoms: C_2  and  C_3
REMARK    2  A    between atoms: C_3  and  O_4
REMARK    3  A    between atoms: O_4  and  C_5
REMARK    4  A    between atoms: N_20  and  C_21
REMARK    5  A    between atoms: C_21  and  C_22
REMARK    6  A    between atoms: C_22  and  C_23
REMARK    7  A    between atoms: C_23  and  N_24
REMARK                            x       y       z     vdW  Elec       q    Type
REMARK                         _______ _______ _______ _____ _____    ______ ____
ROOT
ATOM      1  O   UNL     1       3.027   6.948  18.428  0.00  0.00    +0.000 OA
ENDROOT
BRANCH   1   2
ATOM      2  C   UNL     1       2.142   7.927  18.768  0.00  0.00    +0.000 A 
ATOM      3  C   UNL     1       1.528   8.890  17.964  0.00  0.00    +0.000 A 
ATOM      4  C   UNL     1       0.655   9.872  18.533  0.00  0.00    +0.000 A 
ATOM      5  C   UNL     1       0.387   9.909  19.914  0.00  0.00    +0.000 A 
ATOM      6  C   UNL     1      -0.467  10.889  20.656  0.00  0.00    +0.000 A 
ATOM      7  C   UNL     1      -0.517  10.777  21.998  0.00  0.00    +0.000 A 
ATOM      8  C   UNL     1       0.194   9.714  22.766  0.00  0.00    +0.000 A 
ATOM      9  O   UNL     1       0.170   9.671  23.991  0.00  0.00    +0.000 OA
ATOM     10  O   UNL     1       0.887   8.788  22.043  0.00  0.00    +0.000 OA
ATOM     11  C   UNL     1       1.022   8.912  20.659  0.00  0.00    +0.000 A 
ATOM     12  C   UNL     1       1.874   7.949  20.121  0.00  0.00    +0.000 A 
ATOM     13  C   UNL     1      -1.288  11.657  22.925  0.00  0.00    +0.000 C 
ATOM     14  C   UNL     1      -2.038  12.834  22.345  0.00  0.00    +0.000 C 
ATOM     15  C   UNL     1      -2.101  12.945  20.828  0.00  0.00    +0.000 C 
ATOM     16  C   UNL     1      -1.257  11.977  19.961  0.00  0.00    +0.000 C 
ENDBRANCH   1   2
BRANCH   1  17
ATOM     17  C   UNL     1       3.989   7.208  17.420  0.00  0.00    +0.000 C 
BRANCH  17  19
ATOM     18  O   UNL     1       5.444   5.904  15.989  0.00  0.00    +0.000 OA
ATOM     19  C   UNL     1       4.598   5.899  16.881  0.00  0.00    +0.000 C 
ATOM     20  N   UNL     1       4.111   4.737  17.444  0.00  0.00    +0.000 N 
ATOM     21  H   UNL     1       3.416   4.833  18.181  0.00  0.00    +0.000 HD
BRANCH  20  22
ATOM     22  C   UNL     1       4.505   3.408  17.010  0.00  0.00    +0.000 C 
BRANCH  22  23
ATOM     23  C   UNL     1       3.399   2.375  17.228  0.00  0.00    +0.000 C 
BRANCH  23  24
ATOM     24  C   UNL     1       3.429   1.792  18.641  0.00  0.00    +0.000 C 
BRANCH  24  25
ATOM     25  N   UNL     1       2.611   2.542  19.581  0.00  0.00    +0.000 N 
ATOM     26  C   UNL     1       1.296   3.029  19.259  0.00  0.00    +0.000 C 
ATOM     27  C   UNL     1       0.976   3.929  20.437  0.00  0.00    +0.000 C 
ATOM     28  C   UNL     1       1.674   3.250  21.608  0.00  0.00    +0.000 C 
ATOM     29  C   UNL     1       2.850   2.573  20.949  0.00  0.00    +0.000 C 
ATOM     30  O   UNL     1       3.804   2.086  21.527  0.00  0.00    +0.000 OA
ENDBRANCH  24  25
ENDBRANCH  23  24
ENDBRANCH  22  23
ENDBRANCH  20  22
ENDBRANCH  17  19
ENDBRANCH   1  17
TORSDOF 7
ENDMDL
MODEL 2
REMARK VINA RESULT:      -8.3      1.328      1.523
REMARK  Name = 
REMARK  7 active torsions:
REMARK  status: ('A' for Active; 'I' for Inactive)
REMARK    1  A    between atoms: C_2  and  C_3
REMARK    2  A    between atoms: C_3  and  O_4
REMARK    3  A    between atoms: O_4  and  C_5
REMARK    4  A    between atoms: N_20  and  C_21
REMARK    5  A    between atoms: C_21  and  C_22
REMARK    6  A    between atoms: C_22  and  C_23
REMARK    7  A    between atoms: C_23  and  N_24
REMARK                            x       y       z     vdW  Elec       q    Type
REMARK                         _______ _______ _______ _____ _____    ______ ____
ROOT
ATOM      1  O   UNL     1       2.823   7.819  17.990  0.00  0.00    +0.000 OA
ENDROOT
BRANCH   1   2
ATOM      2  C   UNL     1       1.863   8.645  18.494  0.00  0.00    +0.000 A 
ATOM      3  C   UNL     1       1.069   9.588  17.838  0.00  0.00    +0.000 A 
ATOM      4  C   UNL     1       0.142  10.400  18.567  0.00  0.00    +0.000 A 
ATOM      5  C   UNL     1      -0.001  10.284  19.962  0.00  0.00    +0.000 A 
ATOM      6  C   UNL     1      -0.894  11.081  20.862  0.00  0.00    +0.000 A 
ATOM      7  C   UNL     1      -0.808  10.849  22.186  0.00  0.00    +0.000 A 
ATOM      8  C   UNL     1       0.092   9.822  22.788  0.00  0.00    +0.000 A 
ATOM      9  O   UNL     1       0.184   9.671  24.001  0.00  0.00    +0.000 OA
ATOM     10  O   UNL     1       0.820   9.056  21.926  0.00  0.00    +0.000 OA
ATOM     11  C   UNL     1       0.812   9.315  20.555  0.00  0.00    +0.000 A 
ATOM     12  C   UNL     1       1.719   8.516  19.859  0.00  0.00    +0.000 A 
ATOM     13  C   UNL     1      -1.589  11.541  23.253  0.00  0.00    +0.000 C 
ATOM     14  C   UNL     1      -2.523  12.660  22.851  0.00  0.00    +0.000 C 
ATOM     15  C   UNL     1      -2.737  12.892  21.362  0.00  0.00    +0.000 C 
ATOM     16  C   UNL     1      -1.868  12.116  20.340  0.00  0.00    +0.000 C 
ENDBRANCH   1   2
BRANCH   1  17
ATOM     17  C   UNL     1       3.207   6.675  18.734  0.00  0.00    +0.000 C 
BRANCH  17  19
ATOM     18  O   UNL     1       1.815   5.010  17.658  0.00  0.00    +0.000 OA
ATOM     19  C   UNL     1       2.954   5.381  17.936  0.00  0.00    +0.000 C 
ATOM     20  N   UNL     1       4.081   4.666  17.583  0.00  0.00    +0.000 N 
ATOM     21  H   UNL     1       4.981   5.056  17.851  0.00  0.00    +0.000 HD
BRANCH  20  22
ATOM     22  C   UNL     1       4.037   3.385  16.901  0.00  0.00    +0.000 C 
BRANCH  22  23
ATOM     23  C   UNL     1       4.345   2.217  17.839  0.00  0.00    +0.000 C 
BRANCH  23  24
ATOM     24  C   UNL     1       3.076   1.510  18.314  0.00  0.00    +0.000 C 
BRANCH  24  25
ATOM     25  N   UNL     1       2.491   2.128  19.493  0.00  0.00    +0.000 N 
ATOM     26  C   UNL     1       3.279   2.738  20.530  0.00  0.00    +0.000 C 
ATOM     27  C   UNL     1       2.254   3.001  21.617  0.00  0.00    +0.000 C 
ATOM     28  C   UNL     1       0.978   3.303  20.842  0.00  0.00    +0.000 C 
ATOM     29  C   UNL     1       1.153   2.493  19.582  0.00  0.00    +0.000 C 
ATOM     30  O   UNL     1       0.284   2.259  18.762  0.00  0.00    +0.000 OA
ENDBRANCH  24  25
ENDBRANCH  23  24
ENDBRANCH  22  23
ENDBRANCH  20  22
ENDBRANCH  17  19
ENDBRANCH   1  17
TORSDOF 7
ENDMDL
MODEL 3
REMARK VINA RESULT:      -8.2      0.929      1.183
REMARK  Name = 
REMARK  7 active torsions:
REMARK  status: ('A' for Active; 'I' for Inactive)
REMARK    1  A    between atoms: C_2  and  C_3
REMARK    2  A    between atoms: C_3  and  O_4
REMARK    3  A    between atoms: O_4  and  C_5
REMARK    4  A    between atoms: N_20  and  C_21
REMARK    5  A    between atoms: C_21  and  C_22
REMARK    6  A    between atoms: C_22  and  C_23
REMARK    7  A    between atoms: C_23  and  N_24
REMARK                            x       y       z     vdW  Elec       q    Type
REMARK                         _______ _______ _______ _____ _____    ______ ____
ROOT
ATOM      1  O   UNL     1       2.694   7.092  18.148  0.00  0.00    +0.000 OA
ENDROOT
BRANCH   1   2
ATOM      2  C   UNL     1       1.900   8.119  18.564  0.00  0.00    +0.000 A 
ATOM      3  C   UNL     1       1.360   9.178  17.832  0.00  0.00    +0.000 A 
ATOM      4  C   UNL     1       0.582  10.193  18.476  0.00  0.00    +0.000 A 
ATOM      5  C   UNL     1       0.337  10.166  19.861  0.00  0.00    +0.000 A 
ATOM      6  C   UNL     1      -0.420  11.167  20.678  0.00  0.00    +0.000 A 
ATOM      7  C   UNL     1      -0.461  10.977  22.011  0.00  0.00    +0.000 A 
ATOM      8  C   UNL     1       0.168   9.812  22.699  0.00  0.00    +0.000 A 
ATOM      9  O   UNL     1       0.156   9.694  23.919  0.00  0.00    +0.000 OA
ATOM     10  O   UNL     1       0.769   8.877  21.908  0.00  0.00    +0.000 OA
ATOM     11  C   UNL     1       0.895   9.075  20.532  0.00  0.00    +0.000 A 
ATOM     12  C   UNL     1       1.654   8.079  19.920  0.00  0.00    +0.000 A 
ATOM     13  C   UNL     1      -1.141  11.858  23.005  0.00  0.00    +0.000 C 
ATOM     14  C   UNL     1      -1.796  13.129  22.511  0.00  0.00    +0.000 C 
ATOM     15  C   UNL     1      -1.870  13.338  21.006  0.00  0.00    +0.000 C 
ATOM     16  C   UNL     1      -1.124  12.359  20.065  0.00  0.00    +0.000 C 
ENDBRANCH   1   2
BRANCH   1  17
ATOM     17  C   UNL     1       3.952   7.385  17.565  0.00  0.00    +0.000 C 
BRANCH  17  19
ATOM     18  O   UNL     1       5.685   6.076  16.493  0.00  0.00    +0.000 OA
ATOM     19  C   UNL     1       4.754   6.096  17.295  0.00  0.00    +0.000 C 
ATOM     20  N   UNL     1       4.339   4.978  17.989  0.00  0.00    +0.000 N 
ATOM     21  H   UNL     1       3.563   5.093  18.636  0.00  0.00    +0.000 HD
BRANCH  20  22
ATOM     22  C   UNL     1       4.919   3.659  17.805  0.00  0.00    +0.000 C 
BRANCH  22  23
ATOM     23  C   UNL     1       3.875   2.617  17.400  0.00  0.00    +0.000 C 
BRANCH  23  24
ATOM     24  C   UNL     1       3.500   1.697  18.562  0.00  0.00    +0.000 C 
BRANCH  24  25
ATOM     25  N   UNL     1       2.631   2.340  19.536  0.00  0.00    +0.000 N 
ATOM     26  C   UNL     1       3.060   2.677  20.867  0.00  0.00    +0.000 C 
ATOM     27  C   UNL     1       1.764   3.081  21.542  0.00  0.00    +0.000 C 
ATOM     28  C   UNL     1       0.957   3.720  20.420  0.00  0.00    +0.000 C 
ATOM     29  C   UNL     1       1.450   2.989  19.196  0.00  0.00    +0.000 C 
ATOM     30  O   UNL     1       0.933   3.020  18.094  0.00  0.00    +0.000 OA
ENDBRANCH  24  25
ENDBRANCH  23  24
ENDBRANCH  22  23
ENDBRANCH  20  22
ENDBRANCH  17  19
ENDBRANCH   1  17
TORSDOF 7
ENDMDL
MODEL 4
REMARK VINA RESULT:      -8.1      1.555      2.213
REMARK  Name = 
REMARK  7 active torsions:
REMARK  status: ('A' for Active; 'I' for Inactive)
REMARK    1  A    between atoms: C_2  and  C_3
REMARK    2  A    between atoms: C_3  and  O_4
REMARK    3  A    between atoms: O_4  and  C_5
REMARK    4  A    between atoms: N_20  and  C_21
REMARK    5  A    between atoms: C_21  and  C_22
REMARK    6  A    between atoms: C_22  and  C_23
REMARK    7  A    between atoms: C_23  and  N_24
REMARK                            x       y       z     vdW  Elec       q    Type
REMARK                         _______ _______ _______ _____ _____    ______ ____
ROOT
ATOM      1  O   UNL     1       3.169   7.248  17.226  0.00  0.00    +0.000 OA
ENDROOT
BRANCH   1   2
ATOM      2  C   UNL     1       2.494   7.817  18.265  0.00  0.00    +0.000 A 
ATOM      3  C   UNL     1       2.311   7.351  19.568  0.00  0.00    +0.000 A 
ATOM      4  C   UNL     1       1.518   8.086  20.506  0.00  0.00    +0.000 A 
ATOM      5  C   UNL     1       0.894   9.297  20.153  0.00  0.00    +0.000 A 
ATOM      6  C   UNL     1       0.011  10.156  21.004  0.00  0.00    +0.000 A 
ATOM      7  C   UNL     1      -0.544  11.239  20.427  0.00  0.00    +0.000 A 
ATOM      8  C   UNL     1      -0.293  11.643  19.013  0.00  0.00    +0.000 A 
ATOM      9  O   UNL     1      -0.854  12.606  18.503  0.00  0.00    +0.000 OA
ATOM     10  O   UNL     1       0.589  10.884  18.301  0.00  0.00    +0.000 OA
ATOM     11  C   UNL     1       1.127   9.714  18.840  0.00  0.00    +0.000 A 
ATOM     12  C   UNL     1       1.897   9.010  17.915  0.00  0.00    +0.000 A 
ATOM     13  C   UNL     1      -1.464  12.213  21.087  0.00  0.00    +0.000 C 
ATOM     14  C   UNL     1      -1.887  11.951  22.514  0.00  0.00    +0.000 C 
ATOM     15  C   UNL     1      -1.209  10.801  23.245  0.00  0.00    +0.000 C 
ATOM     16  C   UNL     1      -0.271   9.850  22.460  0.00  0.00    +0.000 C 
ENDBRANCH   1   2
BRANCH   1  17
ATOM     17  C   UNL     1       4.583   7.340  17.189  0.00  0.00    +0.000 C 
BRANCH  17  19
ATOM     18  O   UNL     1       6.448   5.958  17.882  0.00  0.00    +0.000 OA
ATOM     19  C   UNL     1       5.238   6.032  17.676  0.00  0.00    +0.000 C 
ATOM     20  N   UNL     1       4.385   4.959  17.837  0.00  0.00    +0.000 N 
ATOM     21  H   UNL     1       3.398   5.118  17.649  0.00  0.00    +0.000 HD
BRANCH  20  22
ATOM     22  C   UNL     1       4.831   3.628  18.210  0.00  0.00    +0.000 C 
BRANCH  22  23
ATOM     23  C   UNL     1       3.981   2.531  17.568  0.00  0.00    +0.000 C 
BRANCH  23  24
ATOM     24  C   UNL     1       3.229   1.702  18.610  0.00  0.00    +0.000 C 
BRANCH  24  25
ATOM     25  N   UNL     1       2.439   2.518  19.519  0.00  0.00    +0.000 N 
ATOM     26  C   UNL     1       1.120   2.993  19.200  0.00  0.00    +0.000 C 
ATOM     27  C   UNL     1       0.836   3.969  20.325  0.00  0.00    +0.000 C 
ATOM     28  C   UNL     1       1.559   3.362  21.519  0.00  0.00    +0.000 C 
ATOM     29  C   UNL     1       2.714   2.635  20.876  0.00  0.00    +0.000 C 
ATOM     30  O   UNL     1       3.680   2.179  21.460  0.00  0.00    +0.000 OA
ENDBRANCH  24  25
ENDBRANCH  23  24
ENDBRANCH  22  23
ENDBRANCH  20  22
ENDBRANCH  17  19
ENDBRANCH   1  17
TORSDOF 7
ENDMDL
MODEL 5
REMARK VINA RESULT:      -8.1      3.113      8.687
REMARK  Name = 
REMARK  7 active torsions:
REMARK  status: ('A' for Active; 'I' for Inactive)
REMARK    1  A    between atoms: C_2  and  C_3
REMARK    2  A    between atoms: C_3  and  O_4
REMARK    3  A    between atoms: O_4  and  C_5
REMARK    4  A    between atoms: N_20  and  C_21
REMARK    5  A    between atoms: C_21  and  C_22
REMARK    6  A    between atoms: C_22  and  C_23
REMARK    7  A    between atoms: C_23  and  N_24
REMARK                            x       y       z     vdW  Elec       q    Type
REMARK                         _______ _______ _______ _____ _____    ______ ____
ROOT
ATOM      1  O   UNL     1       0.629   8.482  21.076  0.00  0.00    +0.000 OA
ENDROOT
BRANCH   1   2
ATOM      2  C   UNL     1       1.484   8.074  20.097  0.00  0.00    +0.000 A 
ATOM      3  C   UNL     1       1.853   8.717  18.913  0.00  0.00    +0.000 A 
ATOM      4  C   UNL     1       2.741   8.089  17.983  0.00  0.00    +0.000 A 
ATOM      5  C   UNL     1       3.270   6.807  18.220  0.00  0.00    +0.000 A 
ATOM      6  C   UNL     1       4.175   6.009  17.332  0.00  0.00    +0.000 A 
ATOM      7  C   UNL     1       4.495   4.763  17.731  0.00  0.00    +0.000 A 
ATOM      8  C   UNL     1       4.032   4.162  19.015  0.00  0.00    +0.000 A 
ATOM      9  O   UNL     1       4.299   3.006  19.325  0.00  0.00    +0.000 OA
ATOM     10  O   UNL     1       3.285   4.955  19.836  0.00  0.00    +0.000 OA
ATOM     11  C   UNL     1       2.873   6.224  19.426  0.00  0.00    +0.000 A 
ATOM     12  C   UNL     1       2.009   6.823  20.343  0.00  0.00    +0.000 A 
ATOM     13  C   UNL     1       5.362   3.799  16.992  0.00  0.00    +0.000 C 
ATOM     14  C   UNL     1       5.890   4.200  15.633  0.00  0.00    +0.000 C 
ATOM     15  C   UNL     1       5.646   5.634  15.183  0.00  0.00    +0.000 C 
ATOM     16  C   UNL     1       4.727   6.549  16.030  0.00  0.00    +0.000 C 
ENDBRANCH   1   2
BRANCH   1  17
ATOM     17  C   UNL     1       1.121   9.294  22.128  0.00  0.00    +0.000 C 
BRANCH  17  19
ATOM     18  O   UNL     1      -0.618  10.289  23.489  0.00  0.00    +0.000 OA
ATOM     19  C   UNL     1       0.109  10.394  22.502  0.00  0.00    +0.000 C 
ATOM     20  N   UNL     1       0.059  11.477  21.648  0.00  0.00    +0.000 N 
ATOM     21  H   UNL     1       0.704  11.479  20.862  0.00  0.00    +0.000 HD
BRANCH  20  22
ATOM     22  C   UNL     1      -0.887  12.570  21.793  0.00  0.00    +0.000 C 
BRANCH  22  23
ATOM     23  C   UNL     1      -2.269  12.219  21.241  0.00  0.00    +0.000 C 
BRANCH  23  24
ATOM     24  C   UNL     1      -2.437  12.661  19.787  0.00  0.00    +0.000 C 
BRANCH  24  25
ATOM     25  N   UNL     1      -2.457  11.544  18.855  0.00  0.00    +0.000 N 
ATOM     26  C   UNL     1      -3.646  11.123  18.164  0.00  0.00    +0.000 C 
ATOM     27  C   UNL     1      -3.216   9.814  17.529  0.00  0.00    +0.000 C 
ATOM     28  C   UNL     1      -1.744  10.036  17.211  0.00  0.00    +0.000 C 
ATOM     29  C   UNL     1      -1.311  11.002  18.286  0.00  0.00    +0.000 C 
ATOM     30  O   UNL     1      -0.161  11.297  18.555  0.00  0.00    +0.000 OA
ENDBRANCH  24  25
ENDBRANCH  23  24
ENDBRANCH  22  23
ENDBRANCH  20  22
ENDBRANCH  17  19
ENDBRANCH   1  17
TORSDOF 7
ENDMDL
MODEL 6
REMARK VINA RESULT:      -7.9      1.809      2.473
REMARK  Name = 
REMARK  7 active torsions:
REMARK  status: ('A' for Active; 'I' for Inactive)
REMARK    1  A    between atoms: C_2  and  C_3
REMARK    2  A    between atoms: C_3  and  O_4
REMARK    3  A    between atoms: O_4  and  C_5
REMARK    4  A    between atoms: N_20  and  C_21
REMARK    5  A    between atoms: C_21  and  C_22
REMARK    6  A    between atoms: C_22  and  C_23
REMARK    7  A    between atoms: C_23  and  N_24
REMARK                            x       y       z     vdW  Elec       q    Type
REMARK                         _______ _______ _______ _____ _____    ______ ____
ROOT
ATOM      1  O   UNL     1       3.268   7.504  16.921  0.00  0.00    +0.000 OA
ENDROOT
BRANCH   1   2
ATOM      2  C   UNL     1       2.605   7.955  18.024  0.00  0.00    +0.000 A 
ATOM      3  C   UNL     1       2.417   7.338  19.262  0.00  0.00    +0.000 A 
ATOM      4  C   UNL     1       1.637   7.968  20.285  0.00  0.00    +0.000 A 
ATOM      5  C   UNL     1       1.032   9.222  20.082  0.00  0.00    +0.000 A 
ATOM      6  C   UNL     1       0.164   9.986  21.033  0.00  0.00    +0.000 A 
ATOM      7  C   UNL     1      -0.375  11.139  20.593  0.00  0.00    +0.000 A 
ATOM      8  C   UNL     1      -0.121  11.705  19.236  0.00  0.00    +0.000 A 
ATOM      9  O   UNL     1      -0.667  12.732  18.847  0.00  0.00    +0.000 OA
ATOM     10  O   UNL     1       0.748  11.024  18.435  0.00  0.00    +0.000 OA
ATOM     11  C   UNL     1       1.269   9.790  18.828  0.00  0.00    +0.000 A 
ATOM     12  C   UNL     1       2.025   9.190  17.822  0.00  0.00    +0.000 A 
ATOM     13  C   UNL     1      -1.278  12.041  21.368  0.00  0.00    +0.000 C 
ATOM     14  C   UNL     1      -1.702  11.616  22.755  0.00  0.00    +0.000 C 
ATOM     15  C   UNL     1      -1.040  10.376  23.341  0.00  0.00    +0.000 C 
ATOM     16  C   UNL     1      -0.119   9.512  22.443  0.00  0.00    +0.000 C 
ENDBRANCH   1   2
BRANCH   1  17
ATOM     17  C   UNL     1       4.684   7.536  16.908  0.00  0.00    +0.000 C 
BRANCH  17  19
ATOM     18  O   UNL     1       6.281   6.029  15.883  0.00  0.00    +0.000 OA
ATOM     19  C   UNL     1       5.269   6.150  16.572  0.00  0.00    +0.000 C 
ATOM     20  N   UNL     1       4.571   5.069  17.071  0.00  0.00    +0.000 N 
ATOM     21  H   UNL     1       3.749   5.268  17.637  0.00  0.00    +0.000 HD
BRANCH  20  22
ATOM     22  C   UNL     1       4.923   3.688  16.793  0.00  0.00    +0.000 C 
BRANCH  22  23
ATOM     23  C   UNL     1       3.838   2.710  17.247  0.00  0.00    +0.000 C 
BRANCH  23  24
ATOM     24  C   UNL     1       2.574   3.431  17.715  0.00  0.00    +0.000 C 
BRANCH  24  25
ATOM     25  N   UNL     1       2.291   3.218  19.126  0.00  0.00    +0.000 N 
ATOM     26  C   UNL     1       3.079   3.799  20.179  0.00  0.00    +0.000 C 
ATOM     27  C   UNL     1       2.550   3.098  21.416  0.00  0.00    +0.000 C 
ATOM     28  C   UNL     1       1.078   2.873  21.100  0.00  0.00    +0.000 C 
ATOM     29  C   UNL     1       1.075   2.736  19.598  0.00  0.00    +0.000 C 
ATOM     30  O   UNL     1       0.145   2.335  18.923  0.00  0.00    +0.000 OA
ENDBRANCH  24  25
ENDBRANCH  23  24
ENDBRANCH  22  23
ENDBRANCH  20  22
ENDBRANCH  17  19
ENDBRANCH   1  17
TORSDOF 7
ENDMDL
MODEL 7
REMARK VINA RESULT:      -7.9      1.799      3.691
REMARK  Name = 
REMARK  7 active torsions:
REMARK  status: ('A' for Active; 'I' for Inactive)
REMARK    1  A    between atoms: C_2  and  C_3
REMARK    2  A    between atoms: C_3  and  O_4
REMARK    3  A    between atoms: O_4  and  C_5
REMARK    4  A    between atoms: N_20  and  C_21
REMARK    5  A    between atoms: C_21  and  C_22
REMARK    6  A    between atoms: C_22  and  C_23
REMARK    7  A    between atoms: C_23  and  N_24
REMARK                            x       y       z     vdW  Elec       q    Type
REMARK                         _______ _______ _______ _____ _____    ______ ____
ROOT
ATOM      1  O   UNL     1       2.977   6.461  19.449  0.00  0.00    +0.000 OA
ENDROOT
BRANCH   1   2
ATOM      2  C   UNL     1       2.216   7.590  19.391  0.00  0.00    +0.000 A 
ATOM      3  C   UNL     1       2.004   8.466  18.324  0.00  0.00    +0.000 A 
ATOM      4  C   UNL     1       1.196   9.636  18.485  0.00  0.00    +0.000 A 
ATOM      5  C   UNL     1       0.590   9.950  19.716  0.00  0.00    +0.000 A 
ATOM      6  C   UNL     1      -0.246  11.146  20.048  0.00  0.00    +0.000 A 
ATOM      7  C   UNL     1      -0.660  11.280  21.323  0.00  0.00    +0.000 A 
ATOM      8  C   UNL     1      -0.364  10.287  22.396  0.00  0.00    +0.000 A 
ATOM      9  O   UNL     1      -0.712  10.464  23.559  0.00  0.00    +0.000 OA
ATOM     10  O   UNL     1       0.323   9.167  22.030  0.00  0.00    +0.000 OA
ATOM     11  C   UNL     1       0.830   9.028  20.738  0.00  0.00    +0.000 A 
ATOM     12  C   UNL     1       1.615   7.883  20.597  0.00  0.00    +0.000 A 
ATOM     13  C   UNL     1      -1.482  12.401  21.868  0.00  0.00    +0.000 C 
ATOM     14  C   UNL     1      -1.844  13.543  20.946  0.00  0.00    +0.000 C 
ATOM     15  C   UNL     1      -1.492  13.392  19.473  0.00  0.00    +0.000 C 
ATOM     16  C   UNL     1      -0.631  12.186  19.018  0.00  0.00    +0.000 C 
ENDBRANCH   1   2
BRANCH   1  17
ATOM     17  C   UNL     1       2.355   5.224  19.750  0.00  0.00    +0.000 C 
BRANCH  17  19
ATOM     18  O   UNL     1       2.897   2.900  19.331  0.00  0.00    +0.000 OA
ATOM     19  C   UNL     1       3.004   4.069  18.963  0.00  0.00    +0.000 C 
ATOM     20  N   UNL     1       3.724   4.437  17.844  0.00  0.00    +0.000 N 
ATOM     21  H   UNL     1       3.750   5.428  17.614  0.00  0.00    +0.000 HD
BRANCH  20  22
ATOM     22  C   UNL     1       4.470   3.499  17.025  0.00  0.00    +0.000 C 
BRANCH  22  23
ATOM     23  C   UNL     1       5.045   4.155  15.769  0.00  0.00    +0.000 C 
BRANCH  23  24
ATOM     24  C   UNL     1       6.566   4.293  15.836  0.00  0.00    +0.000 C 
BRANCH  24  25
ATOM     25  N   UNL     1       7.014   5.061  16.986  0.00  0.00    +0.000 N 
ATOM     26  C   UNL     1       7.937   4.545  17.962  0.00  0.00    +0.000 C 
ATOM     27  C   UNL     1       7.891   5.598  19.053  0.00  0.00    +0.000 C 
ATOM     28  C   UNL     1       7.662   6.896  18.291  0.00  0.00    +0.000 C 
ATOM     29  C   UNL     1       6.882   6.442  17.083  0.00  0.00    +0.000 C 
ATOM     30  O   UNL     1       6.297   7.168  16.301  0.00  0.00    +0.000 OA
ENDBRANCH  24  25
ENDBRANCH  23  24
ENDBRANCH  22  23
ENDBRANCH  20  22
ENDBRANCH  17  19
ENDBRANCH   1  17
TORSDOF 7
ENDMDL
MODEL 8
REMARK VINA RESULT:      -7.8      6.106     10.043
REMARK  Name = 
REMARK  7 active torsions:
REMARK  status: ('A' for Active; 'I' for Inactive)
REMARK    1  A    between atoms: C_2  and  C_3
REMARK    2  A    between atoms: C_3  and  O_4
REMARK    3  A    between atoms: O_4  and  C_5
REMARK    4  A    between atoms: N_20  and  C_21
REMARK    5  A    between atoms: C_21  and  C_22
REMARK    6  A    between atoms: C_22  and  C_23
REMARK    7  A    between atoms: C_23  and  N_24
REMARK                            x       y       z     vdW  Elec       q    Type
REMARK                         _______ _______ _______ _____ _____    ______ ____
ROOT
ATOM      1  O   UNL     1       7.348   7.640  17.057  0.00  0.00    +0.000 OA
ENDROOT
BRANCH   1   2
ATOM      2  C   UNL     1       6.209   6.911  17.225  0.00  0.00    +0.000 A 
ATOM      3  C   UNL     1       4.917   7.161  16.758  0.00  0.00    +0.000 A 
ATOM      4  C   UNL     1       3.834   6.285  17.091  0.00  0.00    +0.000 A 
ATOM      5  C   UNL     1       4.027   5.150  17.899  0.00  0.00    +0.000 A 
ATOM      6  C   UNL     1       2.996   4.167  18.361  0.00  0.00    +0.000 A 
ATOM      7  C   UNL     1       3.399   3.193  19.200  0.00  0.00    +0.000 A 
ATOM      8  C   UNL     1       4.810   3.024  19.653  0.00  0.00    +0.000 A 
ATOM      9  O   UNL     1       5.134   2.157  20.458  0.00  0.00    +0.000 OA
ATOM     10  O   UNL     1       5.733   3.885  19.137  0.00  0.00    +0.000 OA
ATOM     11  C   UNL     1       5.343   4.950  18.323  0.00  0.00    +0.000 A 
ATOM     12  C   UNL     1       6.408   5.793  18.007  0.00  0.00    +0.000 A 
ATOM     13  C   UNL     1       2.535   2.128  19.791  0.00  0.00    +0.000 C 
ATOM     14  C   UNL     1       1.053   2.157  19.496  0.00  0.00    +0.000 C 
ATOM     15  C   UNL     1       0.563   3.171  18.471  0.00  0.00    +0.000 C 
ATOM     16  C   UNL     1       1.548   4.234  17.924  0.00  0.00    +0.000 C 
ENDBRANCH   1   2
BRANCH   1  17
ATOM     17  C   UNL     1       8.213   7.834  18.163  0.00  0.00    +0.000 C 
BRANCH  17  19
ATOM     18  O   UNL     1       8.043  10.193  17.639  0.00  0.00    +0.000 OA
ATOM     19  C   UNL     1       8.494   9.332  18.392  0.00  0.00    +0.000 C 
ATOM     20  N   UNL     1       9.299   9.631  19.473  0.00  0.00    +0.000 N 
ATOM     21  H   UNL     1       9.619   8.852  20.043  0.00  0.00    +0.000 HD
BRANCH  20  22
ATOM     22  C   UNL     1       9.738  10.976  19.798  0.00  0.00    +0.000 C 
BRANCH  22  23
ATOM     23  C   UNL     1      10.474  11.644  18.635  0.00  0.00    +0.000 C 
BRANCH  23  24
ATOM     24  C   UNL     1      11.258  12.877  19.083  0.00  0.00    +0.000 C 
BRANCH  24  25
ATOM     25  N   UNL     1      10.856  14.088  18.385  0.00  0.00    +0.000 N 
ATOM     26  C   UNL     1      10.039  15.106  18.990  0.00  0.00    +0.000 C 
ATOM     27  C   UNL     1       9.704  16.005  17.816  0.00  0.00    +0.000 C 
ATOM     28  C   UNL     1      10.944  15.927  16.937  0.00  0.00    +0.000 C 
ATOM     29  C   UNL     1      11.472  14.544  17.226  0.00  0.00    +0.000 C 
ATOM     30  O   UNL     1      12.333  13.965  16.589  0.00  0.00    +0.000 OA
ENDBRANCH  24  25
ENDBRANCH  23  24
ENDBRANCH  22  23
ENDBRANCH  20  22
ENDBRANCH  17  19
ENDBRANCH   1  17
TORSDOF 7
ENDMDL
MODEL 9
REMARK VINA RESULT:      -7.8      3.226      8.853
REMARK  Name = 
REMARK  7 active torsions:
REMARK  status: ('A' for Active; 'I' for Inactive)
REMARK    1  A    between atoms: C_2  and  C_3
REMARK    2  A    between atoms: C_3  and  O_4
REMARK    3  A    between atoms: O_4  and  C_5
REMARK    4  A    between atoms: N_20  and  C_21
REMARK    5  A    between atoms: C_21  and  C_22
REMARK    6  A    between atoms: C_22  and  C_23
REMARK    7  A    between atoms: C_23  and  N_24
REMARK                            x       y       z     vdW  Elec       q    Type
REMARK                         _______ _______ _______ _____ _____    ______ ____
ROOT
ATOM      1  O   UNL     1       0.680   8.455  21.047  0.00  0.00    +0.000 OA
ENDROOT
BRANCH   1   2
ATOM      2  C   UNL     1       1.533   8.042  20.068  0.00  0.00    +0.000 A 
ATOM      3  C   UNL     1       1.957   8.710  18.917  0.00  0.00    +0.000 A 
ATOM      4  C   UNL     1       2.831   8.074  17.979  0.00  0.00    +0.000 A 
ATOM      5  C   UNL     1       3.291   6.758  18.176  0.00  0.00    +0.000 A 
ATOM      6  C   UNL     1       4.172   5.950  17.274  0.00  0.00    +0.000 A 
ATOM      7  C   UNL     1       4.421   4.676  17.630  0.00  0.00    +0.000 A 
ATOM      8  C   UNL     1       3.903   4.050  18.881  0.00  0.00    +0.000 A 
ATOM      9  O   UNL     1       4.107   2.871  19.151  0.00  0.00    +0.000 OA
ATOM     10  O   UNL     1       3.181   4.848  19.719  0.00  0.00    +0.000 OA
ATOM     11  C   UNL     1       2.841   6.151  19.351  0.00  0.00    +0.000 A 
ATOM     12  C   UNL     1       1.990   6.757  20.275  0.00  0.00    +0.000 A 
ATOM     13  C   UNL     1       5.254   3.697  16.869  0.00  0.00    +0.000 C 
ATOM     14  C   UNL     1       5.829   4.123  15.537  0.00  0.00    +0.000 C 
ATOM     15  C   UNL     1       5.666   5.583  15.139  0.00  0.00    +0.000 C 
ATOM     16  C   UNL     1       4.776   6.511  16.005  0.00  0.00    +0.000 C 
ENDBRANCH   1   2
BRANCH   1  17
ATOM     17  C   UNL     1       1.082   9.500  21.917  0.00  0.00    +0.000 C 
BRANCH  17  19
ATOM     18  O   UNL     1      -0.798   9.827  23.409  0.00  0.00    +0.000 OA
ATOM     19  C   UNL     1      -0.137  10.264  22.469  0.00  0.00    +0.000 C 
ATOM     20  N   UNL     1      -0.445  11.445  21.824  0.00  0.00    +0.000 N 
ATOM     21  H   UNL     1       0.163  11.729  21.060  0.00  0.00    +0.000 HD
BRANCH  20  22
ATOM     22  C   UNL     1      -1.603  12.259  22.149  0.00  0.00    +0.000 C 
BRANCH  22  23
ATOM     23  C   UNL     1      -2.567  12.394  20.970  0.00  0.00    +0.000 C 
BRANCH  23  24
ATOM     24  C   UNL     1      -1.832  12.622  19.649  0.00  0.00    +0.000 C 
BRANCH  24  25
ATOM     25  N   UNL     1      -2.094  11.581  18.669  0.00  0.00    +0.000 N 
ATOM     26  C   UNL     1      -1.167  10.517  18.390  0.00  0.00    +0.000 C 
ATOM     27  C   UNL     1      -1.769   9.863  17.161  0.00  0.00    +0.000 C 
ATOM     28  C   UNL     1      -3.269  10.030  17.364  0.00  0.00    +0.000 C 
ATOM     29  C   UNL     1      -3.358  11.308  18.161  0.00  0.00    +0.000 C 
ATOM     30  O   UNL     1      -4.375  11.944  18.372  0.00  0.00    +0.000 OA
ENDBRANCH  24  25
ENDBRANCH  23  24
ENDBRANCH  22  23
ENDBRANCH  20  22
ENDBRANCH  17  19
ENDBRANCH   1  17
TORSDOF 7
ENDMDL
