MODEL 1
REMARK VINA RESULT:      -8.5      0.000      0.000
REMARK  Name = 
REMARK  4 active torsions:
REMARK  status: ('A' for Active; 'I' for Inactive)
REMARK    1  A    between atoms: C_1  and  C_2
REMARK    2  A    between atoms: C_6  and  C_7
REMARK    3  A    between atoms: C_8  and  C_9
REMARK    4  A    between atoms: C_14  and  C_16
REMARK                            x       y       z     vdW  Elec       q    Type
REMARK                         _______ _______ _______ _____ _____    ______ ____
ROOT
ATOM      1  C   UNL     1       3.179   7.584  17.401  0.00  0.00    +0.000 C 
ATOM      2  C   UNL     1       4.038   6.559  17.465  0.00  0.00    +0.000 C 
ATOM      3  C   UNL     1       4.516   5.814  18.677  0.00  0.00    +0.000 C 
ATOM      4  C   UNL     1       5.962   5.514  18.305  0.00  0.00    +0.000 C 
ATOM      5  N   UNL     1       5.986   5.445  16.851  0.00  0.00    +0.000 N 
ATOM      6  C   UNL     1       7.001   4.757  16.198  0.00  0.00    +0.000 C 
ATOM      7  O   UNL     1       7.900   4.185  16.815  0.00  0.00    +0.000 OA
ATOM      8  C   UNL     1       4.818   6.086  16.274  0.00  0.00    +0.000 C 
ENDROOT
BRANCH   6   9
ATOM      9  C   UNL     1       7.005   4.634  14.709  0.00  0.00    +0.000 A 
ATOM     10  C   UNL     1       7.846   5.487  13.977  0.00  0.00    +0.000 A 
ATOM     11  C   UNL     1       7.922   5.388  12.583  0.00  0.00    +0.000 A 
ATOM     12  C   UNL     1       7.170   4.426  11.912  0.00  0.00    +0.000 A 
ATOM     13  C   UNL     1       6.300   3.613  12.631  0.00  0.00    +0.000 A 
ATOM     14 CL   UNL     1       5.363   2.422  11.815  0.00  0.00    +0.000 Cl
ATOM     15  C   UNL     1       6.182   3.745  14.013  0.00  0.00    +0.000 A 
ENDBRANCH   6   9
BRANCH   1  17
ATOM     16  C   UNL     1       1.824   8.555  19.417  0.00  0.00    +0.000 C 
ATOM     17  C   UNL     1       2.475   8.096  18.519  0.00  0.00    +0.000 C 
BRANCH  16  23
ATOM     18  C   UNL     1      -1.404  11.878  20.547  0.00  0.00    +0.000 C 
ATOM     19  C   UNL     1      -0.527  10.749  21.000  0.00  0.00    +0.000 A 
ATOM     20  C   UNL     1      -0.546  10.321  22.325  0.00  0.00    +0.000 A 
ATOM     21  C   UNL     1       0.248   9.236  22.692  0.00  0.00    +0.000 A 
ATOM     22  C   UNL     1       1.035   8.614  21.734  0.00  0.00    +0.000 A 
ATOM     23  C   UNL     1       1.002   9.115  20.439  0.00  0.00    +0.000 A 
ATOM     24  N   UNL     1       0.239  10.158  20.053  0.00  0.00    +0.000 NA
ENDBRANCH  16  23
ENDBRANCH   1  17
TORSDOF 3
ENDMDL
MODEL 2
REMARK VINA RESULT:      -7.9      1.470      2.170
REMARK  Name = 
REMARK  4 active torsions:
REMARK  status: ('A' for Active; 'I' for Inactive)
REMARK    1  A    between atoms: C_1  and  C_2
REMARK    2  A    between atoms: C_6  and  C_7
REMARK    3  A    between atoms: C_8  and  C_9
REMARK    4  A    between atoms: C_14  and  C_16
REMARK                            x       y       z     vdW  Elec       q    Type
REMARK                         _______ _______ _______ _____ _____    ______ ____
ROOT
ATOM      1  C   UNL     1       2.179   8.528  18.364  0.00  0.00    +0.000 C 
ATOM      2  C   UNL     1       2.590   7.261  18.492  0.00  0.00    +0.000 C 
ATOM      3  C   UNL     1       2.266   6.277  19.577  0.00  0.00    +0.000 C 
ATOM      4  C   UNL     1       3.576   5.512  19.703  0.00  0.00    +0.000 C 
ATOM      5  N   UNL     1       4.200   5.583  18.389  0.00  0.00    +0.000 N 
ATOM      6  C   UNL     1       5.148   4.642  18.011  0.00  0.00    +0.000 C 
ATOM      7  O   UNL     1       5.489   3.725  18.758  0.00  0.00    +0.000 OA
ATOM      8  C   UNL     1       3.631   6.658  17.595  0.00  0.00    +0.000 C 
ENDROOT
BRANCH   6   9
ATOM      9  C   UNL     1       5.753   4.674  16.644  0.00  0.00    +0.000 A 
ATOM     10  C   UNL     1       7.045   5.207  16.505  0.00  0.00    +0.000 A 
ATOM     11  C   UNL     1       7.677   5.224  15.257  0.00  0.00    +0.000 A 
ATOM     12  C   UNL     1       7.030   4.695  14.142  0.00  0.00    +0.000 A 
ATOM     13  C   UNL     1       5.732   4.212  14.269  0.00  0.00    +0.000 A 
ATOM     14 CL   UNL     1       4.920   3.557  12.900  0.00  0.00    +0.000 Cl
ATOM     15  C   UNL     1       5.080   4.241  15.500  0.00  0.00    +0.000 A 
ENDBRANCH   6   9
BRANCH   1  17
ATOM     16  C   UNL     1       0.515   9.703  20.005  0.00  0.00    +0.000 C 
ATOM     17  C   UNL     1       1.246   9.148  19.232  0.00  0.00    +0.000 C 
BRANCH  16  23
ATOM     18  C   UNL     1      -2.511  13.311  20.759  0.00  0.00    +0.000 C 
ATOM     19  C   UNL     1      -1.728  12.166  21.328  0.00  0.00    +0.000 A 
ATOM     20  C   UNL     1      -1.818  11.846  22.681  0.00  0.00    +0.000 A 
ATOM     21  C   UNL     1      -1.112  10.743  23.159  0.00  0.00    +0.000 A 
ATOM     22  C   UNL     1      -0.340   9.996  22.281  0.00  0.00    +0.000 A 
ATOM     23  C   UNL     1      -0.299  10.395  20.950  0.00  0.00    +0.000 A 
ATOM     24  N   UNL     1      -0.976  11.453  20.459  0.00  0.00    +0.000 NA
ENDBRANCH  16  23
ENDBRANCH   1  17
TORSDOF 3
ENDMDL
MODEL 3
REMARK VINA RESULT:      -7.8      1.387      1.836
REMARK  Name = 
REMARK  4 active torsions:
REMARK  status: ('A' for Active; 'I' for Inactive)
REMARK    1  A    between atoms: C_1  and  C_2
REMARK    2  A    between atoms: C_6  and  C_7
REMARK    3  A    between atoms: C_8  and  C_9
REMARK    4  A    between atoms: C_14  and  C_16
REMARK                            x       y       z     vdW  Elec       q    Type
REMARK                         _______ _______ _______ _____ _____    ______ ____
ROOT
ATOM      1  C   UNL     1       2.556   8.095  17.920  0.00  0.00    +0.000 C 
ATOM      2  C   UNL     1       3.241   6.962  18.117  0.00  0.00    +0.000 C 
ATOM      3  C   UNL     1       3.424   6.190  19.391  0.00  0.00    +0.000 C 
ATOM      4  C   UNL     1       4.852   5.681  19.241  0.00  0.00    +0.000 C 
ATOM      5  N   UNL     1       5.080   5.570  17.807  0.00  0.00    +0.000 N 
ATOM      6  C   UNL     1       6.071   4.729  17.317  0.00  0.00    +0.000 C 
ATOM      7  O   UNL     1       6.779   4.054  18.064  0.00  0.00    +0.000 OA
ATOM      8  C   UNL     1       4.112   6.353  17.059  0.00  0.00    +0.000 C 
ENDROOT
BRANCH   6   9
ATOM      9  C   UNL     1       6.276   4.568  15.846  0.00  0.00    +0.000 A 
ATOM     10  C   UNL     1       5.373   3.760  15.136  0.00  0.00    +0.000 A 
ATOM     11  C   UNL     1       5.492   3.608  13.750  0.00  0.00    +0.000 A 
ATOM     12  C   UNL     1       6.505   4.272  13.061  0.00  0.00    +0.000 A 
ATOM     13  C   UNL     1       7.429   5.033  13.769  0.00  0.00    +0.000 A 
ATOM     14 CL   UNL     1       8.686   5.858  12.931  0.00  0.00    +0.000 Cl
ATOM     15  C   UNL     1       7.344   5.145  15.156  0.00  0.00    +0.000 A 
ENDBRANCH   6   9
BRANCH   1  17
ATOM     16  C   UNL     1       1.121   9.206  19.804  0.00  0.00    +0.000 C 
ATOM     17  C   UNL     1       1.775   8.731  18.917  0.00  0.00    +0.000 C 
BRANCH  16  23
ATOM     18  C   UNL     1      -1.890  12.578  21.320  0.00  0.00    +0.000 C 
ATOM     19  C   UNL     1      -1.062  11.371  21.646  0.00  0.00    +0.000 A 
ATOM     20  C   UNL     1      -1.067  10.830  22.929  0.00  0.00    +0.000 A 
ATOM     21  C   UNL     1      -0.323   9.678  23.176  0.00  0.00    +0.000 A 
ATOM     22  C   UNL     1       0.402   9.102  22.142  0.00  0.00    +0.000 A 
ATOM     23  C   UNL     1       0.359   9.716  20.897  0.00  0.00    +0.000 A 
ATOM     24  N   UNL     1      -0.357  10.826  20.627  0.00  0.00    +0.000 NA
ENDBRANCH  16  23
ENDBRANCH   1  17
TORSDOF 3
ENDMDL
MODEL 4
REMARK VINA RESULT:      -7.8      0.656      1.402
REMARK  Name = 
REMARK  4 active torsions:
REMARK  status: ('A' for Active; 'I' for Inactive)
REMARK    1  A    between atoms: C_1  and  C_2
REMARK    2  A    between atoms: C_6  and  C_7
REMARK    3  A    between atoms: C_8  and  C_9
REMARK    4  A    between atoms: C_14  and  C_16
REMARK                            x       y       z     vdW  Elec       q    Type
REMARK                         _______ _______ _______ _____ _____    ______ ____
ROOT
ATOM      1  C   UNL     1       3.071   7.880  17.052  0.00  0.00    +0.000 C 
ATOM      2  C   UNL     1       3.903   6.844  17.212  0.00  0.00    +0.000 C 
ATOM      3  C   UNL     1       4.302   6.154  18.483  0.00  0.00    +0.000 C 
ATOM      4  C   UNL     1       5.759   5.808  18.203  0.00  0.00    +0.000 C 
ATOM      5  N   UNL     1       5.857   5.664  16.757  0.00  0.00    +0.000 N 
ATOM      6  C   UNL     1       6.888   4.925  16.194  0.00  0.00    +0.000 C 
ATOM      7  O   UNL     1       7.742   4.369  16.885  0.00  0.00    +0.000 OA
ATOM      8  C   UNL     1       4.734   6.297  16.089  0.00  0.00    +0.000 C 
ENDROOT
BRANCH   6   9
ATOM      9  C   UNL     1       6.966   4.726  14.715  0.00  0.00    +0.000 A 
ATOM     10  C   UNL     1       7.854   5.533  13.985  0.00  0.00    +0.000 A 
ATOM     11  C   UNL     1       7.999   5.361  12.604  0.00  0.00    +0.000 A 
ATOM     12  C   UNL     1       7.270   4.373  11.945  0.00  0.00    +0.000 A 
ATOM     13  C   UNL     1       6.356   3.606  12.659  0.00  0.00    +0.000 A 
ATOM     14 CL   UNL     1       5.448   2.383  11.857  0.00  0.00    +0.000 Cl
ATOM     15  C   UNL     1       6.170   3.809  14.025  0.00  0.00    +0.000 A 
ENDBRANCH   6   9
BRANCH   1  17
ATOM     16  C   UNL     1       1.666   9.011  18.946  0.00  0.00    +0.000 C 
ATOM     17  C   UNL     1       2.321   8.463  18.104  0.00  0.00    +0.000 C 
BRANCH  16  23
ATOM     18  C   UNL     1       0.258   9.314  23.492  0.00  0.00    +0.000 C 
ATOM     19  C   UNL     1       0.147   9.829  22.088  0.00  0.00    +0.000 A 
ATOM     20  C   UNL     1      -0.690  10.901  21.788  0.00  0.00    +0.000 A 
ATOM     21  C   UNL     1      -0.725  11.380  20.480  0.00  0.00    +0.000 A 
ATOM     22  C   UNL     1       0.070  10.779  19.513  0.00  0.00    +0.000 A 
ATOM     23  C   UNL     1       0.865   9.707  19.899  0.00  0.00    +0.000 A 
ATOM     24  N   UNL     1       0.924   9.227  21.158  0.00  0.00    +0.000 NA
ENDBRANCH  16  23
ENDBRANCH   1  17
TORSDOF 3
ENDMDL
MODEL 5
REMARK VINA RESULT:      -7.7      4.202      6.061
REMARK  Name = 
REMARK  4 active torsions:
REMARK  status: ('A' for Active; 'I' for Inactive)
REMARK    1  A    between atoms: C_1  and  C_2
REMARK    2  A    between atoms: C_6  and  C_7
REMARK    3  A    between atoms: C_8  and  C_9
REMARK    4  A    between atoms: C_14  and  C_16
REMARK                            x       y       z     vdW  Elec       q    Type
REMARK                         _______ _______ _______ _____ _____    ______ ____
ROOT
ATOM      1  C   UNL     1      -0.047   9.047  22.091  0.00  0.00    +0.000 C 
ATOM      2  C   UNL     1       0.810   9.127  21.065  0.00  0.00    +0.000 C 
ATOM      3  C   UNL     1       1.147  10.320  20.220  0.00  0.00    +0.000 C 
ATOM      4  C   UNL     1       1.349   9.682  18.852  0.00  0.00    +0.000 C 
ATOM      5  N   UNL     1       1.792   8.320  19.116  0.00  0.00    +0.000 N 
ATOM      6  C   UNL     1       2.494   7.611  18.151  0.00  0.00    +0.000 C 
ATOM      7  O   UNL     1       2.767   8.100  17.055  0.00  0.00    +0.000 OA
ATOM      8  C   UNL     1       1.475   7.919  20.475  0.00  0.00    +0.000 C 
ENDROOT
BRANCH   6   9
ATOM      9  C   UNL     1       2.999   6.233  18.432  0.00  0.00    +0.000 A 
ATOM     10  C   UNL     1       4.338   6.087  18.828  0.00  0.00    +0.000 A 
ATOM     11  C   UNL     1       4.853   4.825  19.145  0.00  0.00    +0.000 A 
ATOM     12  C   UNL     1       4.030   3.702  19.084  0.00  0.00    +0.000 A 
ATOM     13  C   UNL     1       2.717   3.839  18.646  0.00  0.00    +0.000 A 
ATOM     14 CL   UNL     1       1.690   2.461  18.564  0.00  0.00    +0.000 Cl
ATOM     15  C   UNL     1       2.216   5.086  18.279  0.00  0.00    +0.000 A 
ENDBRANCH   6   9
BRANCH   1  17
ATOM     16  C   UNL     1      -1.361  11.109  23.019  0.00  0.00    +0.000 C 
ATOM     17  C   UNL     1      -0.741  10.159  22.631  0.00  0.00    +0.000 C 
BRANCH  16  23
ATOM     18  C   UNL     1      -5.660  12.746  24.277  0.00  0.00    +0.000 C 
ATOM     19  C   UNL     1      -4.219  13.044  23.987  0.00  0.00    +0.000 A 
ATOM     20  C   UNL     1      -3.722  14.339  24.109  0.00  0.00    +0.000 A 
ATOM     21  C   UNL     1      -2.366  14.563  23.879  0.00  0.00    +0.000 A 
ATOM     22  C   UNL     1      -1.550  13.496  23.533  0.00  0.00    +0.000 A 
ATOM     23  C   UNL     1      -2.133  12.240  23.421  0.00  0.00    +0.000 A 
ATOM     24  N   UNL     1      -3.439  11.992  23.645  0.00  0.00    +0.000 NA
ENDBRANCH  16  23
ENDBRANCH   1  17
TORSDOF 3
ENDMDL
MODEL 6
REMARK VINA RESULT:      -7.6      0.988      1.162
REMARK  Name = 
REMARK  4 active torsions:
REMARK  status: ('A' for Active; 'I' for Inactive)
REMARK    1  A    between atoms: C_1  and  C_2
REMARK    2  A    between atoms: C_6  and  C_7
REMARK    3  A    between atoms: C_8  and  C_9
REMARK    4  A    between atoms: C_14  and  C_16
REMARK                            x       y       z     vdW  Elec       q    Type
REMARK                         _______ _______ _______ _____ _____    ______ ____
ROOT
ATOM      1  C   UNL     1       2.646   8.184  17.909  0.00  0.00    +0.000 C 
ATOM      2  C   UNL     1       3.250   6.996  18.033  0.00  0.00    +0.000 C 
ATOM      3  C   UNL     1       3.317   6.101  19.236  0.00  0.00    +0.000 C 
ATOM      4  C   UNL     1       4.717   5.516  19.109  0.00  0.00    +0.000 C 
ATOM      5  N   UNL     1       5.017   5.522  17.684  0.00  0.00    +0.000 N 
ATOM      6  C   UNL     1       5.981   4.667  17.167  0.00  0.00    +0.000 C 
ATOM      7  O   UNL     1       6.605   3.882  17.881  0.00  0.00    +0.000 OA
ATOM      8  C   UNL     1       4.141   6.430  16.966  0.00  0.00    +0.000 C 
ENDROOT
BRANCH   6   9
ATOM      9  C   UNL     1       6.258   4.627  15.699  0.00  0.00    +0.000 A 
ATOM     10  C   UNL     1       7.458   5.189  15.235  0.00  0.00    +0.000 A 
ATOM     11  C   UNL     1       7.789   5.142  13.877  0.00  0.00    +0.000 A 
ATOM     12  C   UNL     1       6.930   4.520  12.973  0.00  0.00    +0.000 A 
ATOM     13  C   UNL     1       5.719   4.006  13.423  0.00  0.00    +0.000 A 
ATOM     14 CL   UNL     1       4.647   3.235  12.317  0.00  0.00    +0.000 Cl
ATOM     15  C   UNL     1       5.362   4.097  14.767  0.00  0.00    +0.000 A 
ENDBRANCH   6   9
BRANCH   1  17
ATOM     16  C   UNL     1       1.188   9.213  19.821  0.00  0.00    +0.000 C 
ATOM     17  C   UNL     1       1.851   8.775  18.922  0.00  0.00    +0.000 C 
BRANCH  16  23
ATOM     18  C   UNL     1      -1.961  12.425  21.403  0.00  0.00    +0.000 C 
ATOM     19  C   UNL     1      -1.071  11.258  21.709  0.00  0.00    +0.000 A 
ATOM     20  C   UNL     1      -1.031  10.710  22.989  0.00  0.00    +0.000 A 
ATOM     21  C   UNL     1      -0.228   9.594  23.217  0.00  0.00    +0.000 A 
ATOM     22  C   UNL     1       0.509   9.061  22.169  0.00  0.00    +0.000 A 
ATOM     23  C   UNL     1       0.418   9.679  20.928  0.00  0.00    +0.000 A 
ATOM     24  N   UNL     1      -0.355  10.755  20.677  0.00  0.00    +0.000 NA
ENDBRANCH  16  23
ENDBRANCH   1  17
TORSDOF 3
ENDMDL
MODEL 7
REMARK VINA RESULT:      -7.5      4.199      6.010
REMARK  Name = 
REMARK  4 active torsions:
REMARK  status: ('A' for Active; 'I' for Inactive)
REMARK    1  A    between atoms: C_1  and  C_2
REMARK    2  A    between atoms: C_6  and  C_7
REMARK    3  A    between atoms: C_8  and  C_9
REMARK    4  A    between atoms: C_14  and  C_16
REMARK                            x       y       z     vdW  Elec       q    Type
REMARK                         _______ _______ _______ _____ _____    ______ ____
ROOT
ATOM      1  C   UNL     1      -0.055   8.986  22.092  0.00  0.00    +0.000 C 
ATOM      2  C   UNL     1       0.813   9.065  21.076  0.00  0.00    +0.000 C 
ATOM      3  C   UNL     1       1.185  10.265  20.256  0.00  0.00    +0.000 C 
ATOM      4  C   UNL     1       1.387   9.647  18.878  0.00  0.00    +0.000 C 
ATOM      5  N   UNL     1       1.796   8.271  19.122  0.00  0.00    +0.000 N 
ATOM      6  C   UNL     1       2.491   7.563  18.151  0.00  0.00    +0.000 C 
ATOM      7  O   UNL     1       2.787   8.065  17.067  0.00  0.00    +0.000 OA
ATOM      8  C   UNL     1       1.457   7.853  20.471  0.00  0.00    +0.000 C 
ENDROOT
BRANCH   6   9
ATOM      9  C   UNL     1       2.963   6.169  18.412  0.00  0.00    +0.000 A 
ATOM     10  C   UNL     1       4.294   5.986  18.821  0.00  0.00    +0.000 A 
ATOM     11  C   UNL     1       4.777   4.708  19.120  0.00  0.00    +0.000 A 
ATOM     12  C   UNL     1       3.930   3.605  19.029  0.00  0.00    +0.000 A 
ATOM     13  C   UNL     1       2.626   3.779  18.578  0.00  0.00    +0.000 A 
ATOM     14 CL   UNL     1       1.569   2.425  18.459  0.00  0.00    +0.000 Cl
ATOM     15  C   UNL     1       2.157   5.043  18.229  0.00  0.00    +0.000 A 
ENDBRANCH   6   9
BRANCH   1  17
ATOM     16  C   UNL     1      -1.301  11.080  23.043  0.00  0.00    +0.000 C 
ATOM     17  C   UNL     1      -0.729  10.103  22.645  0.00  0.00    +0.000 C 
BRANCH  16  23
ATOM     18  C   UNL     1      -0.944  15.711  24.124  0.00  0.00    +0.000 C 
ATOM     19  C   UNL     1      -1.811  14.492  24.017  0.00  0.00    +0.000 A 
ATOM     20  C   UNL     1      -3.171  14.558  24.309  0.00  0.00    +0.000 A 
ATOM     21  C   UNL     1      -3.949  13.413  24.149  0.00  0.00    +0.000 A 
ATOM     22  C   UNL     1      -3.352  12.241  23.706  0.00  0.00    +0.000 A 
ATOM     23  C   UNL     1      -1.987  12.263  23.451  0.00  0.00    +0.000 A 
ATOM     24  N   UNL     1      -1.211  13.357  23.591  0.00  0.00    +0.000 NA
ENDBRANCH  16  23
ENDBRANCH   1  17
TORSDOF 3
ENDMDL
MODEL 8
REMARK VINA RESULT:      -7.4      8.905     11.103
REMARK  Name = 
REMARK  4 active torsions:
REMARK  status: ('A' for Active; 'I' for Inactive)
REMARK    1  A    between atoms: C_1  and  C_2
REMARK    2  A    between atoms: C_6  and  C_7
REMARK    3  A    between atoms: C_8  and  C_9
REMARK    4  A    between atoms: C_14  and  C_16
REMARK                            x       y       z     vdW  Elec       q    Type
REMARK                         _______ _______ _______ _____ _____    ______ ____
ROOT
ATOM      1  C   UNL     1       8.950  11.035  18.215  0.00  0.00    +0.000 C 
ATOM      2  C   UNL     1       9.365  11.624  19.343  0.00  0.00    +0.000 C 
ATOM      3  C   UNL     1       9.373  11.072  20.738  0.00  0.00    +0.000 C 
ATOM      4  C   UNL     1       9.050  12.311  21.562  0.00  0.00    +0.000 C 
ATOM      5  N   UNL     1       9.550  13.438  20.788  0.00  0.00    +0.000 N 
ATOM      6  C   UNL     1       9.839  14.644  21.412  0.00  0.00    +0.000 C 
ATOM      7  O   UNL     1       9.691  14.802  22.624  0.00  0.00    +0.000 OA
ATOM      8  C   UNL     1       9.757  13.071  19.399  0.00  0.00    +0.000 C 
ENDROOT
BRANCH   6   9
ATOM      9  C   UNL     1      10.404  15.790  20.636  0.00  0.00    +0.000 A 
ATOM     10  C   UNL     1      11.740  16.154  20.870  0.00  0.00    +0.000 A 
ATOM     11  C   UNL     1      12.333  17.191  20.141  0.00  0.00    +0.000 A 
ATOM     12  C   UNL     1      11.601  17.861  19.163  0.00  0.00    +0.000 A 
ATOM     13  C   UNL     1      10.264  17.534  18.964  0.00  0.00    +0.000 A 
ATOM     14 CL   UNL     1       9.348  18.355  17.761  0.00  0.00    +0.000 Cl
ATOM     15  C   UNL     1       9.655  16.538  19.724  0.00  0.00    +0.000 A 
ENDBRANCH   6   9
BRANCH   1  17
ATOM     16  C   UNL     1       8.161   8.550  18.002  0.00  0.00    +0.000 C 
ATOM     17  C   UNL     1       8.512   9.689  18.140  0.00  0.00    +0.000 C 
BRANCH  16  23
ATOM     18  C   UNL     1       5.915   5.495  15.111  0.00  0.00    +0.000 C 
ATOM     19  C   UNL     1       6.644   5.725  16.401  0.00  0.00    +0.000 A 
ATOM     20  C   UNL     1       6.890   4.670  17.277  0.00  0.00    +0.000 A 
ATOM     21  C   UNL     1       7.615   4.919  18.440  0.00  0.00    +0.000 A 
ATOM     22  C   UNL     1       8.070   6.204  18.697  0.00  0.00    +0.000 A 
ATOM     23  C   UNL     1       7.768   7.198  17.775  0.00  0.00    +0.000 A 
ATOM     24  N   UNL     1       7.075   6.986  16.638  0.00  0.00    +0.000 NA
ENDBRANCH  16  23
ENDBRANCH   1  17
TORSDOF 3
ENDMDL
MODEL 9
REMARK VINA RESULT:      -7.4      8.744     10.942
REMARK  Name = 
REMARK  4 active torsions:
REMARK  status: ('A' for Active; 'I' for Inactive)
REMARK    1  A    between atoms: C_1  and  C_2
REMARK    2  A    between atoms: C_6  and  C_7
REMARK    3  A    between atoms: C_8  and  C_9
REMARK    4  A    between atoms: C_14  and  C_16
REMARK                            x       y       z     vdW  Elec       q    Type
REMARK                         _______ _______ _______ _____ _____    ______ ____
ROOT
ATOM      1  C   UNL     1       8.257  11.042  17.865  0.00  0.00    +0.000 C 
ATOM      2  C   UNL     1       9.415  11.665  18.115  0.00  0.00    +0.000 C 
ATOM      3  C   UNL     1      10.725  11.068  18.538  0.00  0.00    +0.000 C 
ATOM      4  C   UNL     1      11.263  12.139  19.478  0.00  0.00    +0.000 C 
ATOM      5  N   UNL     1      10.688  13.394  19.013  0.00  0.00    +0.000 N 
ATOM      6  C   UNL     1      11.296  14.603  19.326  0.00  0.00    +0.000 C 
ATOM      7  O   UNL     1      12.328  14.658  19.993  0.00  0.00    +0.000 OA
ATOM      8  C   UNL     1       9.531  13.160  18.168  0.00  0.00    +0.000 C 
ENDROOT
BRANCH   6   9
ATOM      9  C   UNL     1      10.743  15.891  18.808  0.00  0.00    +0.000 A 
ATOM     10  C   UNL     1      11.546  16.658  17.948  0.00  0.00    +0.000 A 
ATOM     11  C   UNL     1      11.064  17.851  17.399  0.00  0.00    +0.000 A 
ATOM     12  C   UNL     1       9.772  18.280  17.694  0.00  0.00    +0.000 A 
ATOM     13  C   UNL     1       8.993  17.547  18.583  0.00  0.00    +0.000 A 
ATOM     14 CL   UNL     1       7.395  18.066  18.957  0.00  0.00    +0.000 Cl
ATOM     15  C   UNL     1       9.489  16.386  19.172  0.00  0.00    +0.000 A 
ENDBRANCH   6   9
BRANCH   1  17
ATOM     16  C   UNL     1       7.941   8.447  17.803  0.00  0.00    +0.000 C 
ATOM     17  C   UNL     1       8.099   9.634  17.870  0.00  0.00    +0.000 C 
BRANCH  16  23
ATOM     18  C   UNL     1       6.861   4.875  14.833  0.00  0.00    +0.000 C 
ATOM     19  C   UNL     1       7.175   5.317  16.231  0.00  0.00    +0.000 A 
ATOM     20  C   UNL     1       7.249   4.393  17.270  0.00  0.00    +0.000 A 
ATOM     21  C   UNL     1       7.593   4.840  18.544  0.00  0.00    +0.000 A 
ATOM     22  C   UNL     1       7.851   6.189  18.746  0.00  0.00    +0.000 A 
ATOM     23  C   UNL     1       7.741   7.042  17.655  0.00  0.00    +0.000 A 
ATOM     24  N   UNL     1       7.417   6.637  16.410  0.00  0.00    +0.000 NA
ENDBRANCH  16  23
ENDBRANCH   1  17
TORSDOF 3
ENDMDL
