MODEL 1
REMARK VINA RESULT:      -6.9      0.000      0.000
REMARK  Name = 
REMARK  14 active torsions:
REMARK  status: ('A' for Active; 'I' for Inactive)
REMARK    1  A    between atoms: C_1  and  C_2
REMARK    2  A    between atoms: C_2  and  C_3
REMARK    3  A    between atoms: C_3  and  C_4
REMARK    4  A    between atoms: C_4  and  C_5
REMARK    5  A    between atoms: C_5  and  C_6
REMARK    6  A    between atoms: C_6  and  C_7
REMARK    7  A    between atoms: C_7  and  C_8
REMARK    8  A    between atoms: C_8  and  C_9
REMARK    9  A    between atoms: C_9  and  C_10
REMARK   10  A    between atoms: C_10  and  C_11
REMARK   11  A    between atoms: C_11  and  C_12
REMARK   12  A    between atoms: C_12  and  C_13
REMARK   13  A    between atoms: C_13  and  C_14
REMARK   14  A    between atoms: C_16  and  O_17
REMARK                            x       y       z     vdW  Elec       q    Type
REMARK                         _______ _______ _______ _____ _____    ______ ____
ROOT
ATOM      1  C   UNL     1       7.332   7.056  17.759  0.00  0.00    +0.000 C 
ATOM      2  C   UNL     1       8.298   6.692  18.900  0.00  0.00    +0.000 C 
ATOM      3  C   UNL     1       8.067   5.257  19.364  0.00  0.00    +0.000 C 
ATOM      4  C   UNL     1       6.584   5.069  19.718  0.00  0.00    +0.000 C 
ATOM      5  C   UNL     1       5.658   5.433  18.526  0.00  0.00    +0.000 C 
ATOM      6  C   UNL     1       5.840   4.451  17.371  0.00  0.00    +0.000 C 
ATOM      7  C   UNL     1       4.464   3.990  16.980  0.00  0.00    +0.000 C 
ATOM      8  C   UNL     1       3.571   4.302  18.169  0.00  0.00    +0.000 C 
ATOM      9  C   UNL     1       3.344   3.096  19.082  0.00  0.00    +0.000 C 
ATOM     10  C   UNL     1       2.571   2.106  18.591  0.00  0.00    +0.000 C 
ATOM     11  C   UNL     1       1.157   2.606  18.460  0.00  0.00    +0.000 C 
ATOM     12  O   UNL     1       0.187   1.967  18.797  0.00  0.00    +0.000 OA
ATOM     13  C   UNL     1       1.068   3.945  17.772  0.00  0.00    +0.000 C 
ATOM     14  C   UNL     1       2.171   4.728  17.663  0.00  0.00    +0.000 C 
ATOM     15  O   UNL     1       4.252   5.332  18.919  0.00  0.00    +0.000 OA
ATOM     16  O   UNL     1       5.952   6.786  18.110  0.00  0.00    +0.000 OA
ENDROOT
BRANCH   3  17
ATOM     17  O   UNL     1       8.916   4.954  20.470  0.00  0.00    +0.000 OA
ATOM     18  H   UNL     1       8.367   4.710  21.236  0.00  0.00    +0.000 HD
ENDBRANCH   3  17
BRANCH   1  19
ATOM     19  C   UNL     1       7.511   8.539  17.339  0.00  0.00    +0.000 C 
BRANCH  19  20
ATOM     20  C   UNL     1       8.524   9.298  18.209  0.00  0.00    +0.000 C 
BRANCH  20  21
ATOM     21  C   UNL     1       8.728  10.755  17.782  0.00  0.00    +0.000 C 
BRANCH  21  22
ATOM     22  C   UNL     1       9.947  11.346  18.498  0.00  0.00    +0.000 C 
BRANCH  22  23
ATOM     23  C   UNL     1      10.827  12.121  17.527  0.00  0.00    +0.000 C 
BRANCH  23  24
ATOM     24  C   UNL     1      10.613  13.624  17.677  0.00  0.00    +0.000 C 
BRANCH  24  25
ATOM     25  C   UNL     1      10.995  14.060  19.085  0.00  0.00    +0.000 C 
BRANCH  25  26
ATOM     26  C   UNL     1      10.250  15.327  19.478  0.00  0.00    +0.000 C 
BRANCH  26  27
ATOM     27  C   UNL     1       9.530  15.127  20.805  0.00  0.00    +0.000 C 
BRANCH  27  28
ATOM     28  C   UNL     1       8.914  13.736  20.867  0.00  0.00    +0.000 C 
BRANCH  28  29
ATOM     29  C   UNL     1       9.235  13.065  22.197  0.00  0.00    +0.000 C 
BRANCH  29  31
ATOM     30  C   UNL     1       8.110  11.604  23.897  0.00  0.00    +0.000 C 
ATOM     31  C   UNL     1       8.334  11.856  22.418  0.00  0.00    +0.000 C 
ENDBRANCH  29  31
ENDBRANCH  28  29
ENDBRANCH  27  28
ENDBRANCH  26  27
ENDBRANCH  25  26
ENDBRANCH  24  25
ENDBRANCH  23  24
ENDBRANCH  22  23
ENDBRANCH  21  22
ENDBRANCH  20  21
ENDBRANCH  19  20
ENDBRANCH   1  19
TORSDOF 13
ENDMDL
MODEL 2
REMARK VINA RESULT:      -6.8      1.496      2.347
REMARK  Name = 
REMARK  14 active torsions:
REMARK  status: ('A' for Active; 'I' for Inactive)
REMARK    1  A    between atoms: C_1  and  C_2
REMARK    2  A    between atoms: C_2  and  C_3
REMARK    3  A    between atoms: C_3  and  C_4
REMARK    4  A    between atoms: C_4  and  C_5
REMARK    5  A    between atoms: C_5  and  C_6
REMARK    6  A    between atoms: C_6  and  C_7
REMARK    7  A    between atoms: C_7  and  C_8
REMARK    8  A    between atoms: C_8  and  C_9
REMARK    9  A    between atoms: C_9  and  C_10
REMARK   10  A    between atoms: C_10  and  C_11
REMARK   11  A    between atoms: C_11  and  C_12
REMARK   12  A    between atoms: C_12  and  C_13
REMARK   13  A    between atoms: C_13  and  C_14
REMARK   14  A    between atoms: C_16  and  O_17
REMARK                            x       y       z     vdW  Elec       q    Type
REMARK                         _______ _______ _______ _____ _____    ______ ____
ROOT
ATOM      1  C   UNL     1       6.967   7.120  17.466  0.00  0.00    +0.000 C 
ATOM      2  C   UNL     1       7.515   6.480  16.178  0.00  0.00    +0.000 C 
ATOM      3  C   UNL     1       6.405   5.756  15.422  0.00  0.00    +0.000 C 
ATOM      4  C   UNL     1       5.710   4.764  16.366  0.00  0.00    +0.000 C 
ATOM      5  C   UNL     1       5.162   5.467  17.638  0.00  0.00    +0.000 C 
ATOM      6  C   UNL     1       4.027   6.425  17.286  0.00  0.00    +0.000 C 
ATOM      7  C   UNL     1       2.889   6.099  18.213  0.00  0.00    +0.000 C 
ATOM      8  C   UNL     1       3.169   4.700  18.733  0.00  0.00    +0.000 C 
ATOM      9  C   UNL     1       2.408   3.613  17.969  0.00  0.00    +0.000 C 
ATOM     10  C   UNL     1       1.074   3.563  18.162  0.00  0.00    +0.000 C 
ATOM     11  C   UNL     1       0.799   3.132  19.578  0.00  0.00    +0.000 C 
ATOM     12  O   UNL     1      -0.039   2.313  19.877  0.00  0.00    +0.000 OA
ATOM     13  C   UNL     1       1.606   3.899  20.595  0.00  0.00    +0.000 C 
ATOM     14  C   UNL     1       2.703   4.595  20.206  0.00  0.00    +0.000 C 
ATOM     15  O   UNL     1       4.587   4.486  18.558  0.00  0.00    +0.000 OA
ATOM     16  O   UNL     1       6.251   6.164  18.285  0.00  0.00    +0.000 OA
ENDROOT
BRANCH   3  17
ATOM     17  O   UNL     1       6.937   5.105  14.270  0.00  0.00    +0.000 OA
ATOM     18  H   UNL     1       7.323   4.251  14.536  0.00  0.00    +0.000 HD
ENDBRANCH   3  17
BRANCH   1  19
ATOM     19  C   UNL     1       8.108   7.790  18.276  0.00  0.00    +0.000 C 
BRANCH  19  20
ATOM     20  C   UNL     1       8.299   9.278  17.941  0.00  0.00    +0.000 C 
BRANCH  20  21
ATOM     21  C   UNL     1       9.091  10.048  19.002  0.00  0.00    +0.000 C 
BRANCH  21  22
ATOM     22  C   UNL     1       9.374  11.472  18.511  0.00  0.00    +0.000 C 
BRANCH  22  23
ATOM     23  C   UNL     1      10.685  11.530  17.738  0.00  0.00    +0.000 C 
BRANCH  23  24
ATOM     24  C   UNL     1      10.990  12.955  17.287  0.00  0.00    +0.000 C 
BRANCH  24  25
ATOM     25  C   UNL     1      12.329  13.401  17.858  0.00  0.00    +0.000 C 
BRANCH  25  26
ATOM     26  C   UNL     1      12.185  13.799  19.320  0.00  0.00    +0.000 C 
BRANCH  26  27
ATOM     27  C   UNL     1      10.949  14.668  19.511  0.00  0.00    +0.000 C 
BRANCH  27  28
ATOM     28  C   UNL     1      10.769  15.013  20.983  0.00  0.00    +0.000 C 
BRANCH  28  29
ATOM     29  C   UNL     1       9.291  15.061  21.348  0.00  0.00    +0.000 C 
BRANCH  29  31
ATOM     30  C   UNL     1       9.079  12.621  21.888  0.00  0.00    +0.000 C 
ATOM     31  C   UNL     1       8.972  14.034  22.429  0.00  0.00    +0.000 C 
ENDBRANCH  29  31
ENDBRANCH  28  29
ENDBRANCH  27  28
ENDBRANCH  26  27
ENDBRANCH  25  26
ENDBRANCH  24  25
ENDBRANCH  23  24
ENDBRANCH  22  23
ENDBRANCH  21  22
ENDBRANCH  20  21
ENDBRANCH  19  20
ENDBRANCH   1  19
TORSDOF 13
ENDMDL
MODEL 3
REMARK VINA RESULT:      -6.7      5.960     10.856
REMARK  Name = 
REMARK  14 active torsions:
REMARK  status: ('A' for Active; 'I' for Inactive)
REMARK    1  A    between atoms: C_1  and  C_2
REMARK    2  A    between atoms: C_2  and  C_3
REMARK    3  A    between atoms: C_3  and  C_4
REMARK    4  A    between atoms: C_4  and  C_5
REMARK    5  A    between atoms: C_5  and  C_6
REMARK    6  A    between atoms: C_6  and  C_7
REMARK    7  A    between atoms: C_7  and  C_8
REMARK    8  A    between atoms: C_8  and  C_9
REMARK    9  A    between atoms: C_9  and  C_10
REMARK   10  A    between atoms: C_10  and  C_11
REMARK   11  A    between atoms: C_11  and  C_12
REMARK   12  A    between atoms: C_12  and  C_13
REMARK   13  A    between atoms: C_13  and  C_14
REMARK   14  A    between atoms: C_16  and  O_17
REMARK                            x       y       z     vdW  Elec       q    Type
REMARK                         _______ _______ _______ _____ _____    ______ ____
ROOT
ATOM      1  C   UNL     1       0.931   9.963  18.584  0.00  0.00    +0.000 C 
ATOM      2  C   UNL     1       0.766   9.312  19.969  0.00  0.00    +0.000 C 
ATOM      3  C   UNL     1       0.297  10.339  20.994  0.00  0.00    +0.000 C 
ATOM      4  C   UNL     1       1.247  11.544  20.980  0.00  0.00    +0.000 C 
ATOM      5  C   UNL     1       1.361  12.171  19.563  0.00  0.00    +0.000 C 
ATOM      6  C   UNL     1       0.037  12.801  19.137  0.00  0.00    +0.000 C 
ATOM      7  C   UNL     1       0.357  14.193  18.668  0.00  0.00    +0.000 C 
ATOM      8  C   UNL     1       1.716  14.525  19.260  0.00  0.00    +0.000 C 
ATOM      9  C   UNL     1       1.624  15.348  20.546  0.00  0.00    +0.000 C 
ATOM     10  C   UNL     1       1.219  16.627  20.416  0.00  0.00    +0.000 C 
ATOM     11  C   UNL     1       2.278  17.406  19.681  0.00  0.00    +0.000 C 
ATOM     12  O   UNL     1       2.649  18.508  20.012  0.00  0.00    +0.000 OA
ATOM     13  C   UNL     1       2.758  16.712  18.431  0.00  0.00    +0.000 C 
ATOM     14  C   UNL     1       2.518  15.388  18.254  0.00  0.00    +0.000 C 
ATOM     15  O   UNL     1       2.340  13.258  19.560  0.00  0.00    +0.000 OA
ATOM     16  O   UNL     1       1.771  11.142  18.635  0.00  0.00    +0.000 OA
ENDROOT
BRANCH   3  17
ATOM     17  O   UNL     1       0.218   9.743  22.288  0.00  0.00    +0.000 OA
ATOM     18  H   UNL     1       0.783   8.950  22.308  0.00  0.00    +0.000 HD
ENDBRANCH   3  17
BRANCH   1  19
ATOM     19  C   UNL     1       1.484   8.939  17.557  0.00  0.00    +0.000 C 
BRANCH  19  20
ATOM     20  C   UNL     1       2.160   7.725  18.213  0.00  0.00    +0.000 C 
BRANCH  20  21
ATOM     21  C   UNL     1       3.685   7.719  18.068  0.00  0.00    +0.000 C 
BRANCH  21  22
ATOM     22  C   UNL     1       4.133   6.467  17.307  0.00  0.00    +0.000 C 
BRANCH  22  23
ATOM     23  C   UNL     1       4.701   5.425  18.261  0.00  0.00    +0.000 C 
BRANCH  23  24
ATOM     24  C   UNL     1       4.860   4.077  17.565  0.00  0.00    +0.000 C 
BRANCH  24  25
ATOM     25  C   UNL     1       3.795   3.110  18.064  0.00  0.00    +0.000 C 
BRANCH  25  26
ATOM     26  C   UNL     1       2.556   3.173  17.183  0.00  0.00    +0.000 C 
BRANCH  26  27
ATOM     27  C   UNL     1       1.459   3.977  17.868  0.00  0.00    +0.000 C 
BRANCH  27  28
ATOM     28  C   UNL     1       1.069   3.321  19.186  0.00  0.00    +0.000 C 
BRANCH  28  29
ATOM     29  C   UNL     1       0.998   4.357  20.301  0.00  0.00    +0.000 C 
BRANCH  29  31
ATOM     30  C   UNL     1       2.442   2.802  21.638  0.00  0.00    +0.000 C 
ATOM     31  C   UNL     1       2.211   4.241  21.218  0.00  0.00    +0.000 C 
ENDBRANCH  29  31
ENDBRANCH  28  29
ENDBRANCH  27  28
ENDBRANCH  26  27
ENDBRANCH  25  26
ENDBRANCH  24  25
ENDBRANCH  23  24
ENDBRANCH  22  23
ENDBRANCH  21  22
ENDBRANCH  20  21
ENDBRANCH  19  20
ENDBRANCH   1  19
TORSDOF 13
ENDMDL
MODEL 4
REMARK VINA RESULT:      -6.7      1.921      2.867
REMARK  Name = 
REMARK  14 active torsions:
REMARK  status: ('A' for Active; 'I' for Inactive)
REMARK    1  A    between atoms: C_1  and  C_2
REMARK    2  A    between atoms: C_2  and  C_3
REMARK    3  A    between atoms: C_3  and  C_4
REMARK    4  A    between atoms: C_4  and  C_5
REMARK    5  A    between atoms: C_5  and  C_6
REMARK    6  A    between atoms: C_6  and  C_7
REMARK    7  A    between atoms: C_7  and  C_8
REMARK    8  A    between atoms: C_8  and  C_9
REMARK    9  A    between atoms: C_9  and  C_10
REMARK   10  A    between atoms: C_10  and  C_11
REMARK   11  A    between atoms: C_11  and  C_12
REMARK   12  A    between atoms: C_12  and  C_13
REMARK   13  A    between atoms: C_13  and  C_14
REMARK   14  A    between atoms: C_16  and  O_17
REMARK                            x       y       z     vdW  Elec       q    Type
REMARK                         _______ _______ _______ _____ _____    ______ ____
ROOT
ATOM      1  C   UNL     1       7.239   7.290  17.609  0.00  0.00    +0.000 C 
ATOM      2  C   UNL     1       7.864   6.632  16.366  0.00  0.00    +0.000 C 
ATOM      3  C   UNL     1       6.805   5.882  15.564  0.00  0.00    +0.000 C 
ATOM      4  C   UNL     1       6.067   4.901  16.486  0.00  0.00    +0.000 C 
ATOM      5  C   UNL     1       5.442   5.622  17.712  0.00  0.00    +0.000 C 
ATOM      6  C   UNL     1       4.320   6.563  17.279  0.00  0.00    +0.000 C 
ATOM      7  C   UNL     1       3.135   6.243  18.147  0.00  0.00    +0.000 C 
ATOM      8  C   UNL     1       3.398   4.856  18.708  0.00  0.00    +0.000 C 
ATOM      9  C   UNL     1       2.691   3.748  17.925  0.00  0.00    +0.000 C 
ATOM     10  C   UNL     1       1.349   3.688  18.044  0.00  0.00    +0.000 C 
ATOM     11  C   UNL     1       0.998   3.281  19.451  0.00  0.00    +0.000 C 
ATOM     12  O   UNL     1       0.152   2.459  19.718  0.00  0.00    +0.000 OA
ATOM     13  C   UNL     1       1.741   4.075  20.496  0.00  0.00    +0.000 C 
ATOM     14  C   UNL     1       2.852   4.775  20.156  0.00  0.00    +0.000 C 
ATOM     15  O   UNL     1       4.825   4.653  18.617  0.00  0.00    +0.000 OA
ATOM     16  O   UNL     1       6.487   6.342  18.405  0.00  0.00    +0.000 OA
ENDROOT
BRANCH   3  17
ATOM     17  O   UNL     1       7.407   5.215  14.456  0.00  0.00    +0.000 OA
ATOM     18  H   UNL     1       8.365   5.390  14.461  0.00  0.00    +0.000 HD
ENDBRANCH   3  17
BRANCH   1  19
ATOM     19  C   UNL     1       8.327   7.986  18.469  0.00  0.00    +0.000 C 
BRANCH  19  20
ATOM     20  C   UNL     1       8.482   9.483  18.156  0.00  0.00    +0.000 C 
BRANCH  20  21
ATOM     21  C   UNL     1       9.116  10.285  19.298  0.00  0.00    +0.000 C 
BRANCH  21  22
ATOM     22  C   UNL     1      10.365  11.015  18.794  0.00  0.00    +0.000 C 
BRANCH  22  23
ATOM     23  C   UNL     1      11.093  11.704  19.941  0.00  0.00    +0.000 C 
BRANCH  23  24
ATOM     24  C   UNL     1      10.793  13.199  19.958  0.00  0.00    +0.000 C 
BRANCH  24  25
ATOM     25  C   UNL     1      12.029  13.977  19.528  0.00  0.00    +0.000 C 
BRANCH  25  26
ATOM     26  C   UNL     1      11.673  15.013  18.472  0.00  0.00    +0.000 C 
BRANCH  26  27
ATOM     27  C   UNL     1      10.396  15.746  18.859  0.00  0.00    +0.000 C 
BRANCH  27  28
ATOM     28  C   UNL     1       9.444  15.811  17.672  0.00  0.00    +0.000 C 
BRANCH  28  29
ATOM     29  C   UNL     1       7.995  15.798  18.143  0.00  0.00    +0.000 C 
BRANCH  29  31
ATOM     30  C   UNL     1       7.900  13.384  17.467  0.00  0.00    +0.000 C 
ATOM     31  C   UNL     1       7.580  14.390  18.556  0.00  0.00    +0.000 C 
ENDBRANCH  29  31
ENDBRANCH  28  29
ENDBRANCH  27  28
ENDBRANCH  26  27
ENDBRANCH  25  26
ENDBRANCH  24  25
ENDBRANCH  23  24
ENDBRANCH  22  23
ENDBRANCH  21  22
ENDBRANCH  20  21
ENDBRANCH  19  20
ENDBRANCH   1  19
TORSDOF 13
ENDMDL
MODEL 5
REMARK VINA RESULT:      -6.7      0.979      1.532
REMARK  Name = 
REMARK  14 active torsions:
REMARK  status: ('A' for Active; 'I' for Inactive)
REMARK    1  A    between atoms: C_1  and  C_2
REMARK    2  A    between atoms: C_2  and  C_3
REMARK    3  A    between atoms: C_3  and  C_4
REMARK    4  A    between atoms: C_4  and  C_5
REMARK    5  A    between atoms: C_5  and  C_6
REMARK    6  A    between atoms: C_6  and  C_7
REMARK    7  A    between atoms: C_7  and  C_8
REMARK    8  A    between atoms: C_8  and  C_9
REMARK    9  A    between atoms: C_9  and  C_10
REMARK   10  A    between atoms: C_10  and  C_11
REMARK   11  A    between atoms: C_11  and  C_12
REMARK   12  A    between atoms: C_12  and  C_13
REMARK   13  A    between atoms: C_13  and  C_14
REMARK   14  A    between atoms: C_16  and  O_17
REMARK                            x       y       z     vdW  Elec       q    Type
REMARK                         _______ _______ _______ _____ _____    ______ ____
ROOT
ATOM      1  C   UNL     1       7.539   7.264  17.896  0.00  0.00    +0.000 C 
ATOM      2  C   UNL     1       8.474   6.826  19.037  0.00  0.00    +0.000 C 
ATOM      3  C   UNL     1       8.209   5.375  19.424  0.00  0.00    +0.000 C 
ATOM      4  C   UNL     1       6.716   5.195  19.736  0.00  0.00    +0.000 C 
ATOM      5  C   UNL     1       5.822   5.634  18.544  0.00  0.00    +0.000 C 
ATOM      6  C   UNL     1       6.014   4.707  17.346  0.00  0.00    +0.000 C 
ATOM      7  C   UNL     1       4.640   4.290  16.903  0.00  0.00    +0.000 C 
ATOM      8  C   UNL     1       3.726   4.559  18.087  0.00  0.00    +0.000 C 
ATOM      9  C   UNL     1       3.459   3.312  18.933  0.00  0.00    +0.000 C 
ATOM     10  C   UNL     1       2.681   2.361  18.376  0.00  0.00    +0.000 C 
ATOM     11  C   UNL     1       1.279   2.892  18.241  0.00  0.00    +0.000 C 
ATOM     12  O   UNL     1       0.291   2.254  18.524  0.00  0.00    +0.000 OA
ATOM     13  C   UNL     1       1.226   4.265  17.619  0.00  0.00    +0.000 C 
ATOM     14  C   UNL     1       2.344   5.033  17.573  0.00  0.00    +0.000 C 
ATOM     15  O   UNL     1       4.407   5.538  18.902  0.00  0.00    +0.000 OA
ATOM     16  O   UNL     1       6.148   7.001  18.203  0.00  0.00    +0.000 OA
ENDROOT
BRANCH   3  17
ATOM     17  O   UNL     1       9.028   5.002  20.531  0.00  0.00    +0.000 OA
ATOM     18  H   UNL     1       9.385   4.109  20.377  0.00  0.00    +0.000 HD
ENDBRANCH   3  17
BRANCH   1  19
ATOM     19  C   UNL     1       7.751   8.762  17.554  0.00  0.00    +0.000 C 
BRANCH  19  20
ATOM     20  C   UNL     1       8.684   9.483  18.540  0.00  0.00    +0.000 C 
BRANCH  20  21
ATOM     21  C   UNL     1       8.916  10.958  18.196  0.00  0.00    +0.000 C 
BRANCH  21  22
ATOM     22  C   UNL     1      10.361  11.166  17.730  0.00  0.00    +0.000 C 
BRANCH  22  23
ATOM     23  C   UNL     1      11.186  11.858  18.808  0.00  0.00    +0.000 C 
BRANCH  23  24
ATOM     24  C   UNL     1      10.491  11.776  20.163  0.00  0.00    +0.000 C 
BRANCH  24  25
ATOM     25  C   UNL     1      10.203  13.180  20.679  0.00  0.00    +0.000 C 
BRANCH  25  26
ATOM     26  C   UNL     1       9.564  13.126  22.059  0.00  0.00    +0.000 C 
BRANCH  26  27
ATOM     27  C   UNL     1       8.225  12.404  21.993  0.00  0.00    +0.000 C 
BRANCH  27  28
ATOM     28  C   UNL     1       7.095  13.352  22.369  0.00  0.00    +0.000 C 
BRANCH  28  29
ATOM     29  C   UNL     1       6.110  12.670  23.311  0.00  0.00    +0.000 C 
BRANCH  29  31
ATOM     30  C   UNL     1       5.901  11.156  25.300  0.00  0.00    +0.000 C 
ATOM     31  C   UNL     1       6.840  11.712  24.246  0.00  0.00    +0.000 C 
ENDBRANCH  29  31
ENDBRANCH  28  29
ENDBRANCH  27  28
ENDBRANCH  26  27
ENDBRANCH  25  26
ENDBRANCH  24  25
ENDBRANCH  23  24
ENDBRANCH  22  23
ENDBRANCH  21  22
ENDBRANCH  20  21
ENDBRANCH  19  20
ENDBRANCH   1  19
TORSDOF 13
ENDMDL
MODEL 6
REMARK VINA RESULT:      -6.7      1.247      2.115
REMARK  Name = 
REMARK  14 active torsions:
REMARK  status: ('A' for Active; 'I' for Inactive)
REMARK    1  A    between atoms: C_1  and  C_2
REMARK    2  A    between atoms: C_2  and  C_3
REMARK    3  A    between atoms: C_3  and  C_4
REMARK    4  A    between atoms: C_4  and  C_5
REMARK    5  A    between atoms: C_5  and  C_6
REMARK    6  A    between atoms: C_6  and  C_7
REMARK    7  A    between atoms: C_7  and  C_8
REMARK    8  A    between atoms: C_8  and  C_9
REMARK    9  A    between atoms: C_9  and  C_10
REMARK   10  A    between atoms: C_10  and  C_11
REMARK   11  A    between atoms: C_11  and  C_12
REMARK   12  A    between atoms: C_12  and  C_13
REMARK   13  A    between atoms: C_13  and  C_14
REMARK   14  A    between atoms: C_16  and  O_17
REMARK                            x       y       z     vdW  Elec       q    Type
REMARK                         _______ _______ _______ _____ _____    ______ ____
ROOT
ATOM      1  C   UNL     1       7.432   7.197  17.831  0.00  0.00    +0.000 C 
ATOM      2  C   UNL     1       8.381   6.798  18.975  0.00  0.00    +0.000 C 
ATOM      3  C   UNL     1       8.144   5.349  19.391  0.00  0.00    +0.000 C 
ATOM      4  C   UNL     1       6.656   5.149  19.714  0.00  0.00    +0.000 C 
ATOM      5  C   UNL     1       5.748   5.550  18.520  0.00  0.00    +0.000 C 
ATOM      6  C   UNL     1       5.950   4.604  17.338  0.00  0.00    +0.000 C 
ATOM      7  C   UNL     1       4.580   4.154  16.912  0.00  0.00    +0.000 C 
ATOM      8  C   UNL     1       3.669   4.429  18.095  0.00  0.00    +0.000 C 
ATOM      9  C   UNL     1       3.429   3.194  18.966  0.00  0.00    +0.000 C 
ATOM     10  C   UNL     1       2.665   2.219  18.432  0.00  0.00    +0.000 C 
ATOM     11  C   UNL     1       1.253   2.723  18.294  0.00  0.00    +0.000 C 
ATOM     12  O   UNL     1       0.278   2.073  18.596  0.00  0.00    +0.000 OA
ATOM     13  C   UNL     1       1.172   4.083  17.648  0.00  0.00    +0.000 C 
ATOM     14  C   UNL     1       2.276   4.869  17.581  0.00  0.00    +0.000 C 
ATOM     15  O   UNL     1       4.337   5.435  18.888  0.00  0.00    +0.000 OA
ATOM     16  O   UNL     1       6.047   6.915  18.151  0.00  0.00    +0.000 OA
ENDROOT
BRANCH   3  17
ATOM     17  O   UNL     1       8.976   5.012  20.499  0.00  0.00    +0.000 OA
ATOM     18  H   UNL     1       9.036   4.043  20.570  0.00  0.00    +0.000 HD
ENDBRANCH   3  17
BRANCH   1  19
ATOM     19  C   UNL     1       7.616   8.692  17.460  0.00  0.00    +0.000 C 
BRANCH  19  20
ATOM     20  C   UNL     1       8.536   9.450  18.430  0.00  0.00    +0.000 C 
BRANCH  20  21
ATOM     21  C   UNL     1       9.146  10.720  17.830  0.00  0.00    +0.000 C 
BRANCH  21  22
ATOM     22  C   UNL     1      10.480  11.035  18.515  0.00  0.00    +0.000 C 
BRANCH  22  23
ATOM     23  C   UNL     1      10.381  12.311  19.340  0.00  0.00    +0.000 C 
BRANCH  23  24
ATOM     24  C   UNL     1      10.336  11.996  20.831  0.00  0.00    +0.000 C 
BRANCH  24  25
ATOM     25  C   UNL     1       9.088  12.610  21.450  0.00  0.00    +0.000 C 
BRANCH  25  26
ATOM     26  C   UNL     1       9.382  14.004  21.985  0.00  0.00    +0.000 C 
BRANCH  26  27
ATOM     27  C   UNL     1       8.262  14.963  21.604  0.00  0.00    +0.000 C 
BRANCH  27  28
ATOM     28  C   UNL     1       8.170  15.092  20.090  0.00  0.00    +0.000 C 
BRANCH  28  29
ATOM     29  C   UNL     1       6.780  15.558  19.674  0.00  0.00    +0.000 C 
BRANCH  29  31
ATOM     30  C   UNL     1       7.467  14.070  17.776  0.00  0.00    +0.000 C 
ATOM     31  C   UNL     1       6.317  14.815  18.426  0.00  0.00    +0.000 C 
ENDBRANCH  29  31
ENDBRANCH  28  29
ENDBRANCH  27  28
ENDBRANCH  26  27
ENDBRANCH  25  26
ENDBRANCH  24  25
ENDBRANCH  23  24
ENDBRANCH  22  23
ENDBRANCH  21  22
ENDBRANCH  20  21
ENDBRANCH  19  20
ENDBRANCH   1  19
TORSDOF 13
ENDMDL
MODEL 7
REMARK VINA RESULT:      -6.6      2.168      2.980
REMARK  Name = 
REMARK  14 active torsions:
REMARK  status: ('A' for Active; 'I' for Inactive)
REMARK    1  A    between atoms: C_1  and  C_2
REMARK    2  A    between atoms: C_2  and  C_3
REMARK    3  A    between atoms: C_3  and  C_4
REMARK    4  A    between atoms: C_4  and  C_5
REMARK    5  A    between atoms: C_5  and  C_6
REMARK    6  A    between atoms: C_6  and  C_7
REMARK    7  A    between atoms: C_7  and  C_8
REMARK    8  A    between atoms: C_8  and  C_9
REMARK    9  A    between atoms: C_9  and  C_10
REMARK   10  A    between atoms: C_10  and  C_11
REMARK   11  A    between atoms: C_11  and  C_12
REMARK   12  A    between atoms: C_12  and  C_13
REMARK   13  A    between atoms: C_13  and  C_14
REMARK   14  A    between atoms: C_16  and  O_17
REMARK                            x       y       z     vdW  Elec       q    Type
REMARK                         _______ _______ _______ _____ _____    ______ ____
ROOT
ATOM      1  C   UNL     1       7.063   6.960  17.478  0.00  0.00    +0.000 C 
ATOM      2  C   UNL     1       7.648   6.218  16.263  0.00  0.00    +0.000 C 
ATOM      3  C   UNL     1       6.559   5.442  15.530  0.00  0.00    +0.000 C 
ATOM      4  C   UNL     1       5.825   4.531  16.523  0.00  0.00    +0.000 C 
ATOM      5  C   UNL     1       5.240   5.334  17.718  0.00  0.00    +0.000 C 
ATOM      6  C   UNL     1       4.125   6.267  17.254  0.00  0.00    +0.000 C 
ATOM      7  C   UNL     1       2.954   6.020  18.165  0.00  0.00    +0.000 C 
ATOM      8  C   UNL     1       3.207   4.664  18.801  0.00  0.00    +0.000 C 
ATOM      9  C   UNL     1       2.464   3.526  18.100  0.00  0.00    +0.000 C 
ATOM     10  C   UNL     1       1.124   3.497  18.251  0.00  0.00    +0.000 C 
ATOM     11  C   UNL     1       0.798   3.179  19.686  0.00  0.00    +0.000 C 
ATOM     12  O   UNL     1      -0.056   2.390  20.020  0.00  0.00    +0.000 OA
ATOM     13  C   UNL     1       1.577   4.020  20.667  0.00  0.00    +0.000 C 
ATOM     14  C   UNL     1       2.691   4.678  20.262  0.00  0.00    +0.000 C 
ATOM     15  O   UNL     1       4.628   4.431  18.692  0.00  0.00    +0.000 OA
ATOM     16  O   UNL     1       6.312   6.074  18.345  0.00  0.00    +0.000 OA
ENDROOT
BRANCH   3  17
ATOM     17  O   UNL     1       7.124   4.700  14.450  0.00  0.00    +0.000 OA
ATOM     18  H   UNL     1       7.501   3.871  14.796  0.00  0.00    +0.000 HD
ENDBRANCH   3  17
BRANCH   1  19
ATOM     19  C   UNL     1       8.181   7.685  18.271  0.00  0.00    +0.000 C 
BRANCH  19  20
ATOM     20  C   UNL     1       8.253   9.193  17.979  0.00  0.00    +0.000 C 
BRANCH  20  21
ATOM     21  C   UNL     1       9.083   9.976  19.001  0.00  0.00    +0.000 C 
BRANCH  21  22
ATOM     22  C   UNL     1       9.923  11.041  18.287  0.00  0.00    +0.000 C 
BRANCH  22  23
ATOM     23  C   UNL     1      11.031  11.558  19.195  0.00  0.00    +0.000 C 
BRANCH  23  24
ATOM     24  C   UNL     1      10.941  13.072  19.357  0.00  0.00    +0.000 C 
BRANCH  24  25
ATOM     25  C   UNL     1      11.210  13.749  18.020  0.00  0.00    +0.000 C 
BRANCH  25  26
ATOM     26  C   UNL     1      10.147  14.798  17.725  0.00  0.00    +0.000 C 
BRANCH  26  27
ATOM     27  C   UNL     1       8.968  14.639  18.675  0.00  0.00    +0.000 C 
BRANCH  27  28
ATOM     28  C   UNL     1       7.683  14.421  17.890  0.00  0.00    +0.000 C 
BRANCH  28  29
ATOM     29  C   UNL     1       6.470  14.820  18.722  0.00  0.00    +0.000 C 
BRANCH  29  31
ATOM     30  C   UNL     1       3.984  14.521  18.578  0.00  0.00    +0.000 C 
ATOM     31  C   UNL     1       5.235  14.955  17.838  0.00  0.00    +0.000 C 
ENDBRANCH  29  31
ENDBRANCH  28  29
ENDBRANCH  27  28
ENDBRANCH  26  27
ENDBRANCH  25  26
ENDBRANCH  24  25
ENDBRANCH  23  24
ENDBRANCH  22  23
ENDBRANCH  21  22
ENDBRANCH  20  21
ENDBRANCH  19  20
ENDBRANCH   1  19
TORSDOF 13
ENDMDL
MODEL 8
REMARK VINA RESULT:      -6.6      6.834     11.106
REMARK  Name = 
REMARK  14 active torsions:
REMARK  status: ('A' for Active; 'I' for Inactive)
REMARK    1  A    between atoms: C_1  and  C_2
REMARK    2  A    between atoms: C_2  and  C_3
REMARK    3  A    between atoms: C_3  and  C_4
REMARK    4  A    between atoms: C_4  and  C_5
REMARK    5  A    between atoms: C_5  and  C_6
REMARK    6  A    between atoms: C_6  and  C_7
REMARK    7  A    between atoms: C_7  and  C_8
REMARK    8  A    between atoms: C_8  and  C_9
REMARK    9  A    between atoms: C_9  and  C_10
REMARK   10  A    between atoms: C_10  and  C_11
REMARK   11  A    between atoms: C_11  and  C_12
REMARK   12  A    between atoms: C_12  and  C_13
REMARK   13  A    between atoms: C_13  and  C_14
REMARK   14  A    between atoms: C_16  and  O_17
REMARK                            x       y       z     vdW  Elec       q    Type
REMARK                         _______ _______ _______ _____ _____    ______ ____
ROOT
ATOM      1  C   UNL     1      -0.561  10.730  21.773  0.00  0.00    +0.000 C 
ATOM      2  C   UNL     1      -1.266  11.364  22.986  0.00  0.00    +0.000 C 
ATOM      3  C   UNL     1      -1.588  12.830  22.716  0.00  0.00    +0.000 C 
ATOM      4  C   UNL     1      -0.308  13.562  22.285  0.00  0.00    +0.000 C 
ATOM      5  C   UNL     1       0.349  12.891  21.048  0.00  0.00    +0.000 C 
ATOM      6  C   UNL     1      -0.536  13.037  19.813  0.00  0.00    +0.000 C 
ATOM      7  C   UNL     1       0.344  13.573  18.717  0.00  0.00    +0.000 C 
ATOM      8  C   UNL     1       1.550  14.177  19.416  0.00  0.00    +0.000 C 
ATOM      9  C   UNL     1       1.439  15.691  19.601  0.00  0.00    +0.000 C 
ATOM     10  C   UNL     1       1.539  16.444  18.485  0.00  0.00    +0.000 C 
ATOM     11  C   UNL     1       2.944  16.346  17.952  0.00  0.00    +0.000 C 
ATOM     12  O   UNL     1       3.579  17.298  17.560  0.00  0.00    +0.000 OA
ATOM     13  C   UNL     1       3.443  14.926  17.863  0.00  0.00    +0.000 C 
ATOM     14  C   UNL     1       2.815  13.941  18.554  0.00  0.00    +0.000 C 
ATOM     15  O   UNL     1       1.611  13.552  20.716  0.00  0.00    +0.000 OA
ATOM     16  O   UNL     1       0.593  11.499  21.353  0.00  0.00    +0.000 OA
ENDROOT
BRANCH   3  17
ATOM     17  O   UNL     1      -2.173  13.427  23.872  0.00  0.00    +0.000 OA
ATOM     18  H   UNL     1      -1.522  13.424  24.596  0.00  0.00    +0.000 HD
ENDBRANCH   3  17
BRANCH   1  19
ATOM     19  C   UNL     1      -0.163   9.261  22.073  0.00  0.00    +0.000 C 
BRANCH  19  20
ATOM     20  C   UNL     1       1.320   8.966  21.794  0.00  0.00    +0.000 C 
BRANCH  20  21
ATOM     21  C   UNL     1       1.551   8.136  20.527  0.00  0.00    +0.000 C 
BRANCH  21  22
ATOM     22  C   UNL     1       1.392   9.021  19.286  0.00  0.00    +0.000 C 
BRANCH  22  23
ATOM     23  C   UNL     1       2.025   8.366  18.066  0.00  0.00    +0.000 C 
BRANCH  23  24
ATOM     24  C   UNL     1       2.476   6.944  18.383  0.00  0.00    +0.000 C 
BRANCH  24  25
ATOM     25  C   UNL     1       3.826   6.674  17.730  0.00  0.00    +0.000 C 
BRANCH  25  26
ATOM     26  C   UNL     1       4.089   5.179  17.636  0.00  0.00    +0.000 C 
BRANCH  26  27
ATOM     27  C   UNL     1       4.914   4.711  18.827  0.00  0.00    +0.000 C 
BRANCH  27  28
ATOM     28  C   UNL     1       4.312   3.444  19.421  0.00  0.00    +0.000 C 
BRANCH  28  29
ATOM     29  C   UNL     1       2.875   3.259  18.951  0.00  0.00    +0.000 C 
BRANCH  29  31
ATOM     30  C   UNL     1       1.071   4.223  20.403  0.00  0.00    +0.000 C 
ATOM     31  C   UNL     1       1.950   3.015  20.138  0.00  0.00    +0.000 C 
ENDBRANCH  29  31
ENDBRANCH  28  29
ENDBRANCH  27  28
ENDBRANCH  26  27
ENDBRANCH  25  26
ENDBRANCH  24  25
ENDBRANCH  23  24
ENDBRANCH  22  23
ENDBRANCH  21  22
ENDBRANCH  20  21
ENDBRANCH  19  20
ENDBRANCH   1  19
TORSDOF 13
ENDMDL
MODEL 9
REMARK VINA RESULT:      -6.6      7.349     10.857
REMARK  Name = 
REMARK  14 active torsions:
REMARK  status: ('A' for Active; 'I' for Inactive)
REMARK    1  A    between atoms: C_1  and  C_2
REMARK    2  A    between atoms: C_2  and  C_3
REMARK    3  A    between atoms: C_3  and  C_4
REMARK    4  A    between atoms: C_4  and  C_5
REMARK    5  A    between atoms: C_5  and  C_6
REMARK    6  A    between atoms: C_6  and  C_7
REMARK    7  A    between atoms: C_7  and  C_8
REMARK    8  A    between atoms: C_8  and  C_9
REMARK    9  A    between atoms: C_9  and  C_10
REMARK   10  A    between atoms: C_10  and  C_11
REMARK   11  A    between atoms: C_11  and  C_12
REMARK   12  A    between atoms: C_12  and  C_13
REMARK   13  A    between atoms: C_13  and  C_14
REMARK   14  A    between atoms: C_16  and  O_17
REMARK                            x       y       z     vdW  Elec       q    Type
REMARK                         _______ _______ _______ _____ _____    ______ ____
ROOT
ATOM      1  C   UNL     1       1.409  10.490  18.869  0.00  0.00    +0.000 C 
ATOM      2  C   UNL     1       2.302  11.393  18.001  0.00  0.00    +0.000 C 
ATOM      3  C   UNL     1       2.251  12.836  18.494  0.00  0.00    +0.000 C 
ATOM      4  C   UNL     1       0.788  13.295  18.573  0.00  0.00    +0.000 C 
ATOM      5  C   UNL     1      -0.062  12.359  19.476  0.00  0.00    +0.000 C 
ATOM      6  C   UNL     1       0.384  12.453  20.933  0.00  0.00    +0.000 C 
ATOM      7  C   UNL     1      -0.859  12.684  21.746  0.00  0.00    +0.000 C 
ATOM      8  C   UNL     1      -1.902  13.196  20.768  0.00  0.00    +0.000 C 
ATOM      9  C   UNL     1      -2.029  14.721  20.771  0.00  0.00    +0.000 C 
ATOM     10  C   UNL     1      -2.587  15.277  21.865  0.00  0.00    +0.000 C 
ATOM     11  C   UNL     1      -4.041  14.892  21.925  0.00  0.00    +0.000 C 
ATOM     12  O   UNL     1      -4.929  15.670  22.188  0.00  0.00    +0.000 OA
ATOM     13  C   UNL     1      -4.268  13.415  21.720  0.00  0.00    +0.000 C 
ATOM     14  C   UNL     1      -3.294  12.648  21.168  0.00  0.00    +0.000 C 
ATOM     15  O   UNL     1      -1.466  12.767  19.460  0.00  0.00    +0.000 OA
ATOM     16  O   UNL     1       0.060  11.006  18.980  0.00  0.00    +0.000 OA
ENDROOT
BRANCH   3  17
ATOM     17  O   UNL     1       3.023  13.676  17.638  0.00  0.00    +0.000 OA
ATOM     18  H   UNL     1       3.083  14.564  18.033  0.00  0.00    +0.000 HD
ENDBRANCH   3  17
BRANCH   1  19
ATOM     19  C   UNL     1       1.397   9.038  18.323  0.00  0.00    +0.000 C 
BRANCH  19  20
ATOM     20  C   UNL     1       2.761   8.582  17.780  0.00  0.00    +0.000 C 
BRANCH  20  21
ATOM     21  C   UNL     1       3.023   7.084  17.961  0.00  0.00    +0.000 C 
BRANCH  21  22
ATOM     22  C   UNL     1       4.194   6.646  17.075  0.00  0.00    +0.000 C 
BRANCH  22  23
ATOM     23  C   UNL     1       5.116   5.692  17.823  0.00  0.00    +0.000 C 
BRANCH  23  24
ATOM     24  C   UNL     1       4.321   4.565  18.475  0.00  0.00    +0.000 C 
BRANCH  24  25
ATOM     25  C   UNL     1       4.101   3.442  17.470  0.00  0.00    +0.000 C 
BRANCH  25  26
ATOM     26  C   UNL     1       2.966   2.534  17.918  0.00  0.00    +0.000 C 
BRANCH  26  27
ATOM     27  C   UNL     1       1.661   3.316  17.993  0.00  0.00    +0.000 C 
BRANCH  27  28
ATOM     28  C   UNL     1       0.950   3.031  19.309  0.00  0.00    +0.000 C 
BRANCH  28  29
ATOM     29  C   UNL     1       0.966   4.262  20.206  0.00  0.00    +0.000 C 
BRANCH  29  31
ATOM     30  C   UNL     1       2.213   2.712  21.734  0.00  0.00    +0.000 C 
ATOM     31  C   UNL     1       2.064   4.144  21.258  0.00  0.00    +0.000 C 
ENDBRANCH  29  31
ENDBRANCH  28  29
ENDBRANCH  27  28
ENDBRANCH  26  27
ENDBRANCH  25  26
ENDBRANCH  24  25
ENDBRANCH  23  24
ENDBRANCH  22  23
ENDBRANCH  21  22
ENDBRANCH  20  21
ENDBRANCH  19  20
ENDBRANCH   1  19
TORSDOF 13
ENDMDL
