MODEL 1
REMARK VINA RESULT:      -8.9      0.000      0.000
REMARK  Name = 
REMARK  5 active torsions:
REMARK  status: ('A' for Active; 'I' for Inactive)
REMARK    1  A    between atoms: C_1  and  C_2
REMARK    2  A    between atoms: C_4  and  C_5
REMARK    3  A    between atoms: C_10  and  N_11
REMARK    4  A    between atoms: N_14  and  C_15
REMARK    5  A    between atoms: C_15  and  C_16
REMARK                            x       y       z     vdW  Elec       q    Type
REMARK                         _______ _______ _______ _____ _____    ______ ____
ROOT
ATOM      1  C   UNL     1       6.741   5.171  15.785  0.00  0.00    +0.000 A 
ATOM      2  N   UNL     1       7.513   6.097  16.377  0.00  0.00    +0.000 NA
ATOM      3  N   UNL     1       7.055   6.161  17.641  0.00  0.00    +0.000 N 
ATOM      4  C   UNL     1       6.036   5.293  17.916  0.00  0.00    +0.000 A 
ATOM      5  C   UNL     1       5.289   5.033  19.073  0.00  0.00    +0.000 A 
ATOM      6  C   UNL     1       4.323   4.038  18.938  0.00  0.00    +0.000 A 
ATOM      7  N   UNL     1       4.117   3.357  17.788  0.00  0.00    +0.000 NA
ATOM      8  C   UNL     1       4.859   3.615  16.693  0.00  0.00    +0.000 A 
ATOM      9  C   UNL     1       5.826   4.613  16.723  0.00  0.00    +0.000 A 
ATOM     10  H   UNL     1       7.493   6.825  18.272  0.00  0.00    +0.000 HD
ENDROOT
BRANCH   1  14
ATOM     11  C   UNL     1       5.387   2.506  11.778  0.00  0.00    +0.000 C 
ATOM     12  C   UNL     1       6.214   3.565  12.437  0.00  0.00    +0.000 A 
ATOM     13  C   UNL     1       6.073   3.846  13.793  0.00  0.00    +0.000 A 
ATOM     14  C   UNL     1       6.882   4.827  14.369  0.00  0.00    +0.000 A 
ATOM     15  C   UNL     1       7.822   5.474  13.561  0.00  0.00    +0.000 A 
ATOM     16  C   UNL     1       7.886   5.142  12.220  0.00  0.00    +0.000 A 
ATOM     17  N   UNL     1       7.102   4.212  11.645  0.00  0.00    +0.000 NA
ENDBRANCH   1  14
BRANCH   6  18
ATOM     18  N   UNL     1       3.528   3.708  20.045  0.00  0.00    +0.000 N 
ATOM     19  C   UNL     1       2.627   4.510  20.696  0.00  0.00    +0.000 C 
ATOM     20  O   UNL     1       1.978   4.062  21.640  0.00  0.00    +0.000 OA
ATOM     21  N   UNL     1       2.499   5.779  20.236  0.00  0.00    +0.000 N 
ATOM     22  H   UNL     1       3.582   2.774  20.422  0.00  0.00    +0.000 HD
ATOM     23  H   UNL     1       3.181   6.049  19.531  0.00  0.00    +0.000 HD
BRANCH  21  24
ATOM     24  C   UNL     1       1.638   6.794  20.771  0.00  0.00    +0.000 C 
BRANCH  24  25
ATOM     25  C   UNL     1       1.596   8.005  19.881  0.00  0.00    +0.000 A 
ATOM     26  C   UNL     1       2.211   8.015  18.624  0.00  0.00    +0.000 A 
ATOM     27  C   UNL     1       2.140   9.172  17.862  0.00  0.00    +0.000 A 
ATOM     28  N   UNL     1       1.516  10.300  18.260  0.00  0.00    +0.000 NA
ATOM     29  C   UNL     1       0.945  10.275  19.483  0.00  0.00    +0.000 A 
ATOM     30  C   UNL     1       0.961   9.170  20.318  0.00  0.00    +0.000 A 
ENDBRANCH  24  25
ENDBRANCH  21  24
ENDBRANCH   6  18
TORSDOF 4
ENDMDL
MODEL 2
REMARK VINA RESULT:      -8.8      2.407      4.423
REMARK  Name = 
REMARK  5 active torsions:
REMARK  status: ('A' for Active; 'I' for Inactive)
REMARK    1  A    between atoms: C_1  and  C_2
REMARK    2  A    between atoms: C_4  and  C_5
REMARK    3  A    between atoms: C_10  and  N_11
REMARK    4  A    between atoms: N_14  and  C_15
REMARK    5  A    between atoms: C_15  and  C_16
REMARK                            x       y       z     vdW  Elec       q    Type
REMARK                         _______ _______ _______ _____ _____    ______ ____
ROOT
ATOM      1  C   UNL     1       3.980   4.198  18.288  0.00  0.00    +0.000 A 
ATOM      2  N   UNL     1       3.413   3.024  18.606  0.00  0.00    +0.000 NA
ATOM      3  N   UNL     1       2.433   3.345  19.472  0.00  0.00    +0.000 N 
ATOM      4  C   UNL     1       2.310   4.685  19.712  0.00  0.00    +0.000 A 
ATOM      5  C   UNL     1       1.445   5.435  20.519  0.00  0.00    +0.000 A 
ATOM      6  C   UNL     1       1.645   6.812  20.475  0.00  0.00    +0.000 A 
ATOM      7  N   UNL     1       2.591   7.399  19.707  0.00  0.00    +0.000 NA
ATOM      8  C   UNL     1       3.402   6.657  18.927  0.00  0.00    +0.000 A 
ATOM      9  C   UNL     1       3.297   5.271  18.929  0.00  0.00    +0.000 A 
ATOM     10  H   UNL     1       1.877   2.590  19.861  0.00  0.00    +0.000 HD
ENDROOT
BRANCH   1  14
ATOM     11  C   UNL     1       6.010   3.915  13.729  0.00  0.00    +0.000 C 
ATOM     12  C   UNL     1       6.107   4.179  15.199  0.00  0.00    +0.000 A 
ATOM     13  C   UNL     1       4.993   4.054  16.025  0.00  0.00    +0.000 A 
ATOM     14  C   UNL     1       5.136   4.289  17.393  0.00  0.00    +0.000 A 
ATOM     15  C   UNL     1       6.402   4.618  17.884  0.00  0.00    +0.000 A 
ATOM     16  C   UNL     1       7.452   4.733  16.991  0.00  0.00    +0.000 A 
ATOM     17  N   UNL     1       7.329   4.527  15.667  0.00  0.00    +0.000 NA
ENDBRANCH   1  14
BRANCH   6  18
ATOM     18  N   UNL     1       0.824   7.644  21.250  0.00  0.00    +0.000 N 
ATOM     19  C   UNL     1       0.385   8.906  20.945  0.00  0.00    +0.000 C 
ATOM     20  O   UNL     1      -0.361   9.499  21.721  0.00  0.00    +0.000 OA
ATOM     21  N   UNL     1       0.807   9.427  19.766  0.00  0.00    +0.000 N 
ATOM     22  H   UNL     1       0.479   7.300  22.134  0.00  0.00    +0.000 HD
ATOM     23  H   UNL     1       1.513   8.877  19.284  0.00  0.00    +0.000 HD
BRANCH  21  24
ATOM     24  C   UNL     1       0.493  10.729  19.253  0.00  0.00    +0.000 C 
BRANCH  24  25
ATOM     25  C   UNL     1      -0.874  10.757  18.626  0.00  0.00    +0.000 A 
ATOM     26  C   UNL     1      -1.881  11.607  19.095  0.00  0.00    +0.000 A 
ATOM     27  C   UNL     1      -3.121  11.570  18.474  0.00  0.00    +0.000 A 
ATOM     28  N   UNL     1      -3.423  10.756  17.441  0.00  0.00    +0.000 NA
ATOM     29  C   UNL     1      -2.443   9.931  17.016  0.00  0.00    +0.000 A 
ATOM     30  C   UNL     1      -1.174   9.893  17.570  0.00  0.00    +0.000 A 
ENDBRANCH  24  25
ENDBRANCH  21  24
ENDBRANCH   6  18
TORSDOF 4
ENDMDL
MODEL 3
REMARK VINA RESULT:      -8.6      2.202      3.853
REMARK  Name = 
REMARK  5 active torsions:
REMARK  status: ('A' for Active; 'I' for Inactive)
REMARK    1  A    between atoms: C_1  and  C_2
REMARK    2  A    between atoms: C_4  and  C_5
REMARK    3  A    between atoms: C_10  and  N_11
REMARK    4  A    between atoms: N_14  and  C_15
REMARK    5  A    between atoms: C_15  and  C_16
REMARK                            x       y       z     vdW  Elec       q    Type
REMARK                         _______ _______ _______ _____ _____    ______ ____
ROOT
ATOM      1  C   UNL     1       4.223   4.199  17.733  0.00  0.00    +0.000 A 
ATOM      2  N   UNL     1       3.766   2.967  18.009  0.00  0.00    +0.000 NA
ATOM      3  N   UNL     1       2.853   3.153  18.980  0.00  0.00    +0.000 N 
ATOM      4  C   UNL     1       2.664   4.461  19.332  0.00  0.00    +0.000 A 
ATOM      5  C   UNL     1       1.830   5.087  20.268  0.00  0.00    +0.000 A 
ATOM      6  C   UNL     1       1.933   6.475  20.312  0.00  0.00    +0.000 A 
ATOM      7  N   UNL     1       2.762   7.182  19.511  0.00  0.00    +0.000 NA
ATOM      8  C   UNL     1       3.545   6.558  18.608  0.00  0.00    +0.000 A 
ATOM      9  C   UNL     1       3.532   5.171  18.513  0.00  0.00    +0.000 A 
ATOM     10  H   UNL     1       2.387   2.335  19.357  0.00  0.00    +0.000 HD
ENDROOT
BRANCH   1  14
ATOM     11  C   UNL     1       6.097   3.711  13.125  0.00  0.00    +0.000 C 
ATOM     12  C   UNL     1       6.170   4.226  14.528  0.00  0.00    +0.000 A 
ATOM     13  C   UNL     1       5.159   3.955  15.445  0.00  0.00    +0.000 A 
ATOM     14  C   UNL     1       5.281   4.438  16.749  0.00  0.00    +0.000 A 
ATOM     15  C   UNL     1       6.431   5.156  17.089  0.00  0.00    +0.000 A 
ATOM     16  C   UNL     1       7.381   5.390  16.112  0.00  0.00    +0.000 A 
ATOM     17  N   UNL     1       7.271   4.947  14.846  0.00  0.00    +0.000 NA
ENDBRANCH   1  14
BRANCH   6  18
ATOM     18  N   UNL     1       1.135   7.187  21.218  0.00  0.00    +0.000 N 
ATOM     19  C   UNL     1       0.686   8.477  21.102  0.00  0.00    +0.000 C 
ATOM     20  O   UNL     1      -0.038   8.954  21.974  0.00  0.00    +0.000 OA
ATOM     21  N   UNL     1       1.072   9.158  19.995  0.00  0.00    +0.000 N 
ATOM     22  H   UNL     1       0.816   6.723  22.055  0.00  0.00    +0.000 HD
ATOM     23  H   UNL     1       1.764   8.683  19.421  0.00  0.00    +0.000 HD
BRANCH  21  24
ATOM     24  C   UNL     1       0.741  10.517  19.675  0.00  0.00    +0.000 C 
BRANCH  24  25
ATOM     25  C   UNL     1      -0.565  10.604  18.934  0.00  0.00    +0.000 A 
ATOM     26  C   UNL     1      -0.801   9.863  17.772  0.00  0.00    +0.000 A 
ATOM     27  C   UNL     1      -2.026  10.002  17.135  0.00  0.00    +0.000 A 
ATOM     28  N   UNL     1      -3.011  10.818  17.567  0.00  0.00    +0.000 NA
ATOM     29  C   UNL     1      -2.755  11.537  18.680  0.00  0.00    +0.000 A 
ATOM     30  C   UNL     1      -1.566  11.468  19.385  0.00  0.00    +0.000 A 
ENDBRANCH  24  25
ENDBRANCH  21  24
ENDBRANCH   6  18
TORSDOF 4
ENDMDL
MODEL 4
REMARK VINA RESULT:      -8.5      2.312      3.829
REMARK  Name = 
REMARK  5 active torsions:
REMARK  status: ('A' for Active; 'I' for Inactive)
REMARK    1  A    between atoms: C_1  and  C_2
REMARK    2  A    between atoms: C_4  and  C_5
REMARK    3  A    between atoms: C_10  and  N_11
REMARK    4  A    between atoms: N_14  and  C_15
REMARK    5  A    between atoms: C_15  and  C_16
REMARK                            x       y       z     vdW  Elec       q    Type
REMARK                         _______ _______ _______ _____ _____    ______ ____
ROOT
ATOM      1  C   UNL     1       4.258   4.231  17.145  0.00  0.00    +0.000 A 
ATOM      2  N   UNL     1       3.767   3.041  17.526  0.00  0.00    +0.000 NA
ATOM      3  N   UNL     1       2.940   3.327  18.549  0.00  0.00    +0.000 N 
ATOM      4  C   UNL     1       2.840   4.660  18.836  0.00  0.00    +0.000 A 
ATOM      5  C   UNL     1       2.111   5.379  19.792  0.00  0.00    +0.000 A 
ATOM      6  C   UNL     1       2.281   6.760  19.746  0.00  0.00    +0.000 A 
ATOM      7  N   UNL     1       3.079   7.378  18.845  0.00  0.00    +0.000 NA
ATOM      8  C   UNL     1       3.759   6.666  17.925  0.00  0.00    +0.000 A 
ATOM      9  C   UNL     1       3.675   5.279  17.914  0.00  0.00    +0.000 A 
ATOM     10  H   UNL     1       2.467   2.555  19.008  0.00  0.00    +0.000 HD
ENDROOT
BRANCH   1  14
ATOM     11  C   UNL     1       5.726   3.436  12.433  0.00  0.00    +0.000 C 
ATOM     12  C   UNL     1       5.942   4.001  13.802  0.00  0.00    +0.000 A 
ATOM     13  C   UNL     1       4.992   3.834  14.805  0.00  0.00    +0.000 A 
ATOM     14  C   UNL     1       5.247   4.360  16.073  0.00  0.00    +0.000 A 
ATOM     15  C   UNL     1       6.462   5.014  16.291  0.00  0.00    +0.000 A 
ATOM     16  C   UNL     1       7.345   5.146  15.234  0.00  0.00    +0.000 A 
ATOM     17  N   UNL     1       7.108   4.661  14.001  0.00  0.00    +0.000 NA
ENDBRANCH   1  14
BRANCH   6  18
ATOM     18  N   UNL     1       1.589   7.562  20.665  0.00  0.00    +0.000 N 
ATOM     19  C   UNL     1       1.094   8.825  20.467  0.00  0.00    +0.000 C 
ATOM     20  O   UNL     1       0.478   9.390  21.368  0.00  0.00    +0.000 OA
ATOM     21  N   UNL     1       1.315   9.380  19.249  0.00  0.00    +0.000 N 
ATOM     22  H   UNL     1       1.394   7.192  21.583  0.00  0.00    +0.000 HD
ATOM     23  H   UNL     1       1.939   8.851  18.645  0.00  0.00    +0.000 HD
BRANCH  21  24
ATOM     24  C   UNL     1       0.909  10.689  18.827  0.00  0.00    +0.000 C 
BRANCH  24  25
ATOM     25  C   UNL     1      -0.559  10.730  18.500  0.00  0.00    +0.000 A 
ATOM     26  C   UNL     1      -1.425  11.636  19.121  0.00  0.00    +0.000 A 
ATOM     27  C   UNL     1      -2.769  11.609  18.778  0.00  0.00    +0.000 A 
ATOM     28  N   UNL     1      -3.300  10.754  17.878  0.00  0.00    +0.000 NA
ATOM     29  C   UNL     1      -2.450   9.877  17.304  0.00  0.00    +0.000 A 
ATOM     30  C   UNL     1      -1.094   9.825  17.581  0.00  0.00    +0.000 A 
ENDBRANCH  24  25
ENDBRANCH  21  24
ENDBRANCH   6  18
TORSDOF 4
ENDMDL
MODEL 5
REMARK VINA RESULT:      -8.3      1.568      1.986
REMARK  Name = 
REMARK  5 active torsions:
REMARK  status: ('A' for Active; 'I' for Inactive)
REMARK    1  A    between atoms: C_1  and  C_2
REMARK    2  A    between atoms: C_4  and  C_5
REMARK    3  A    between atoms: C_10  and  N_11
REMARK    4  A    between atoms: N_14  and  C_15
REMARK    5  A    between atoms: C_15  and  C_16
REMARK                            x       y       z     vdW  Elec       q    Type
REMARK                         _______ _______ _______ _____ _____    ______ ____
ROOT
ATOM      1  C   UNL     1       6.889   4.619  16.157  0.00  0.00    +0.000 A 
ATOM      2  N   UNL     1       7.896   4.242  16.961  0.00  0.00    +0.000 NA
ATOM      3  N   UNL     1       7.460   4.520  18.203  0.00  0.00    +0.000 N 
ATOM      4  C   UNL     1       6.194   5.034  18.254  0.00  0.00    +0.000 A 
ATOM      5  C   UNL     1       5.373   5.448  19.311  0.00  0.00    +0.000 A 
ATOM      6  C   UNL     1       4.116   5.912  18.933  0.00  0.00    +0.000 A 
ATOM      7  N   UNL     1       3.699   5.956  17.647  0.00  0.00    +0.000 NA
ATOM      8  C   UNL     1       4.501   5.538  16.648  0.00  0.00    +0.000 A 
ATOM      9  C   UNL     1       5.786   5.087  16.927  0.00  0.00    +0.000 A 
ATOM     10  H   UNL     1       8.084   4.327  18.980  0.00  0.00    +0.000 HD
ENDROOT
BRANCH   1  14
ATOM     11  C   UNL     1       5.414   2.657  11.802  0.00  0.00    +0.000 C 
ATOM     12  C   UNL     1       6.252   3.603  12.603  0.00  0.00    +0.000 A 
ATOM     13  C   UNL     1       6.161   3.643  13.991  0.00  0.00    +0.000 A 
ATOM     14  C   UNL     1       6.979   4.527  14.698  0.00  0.00    +0.000 A 
ATOM     15  C   UNL     1       7.877   5.322  13.981  0.00  0.00    +0.000 A 
ATOM     16  C   UNL     1       7.893   5.227  12.601  0.00  0.00    +0.000 A 
ATOM     17  N   UNL     1       7.100   4.394  11.903  0.00  0.00    +0.000 NA
ENDBRANCH   1  14
BRANCH   6  18
ATOM     18  N   UNL     1       3.225   6.347  19.924  0.00  0.00    +0.000 N 
ATOM     19  C   UNL     1       2.179   7.223  19.784  0.00  0.00    +0.000 C 
ATOM     20  O   UNL     1       1.464   7.482  20.750  0.00  0.00    +0.000 OA
ATOM     21  N   UNL     1       1.991   7.751  18.550  0.00  0.00    +0.000 N 
ATOM     22  H   UNL     1       3.319   5.979  20.858  0.00  0.00    +0.000 HD
ATOM     23  H   UNL     1       2.726   7.542  17.878  0.00  0.00    +0.000 HD
BRANCH  21  24
ATOM     24  C   UNL     1       0.979   8.697  18.176  0.00  0.00    +0.000 C 
BRANCH  24  25
ATOM     25  C   UNL     1       1.369  10.098  18.559  0.00  0.00    +0.000 A 
ATOM     26  C   UNL     1       2.255  10.853  17.783  0.00  0.00    +0.000 A 
ATOM     27  C   UNL     1       2.577  12.135  18.203  0.00  0.00    +0.000 A 
ATOM     28  N   UNL     1       2.090  12.705  19.325  0.00  0.00    +0.000 NA
ATOM     29  C   UNL     1       1.250  11.953  20.068  0.00  0.00    +0.000 A 
ATOM     30  C   UNL     1       0.869  10.665  19.734  0.00  0.00    +0.000 A 
ENDBRANCH  24  25
ENDBRANCH  21  24
ENDBRANCH   6  18
TORSDOF 4
ENDMDL
MODEL 6
REMARK VINA RESULT:      -8.1      4.189      9.721
REMARK  Name = 
REMARK  5 active torsions:
REMARK  status: ('A' for Active; 'I' for Inactive)
REMARK    1  A    between atoms: C_1  and  C_2
REMARK    2  A    between atoms: C_4  and  C_5
REMARK    3  A    between atoms: C_10  and  N_11
REMARK    4  A    between atoms: N_14  and  C_15
REMARK    5  A    between atoms: C_15  and  C_16
REMARK                            x       y       z     vdW  Elec       q    Type
REMARK                         _______ _______ _______ _____ _____    ______ ____
ROOT
ATOM      1  C   UNL     1      -0.249  11.319  19.908  0.00  0.00    +0.000 A 
ATOM      2  N   UNL     1      -0.240  12.212  18.905  0.00  0.00    +0.000 NA
ATOM      3  N   UNL     1       0.638  11.713  18.015  0.00  0.00    +0.000 N 
ATOM      4  C   UNL     1       1.183  10.512  18.375  0.00  0.00    +0.000 A 
ATOM      5  C   UNL     1       2.110   9.661  17.758  0.00  0.00    +0.000 A 
ATOM      6  C   UNL     1       2.400   8.497  18.464  0.00  0.00    +0.000 A 
ATOM      7  N   UNL     1       1.830   8.189  19.651  0.00  0.00    +0.000 NA
ATOM      8  C   UNL     1       0.929   9.016  20.217  0.00  0.00    +0.000 A 
ATOM      9  C   UNL     1       0.600  10.218  19.601  0.00  0.00    +0.000 A 
ATOM     10  H   UNL     1       0.816  12.249  17.172  0.00  0.00    +0.000 HD
ENDROOT
BRANCH   1  14
ATOM     11  C   UNL     1      -4.164  13.326  22.282  0.00  0.00    +0.000 C 
ATOM     12  C   UNL     1      -2.947  12.455  22.252  0.00  0.00    +0.000 A 
ATOM     13  C   UNL     1      -2.191  12.318  21.092  0.00  0.00    +0.000 A 
ATOM     14  C   UNL     1      -1.052  11.512  21.118  0.00  0.00    +0.000 A 
ATOM     15  C   UNL     1      -0.701  10.893  22.320  0.00  0.00    +0.000 A 
ATOM     16  C   UNL     1      -1.515  11.073  23.423  0.00  0.00    +0.000 A 
ATOM     17  N   UNL     1      -2.627  11.832  23.411  0.00  0.00    +0.000 NA
ENDBRANCH   1  14
BRANCH   6  18
ATOM     18  N   UNL     1       3.317   7.584  17.923  0.00  0.00    +0.000 N 
ATOM     19  C   UNL     1       3.162   6.230  17.778  0.00  0.00    +0.000 C 
ATOM     20  O   UNL     1       4.053   5.565  17.252  0.00  0.00    +0.000 OA
ATOM     21  N   UNL     1       1.998   5.700  18.226  0.00  0.00    +0.000 N 
ATOM     22  H   UNL     1       4.196   7.930  17.570  0.00  0.00    +0.000 HD
ATOM     23  H   UNL     1       1.406   6.344  18.744  0.00  0.00    +0.000 HD
BRANCH  21  24
ATOM     24  C   UNL     1       1.629   4.314  18.196  0.00  0.00    +0.000 C 
BRANCH  24  25
ATOM     25  C   UNL     1       1.985   3.622  19.482  0.00  0.00    +0.000 A 
ATOM     26  C   UNL     1       1.073   3.516  20.538  0.00  0.00    +0.000 A 
ATOM     27  C   UNL     1       1.475   2.872  21.699  0.00  0.00    +0.000 A 
ATOM     28  N   UNL     1       2.703   2.341  21.880  0.00  0.00    +0.000 NA
ATOM     29  C   UNL     1       3.572   2.470  20.856  0.00  0.00    +0.000 A 
ATOM     30  C   UNL     1       3.266   3.094  19.658  0.00  0.00    +0.000 A 
ENDBRANCH  24  25
ENDBRANCH  21  24
ENDBRANCH   6  18
TORSDOF 4
ENDMDL
MODEL 7
REMARK VINA RESULT:      -8.1      4.539      7.236
REMARK  Name = 
REMARK  5 active torsions:
REMARK  status: ('A' for Active; 'I' for Inactive)
REMARK    1  A    between atoms: C_1  and  C_2
REMARK    2  A    between atoms: C_4  and  C_5
REMARK    3  A    between atoms: C_10  and  N_11
REMARK    4  A    between atoms: N_14  and  C_15
REMARK    5  A    between atoms: C_15  and  C_16
REMARK                            x       y       z     vdW  Elec       q    Type
REMARK                         _______ _______ _______ _____ _____    ______ ____
ROOT
ATOM      1  C   UNL     1       2.514   6.931  19.077  0.00  0.00    +0.000 A 
ATOM      2  N   UNL     1       2.785   7.390  17.845  0.00  0.00    +0.000 NA
ATOM      3  N   UNL     1       2.283   8.639  17.831  0.00  0.00    +0.000 N 
ATOM      4  C   UNL     1       1.722   9.034  19.013  0.00  0.00    +0.000 A 
ATOM      5  C   UNL     1       1.104  10.221  19.427  0.00  0.00    +0.000 A 
ATOM      6  C   UNL     1       0.665  10.226  20.749  0.00  0.00    +0.000 A 
ATOM      7  N   UNL     1       0.827   9.176  21.586  0.00  0.00    +0.000 NA
ATOM      8  C   UNL     1       1.438   8.050  21.169  0.00  0.00    +0.000 A 
ATOM      9  C   UNL     1       1.882   7.941  19.856  0.00  0.00    +0.000 A 
ATOM     10  H   UNL     1       2.364   9.174  16.972  0.00  0.00    +0.000 HD
ENDROOT
BRANCH   1  14
ATOM     11  C   UNL     1       1.447   2.718  21.548  0.00  0.00    +0.000 C 
ATOM     12  C   UNL     1       2.333   3.536  20.661  0.00  0.00    +0.000 A 
ATOM     13  C   UNL     1       1.989   4.838  20.307  0.00  0.00    +0.000 A 
ATOM     14  C   UNL     1       2.857   5.570  19.495  0.00  0.00    +0.000 A 
ATOM     15  C   UNL     1       4.053   4.973  19.090  0.00  0.00    +0.000 A 
ATOM     16  C   UNL     1       4.311   3.670  19.478  0.00  0.00    +0.000 A 
ATOM     17  N   UNL     1       3.477   2.944  20.245  0.00  0.00    +0.000 NA
ENDBRANCH   1  14
BRANCH   6  18
ATOM     18  N   UNL     1       0.036  11.373  21.252  0.00  0.00    +0.000 N 
ATOM     19  C   UNL     1      -1.121  11.957  20.804  0.00  0.00    +0.000 C 
ATOM     20  O   UNL     1      -1.566  12.951  21.376  0.00  0.00    +0.000 OA
ATOM     21  N   UNL     1      -1.721  11.376  19.737  0.00  0.00    +0.000 N 
ATOM     22  H   UNL     1       0.440  11.839  22.050  0.00  0.00    +0.000 HD
ATOM     23  H   UNL     1      -1.182  10.637  19.293  0.00  0.00    +0.000 HD
BRANCH  21  24
ATOM     24  C   UNL     1      -2.921  11.823  19.090  0.00  0.00    +0.000 C 
BRANCH  24  25
ATOM     25  C   UNL     1      -3.065  11.218  17.721  0.00  0.00    +0.000 A 
ATOM     26  C   UNL     1      -4.113  11.575  16.866  0.00  0.00    +0.000 A 
ATOM     27  C   UNL     1      -4.188  10.968  15.621  0.00  0.00    +0.000 A 
ATOM     28  N   UNL     1      -3.311  10.042  15.180  0.00  0.00    +0.000 NA
ATOM     29  C   UNL     1      -2.318   9.698  16.027  0.00  0.00    +0.000 A 
ATOM     30  C   UNL     1      -2.158  10.247  17.289  0.00  0.00    +0.000 A 
ENDBRANCH  24  25
ENDBRANCH  21  24
ENDBRANCH   6  18
TORSDOF 4
ENDMDL
MODEL 8
REMARK VINA RESULT:      -8.1      2.160      4.130
REMARK  Name = 
REMARK  5 active torsions:
REMARK  status: ('A' for Active; 'I' for Inactive)
REMARK    1  A    between atoms: C_1  and  C_2
REMARK    2  A    between atoms: C_4  and  C_5
REMARK    3  A    between atoms: C_10  and  N_11
REMARK    4  A    between atoms: N_14  and  C_15
REMARK    5  A    between atoms: C_15  and  C_16
REMARK                            x       y       z     vdW  Elec       q    Type
REMARK                         _______ _______ _______ _____ _____    ______ ____
ROOT
ATOM      1  C   UNL     1       4.108   4.287  18.191  0.00  0.00    +0.000 A 
ATOM      2  N   UNL     1       3.595   3.107  18.574  0.00  0.00    +0.000 NA
ATOM      3  N   UNL     1       2.642   3.427  19.469  0.00  0.00    +0.000 N 
ATOM      4  C   UNL     1       2.483   4.770  19.667  0.00  0.00    +0.000 A 
ATOM      5  C   UNL     1       1.627   5.520  20.484  0.00  0.00    +0.000 A 
ATOM      6  C   UNL     1       1.777   6.901  20.383  0.00  0.00    +0.000 A 
ATOM      7  N   UNL     1       2.670   7.490  19.555  0.00  0.00    +0.000 NA
ATOM      8  C   UNL     1       3.472   6.747  18.767  0.00  0.00    +0.000 A 
ATOM      9  C   UNL     1       3.416   5.360  18.823  0.00  0.00    +0.000 A 
ATOM     10  H   UNL     1       2.130   2.669  19.908  0.00  0.00    +0.000 HD
ENDROOT
BRANCH   1  14
ATOM     11  C   UNL     1       5.947   3.940  13.555  0.00  0.00    +0.000 C 
ATOM     12  C   UNL     1       6.100   4.243  15.013  0.00  0.00    +0.000 A 
ATOM     13  C   UNL     1       5.026   4.112  15.889  0.00  0.00    +0.000 A 
ATOM     14  C   UNL     1       5.222   4.384  17.244  0.00  0.00    +0.000 A 
ATOM     15  C   UNL     1       6.499   4.755  17.672  0.00  0.00    +0.000 A 
ATOM     16  C   UNL     1       7.507   4.873  16.731  0.00  0.00    +0.000 A 
ATOM     17  N   UNL     1       7.332   4.632  15.419  0.00  0.00    +0.000 NA
ENDBRANCH   1  14
BRANCH   6  18
ATOM     18  N   UNL     1       0.961   7.732  21.163  0.00  0.00    +0.000 N 
ATOM     19  C   UNL     1       0.389   8.923  20.798  0.00  0.00    +0.000 C 
ATOM     20  O   UNL     1      -0.333   9.525  21.592  0.00  0.00    +0.000 OA
ATOM     21  N   UNL     1       0.655   9.367  19.545  0.00  0.00    +0.000 N 
ATOM     22  H   UNL     1       0.728   7.444  22.101  0.00  0.00    +0.000 HD
ATOM     23  H   UNL     1       1.360   8.832  19.043  0.00  0.00    +0.000 HD
BRANCH  21  24
ATOM     24  C   UNL     1       0.184  10.588  18.958  0.00  0.00    +0.000 C 
BRANCH  24  25
ATOM     25  C   UNL     1       1.171  11.706  19.150  0.00  0.00    +0.000 A 
ATOM     26  C   UNL     1       2.108  12.036  18.165  0.00  0.00    +0.000 A 
ATOM     27  C   UNL     1       2.994  13.074  18.416  0.00  0.00    +0.000 A 
ATOM     28  N   UNL     1       3.014  13.788  19.561  0.00  0.00    +0.000 NA
ATOM     29  C   UNL     1       2.114  13.441  20.504  0.00  0.00    +0.000 A 
ATOM     30  C   UNL     1       1.189  12.423  20.349  0.00  0.00    +0.000 A 
ENDBRANCH  24  25
ENDBRANCH  21  24
ENDBRANCH   6  18
TORSDOF 4
ENDMDL
MODEL 9
REMARK VINA RESULT:      -8.1      3.810      6.833
REMARK  Name = 
REMARK  5 active torsions:
REMARK  status: ('A' for Active; 'I' for Inactive)
REMARK    1  A    between atoms: C_1  and  C_2
REMARK    2  A    between atoms: C_4  and  C_5
REMARK    3  A    between atoms: C_10  and  N_11
REMARK    4  A    between atoms: N_14  and  C_15
REMARK    5  A    between atoms: C_15  and  C_16
REMARK                            x       y       z     vdW  Elec       q    Type
REMARK                         _______ _______ _______ _____ _____    ______ ____
ROOT
ATOM      1  C   UNL     1       2.489   6.527  19.276  0.00  0.00    +0.000 A 
ATOM      2  N   UNL     1       2.083   6.285  20.532  0.00  0.00    +0.000 NA
ATOM      3  N   UNL     1       1.528   7.443  20.937  0.00  0.00    +0.000 N 
ATOM      4  C   UNL     1       1.522   8.427  19.988  0.00  0.00    +0.000 A 
ATOM      5  C   UNL     1       1.054   9.747  19.985  0.00  0.00    +0.000 A 
ATOM      6  C   UNL     1       1.232  10.432  18.786  0.00  0.00    +0.000 A 
ATOM      7  N   UNL     1       1.803   9.876  17.694  0.00  0.00    +0.000 NA
ATOM      8  C   UNL     1       2.233   8.598  17.716  0.00  0.00    +0.000 A 
ATOM      9  C   UNL     1       2.125   7.846  18.880  0.00  0.00    +0.000 A 
ATOM     10  H   UNL     1       1.165   7.489  21.884  0.00  0.00    +0.000 HD
ENDROOT
BRANCH   1  14
ATOM     11  C   UNL     1       6.701   4.670  17.325  0.00  0.00    +0.000 C 
ATOM     12  C   UNL     1       5.224   4.617  17.562  0.00  0.00    +0.000 A 
ATOM     13  C   UNL     1       4.580   5.604  18.302  0.00  0.00    +0.000 A 
ATOM     14  C   UNL     1       3.197   5.523  18.477  0.00  0.00    +0.000 A 
ATOM     15  C   UNL     1       2.510   4.464  17.880  0.00  0.00    +0.000 A 
ATOM     16  C   UNL     1       3.230   3.519  17.172  0.00  0.00    +0.000 A 
ATOM     17  N   UNL     1       4.565   3.572  17.007  0.00  0.00    +0.000 NA
ENDBRANCH   1  14
BRANCH   6  18
ATOM     18  N   UNL     1       0.792  11.760  18.689  0.00  0.00    +0.000 N 
ATOM     19  C   UNL     1      -0.368  12.217  18.121  0.00  0.00    +0.000 C 
ATOM     20  O   UNL     1      -0.629  13.419  18.142  0.00  0.00    +0.000 OA
ATOM     21  N   UNL     1      -1.181  11.285  17.566  0.00  0.00    +0.000 N 
ATOM     22  H   UNL     1       1.359  12.491  19.092  0.00  0.00    +0.000 HD
ATOM     23  H   UNL     1      -0.786  10.350  17.514  0.00  0.00    +0.000 HD
BRANCH  21  24
ATOM     24  C   UNL     1      -2.428  11.533  16.902  0.00  0.00    +0.000 C 
BRANCH  24  25
ATOM     25  C   UNL     1      -3.578  11.519  17.871  0.00  0.00    +0.000 A 
ATOM     26  C   UNL     1      -4.784  10.877  17.572  0.00  0.00    +0.000 A 
ATOM     27  C   UNL     1      -5.805  10.914  18.511  0.00  0.00    +0.000 A 
ATOM     28  N   UNL     1      -5.711  11.542  19.702  0.00  0.00    +0.000 NA
ATOM     29  C   UNL     1      -4.546  12.170  19.963  0.00  0.00    +0.000 A 
ATOM     30  C   UNL     1      -3.470  12.190  19.092  0.00  0.00    +0.000 A 
ENDBRANCH  24  25
ENDBRANCH  21  24
ENDBRANCH   6  18
TORSDOF 4
ENDMDL
