MODEL 1
REMARK VINA RESULT:      -6.2      0.000      0.000
REMARK  Name = 
REMARK  5 active torsions:
REMARK  status: ('A' for Active; 'I' for Inactive)
REMARK    1  A    between atoms: C_1  and  O_2
REMARK    2  A    between atoms: O_2  and  C_3
REMARK    3  A    between atoms: C_3  and  C_5
REMARK    4  A    between atoms: C_8  and  N_9
REMARK    5  A    between atoms: N_10  and  N_11
REMARK                            x       y       z     vdW  Elec       q    Type
REMARK                         _______ _______ _______ _____ _____    ______ ____
ROOT
ATOM      1  C   UNL     1       6.665   5.022  15.234  0.00  0.00    +0.000 A 
ATOM      2  C   UNL     1       5.363   5.519  15.367  0.00  0.00    +0.000 A 
ATOM      3  C   UNL     1       4.747   5.560  16.625  0.00  0.00    +0.000 A 
ATOM      4  C   UNL     1       5.407   5.093  17.771  0.00  0.00    +0.000 A 
ATOM      5  C   UNL     1       6.731   4.647  17.632  0.00  0.00    +0.000 A 
ATOM      6  C   UNL     1       7.353   4.599  16.376  0.00  0.00    +0.000 A 
ENDROOT
BRANCH   1   7
ATOM      7  C   UNL     1       7.259   4.961  13.871  0.00  0.00    +0.000 C 
ATOM      8  O   UNL     1       8.165   5.688  13.502  0.00  0.00    +0.000 OA
BRANCH   7  10
ATOM      9  C   UNL     1       7.049   4.008  11.749  0.00  0.00    +0.000 C 
ATOM     10  O   UNL     1       6.653   4.005  13.121  0.00  0.00    +0.000 OA
ENDBRANCH   7  10
ENDBRANCH   1   7
BRANCH   4  11
ATOM     11  N   UNL     1       4.683   5.067  18.985  0.00  0.00    +0.000 NA
ATOM     12  N   UNL     1       4.339   3.915  19.314  0.00  0.00    +0.000 NA
BRANCH  12  13
ATOM     13  N   UNL     1       3.448   3.869  20.344  0.00  0.00    +0.000 N 
ATOM     14  C   UNL     1       3.092   2.670  21.095  0.00  0.00    +0.000 C 
ATOM     15  C   UNL     1       1.630   2.294  20.832  0.00  0.00    +0.000 C 
ATOM     16  O   UNL     1       0.750   3.408  21.074  0.00  0.00    +0.000 OA
ATOM     17  C   UNL     1       1.097   4.524  20.231  0.00  0.00    +0.000 C 
ATOM     18  C   UNL     1       2.531   4.989  20.501  0.00  0.00    +0.000 C 
ENDBRANCH  12  13
ENDBRANCH   4  11
TORSDOF 4
ENDMDL
MODEL 2
REMARK VINA RESULT:      -6.1      5.603      7.886
REMARK  Name = 
REMARK  5 active torsions:
REMARK  status: ('A' for Active; 'I' for Inactive)
REMARK    1  A    between atoms: C_1  and  O_2
REMARK    2  A    between atoms: O_2  and  C_3
REMARK    3  A    between atoms: C_3  and  C_5
REMARK    4  A    between atoms: C_8  and  N_9
REMARK    5  A    between atoms: N_10  and  N_11
REMARK                            x       y       z     vdW  Elec       q    Type
REMARK                         _______ _______ _______ _____ _____    ______ ____
ROOT
ATOM      1  C   UNL     1       6.298   5.418  18.248  0.00  0.00    +0.000 A 
ATOM      2  C   UNL     1       5.916   6.400  17.327  0.00  0.00    +0.000 A 
ATOM      3  C   UNL     1       6.667   7.575  17.195  0.00  0.00    +0.000 A 
ATOM      4  C   UNL     1       7.801   7.804  17.987  0.00  0.00    +0.000 A 
ATOM      5  C   UNL     1       8.204   6.788  18.869  0.00  0.00    +0.000 A 
ATOM      6  C   UNL     1       7.455   5.610  19.010  0.00  0.00    +0.000 A 
ENDROOT
BRANCH   1   7
ATOM      7  C   UNL     1       5.443   4.206  18.380  0.00  0.00    +0.000 C 
ATOM      8  O   UNL     1       5.337   3.572  19.415  0.00  0.00    +0.000 OA
BRANCH   7  10
ATOM      9  C   UNL     1       3.449   3.558  17.352  0.00  0.00    +0.000 C 
ATOM     10  O   UNL     1       4.823   3.921  17.207  0.00  0.00    +0.000 OA
ENDBRANCH   7  10
ENDBRANCH   1   7
BRANCH   4  11
ATOM     11  N   UNL     1       8.444   9.058  17.873  0.00  0.00    +0.000 NA
ATOM     12  N   UNL     1       8.887   9.471  18.962  0.00  0.00    +0.000 NA
BRANCH  12  13
ATOM     13  N   UNL     1       9.303  10.769  18.942  0.00  0.00    +0.000 N 
ATOM     14  C   UNL     1      10.012  11.407  17.838  0.00  0.00    +0.000 C 
ATOM     15  C   UNL     1      11.441  11.764  18.262  0.00  0.00    +0.000 C 
ATOM     16  O   UNL     1      11.451  12.537  19.477  0.00  0.00    +0.000 OA
ATOM     17  C   UNL     1      10.822  11.808  20.549  0.00  0.00    +0.000 C 
ATOM     18  C   UNL     1       9.364  11.484  20.209  0.00  0.00    +0.000 C 
ENDBRANCH  12  13
ENDBRANCH   4  11
TORSDOF 4
ENDMDL
MODEL 3
REMARK VINA RESULT:      -6.0      4.004      8.088
REMARK  Name = 
REMARK  5 active torsions:
REMARK  status: ('A' for Active; 'I' for Inactive)
REMARK    1  A    between atoms: C_1  and  O_2
REMARK    2  A    between atoms: O_2  and  C_3
REMARK    3  A    between atoms: C_3  and  C_5
REMARK    4  A    between atoms: C_8  and  N_9
REMARK    5  A    between atoms: N_10  and  N_11
REMARK                            x       y       z     vdW  Elec       q    Type
REMARK                         _______ _______ _______ _____ _____    ______ ____
ROOT
ATOM      1  C   UNL     1       0.808   9.048  20.040  0.00  0.00    +0.000 A 
ATOM      2  C   UNL     1       1.005   9.657  18.796  0.00  0.00    +0.000 A 
ATOM      3  C   UNL     1       1.934   9.130  17.889  0.00  0.00    +0.000 A 
ATOM      4  C   UNL     1       2.696   7.997  18.209  0.00  0.00    +0.000 A 
ATOM      5  C   UNL     1       2.451   7.364  19.438  0.00  0.00    +0.000 A 
ATOM      6  C   UNL     1       1.526   7.888  20.353  0.00  0.00    +0.000 A 
ENDROOT
BRANCH   1   7
ATOM      7  C   UNL     1      -0.160   9.671  20.983  0.00  0.00    +0.000 C 
ATOM      8  O   UNL     1      -0.688  10.751  20.783  0.00  0.00    +0.000 OA
BRANCH   7  10
ATOM      9  C   UNL     1      -0.131   9.543  23.315  0.00  0.00    +0.000 C 
ATOM     10  O   UNL     1      -0.355   8.881  22.070  0.00  0.00    +0.000 OA
ENDBRANCH   7  10
ENDBRANCH   1   7
BRANCH   4  11
ATOM     11  N   UNL     1       3.689   7.587  17.289  0.00  0.00    +0.000 NA
ATOM     12  N   UNL     1       4.308   6.576  17.670  0.00  0.00    +0.000 NA
BRANCH  12  13
ATOM     13  N   UNL     1       5.418   6.288  16.933  0.00  0.00    +0.000 N 
ATOM     14  C   UNL     1       5.448   5.416  15.764  0.00  0.00    +0.000 C 
ATOM     15  C   UNL     1       6.265   4.155  16.064  0.00  0.00    +0.000 C 
ATOM     16  O   UNL     1       7.572   4.483  16.572  0.00  0.00    +0.000 OA
ATOM     17  C   UNL     1       7.468   5.262  17.779  0.00  0.00    +0.000 C 
ATOM     18  C   UNL     1       6.719   6.573  17.523  0.00  0.00    +0.000 C 
ENDBRANCH  12  13
ENDBRANCH   4  11
TORSDOF 4
ENDMDL
MODEL 4
REMARK VINA RESULT:      -5.9      3.597      4.379
REMARK  Name = 
REMARK  5 active torsions:
REMARK  status: ('A' for Active; 'I' for Inactive)
REMARK    1  A    between atoms: C_1  and  O_2
REMARK    2  A    between atoms: O_2  and  C_3
REMARK    3  A    between atoms: C_3  and  C_5
REMARK    4  A    between atoms: C_8  and  N_9
REMARK    5  A    between atoms: N_10  and  N_11
REMARK                            x       y       z     vdW  Elec       q    Type
REMARK                         _______ _______ _______ _____ _____    ______ ____
ROOT
ATOM      1  C   UNL     1       5.410   5.026  16.854  0.00  0.00    +0.000 A 
ATOM      2  C   UNL     1       5.244   6.405  16.681  0.00  0.00    +0.000 A 
ATOM      3  C   UNL     1       4.161   7.067  17.274  0.00  0.00    +0.000 A 
ATOM      4  C   UNL     1       3.212   6.368  18.033  0.00  0.00    +0.000 A 
ATOM      5  C   UNL     1       3.419   4.995  18.242  0.00  0.00    +0.000 A 
ATOM      6  C   UNL     1       4.499   4.324  17.650  0.00  0.00    +0.000 A 
ENDROOT
BRANCH   1   7
ATOM      7  C   UNL     1       6.554   4.364  16.169  0.00  0.00    +0.000 C 
ATOM      8  O   UNL     1       7.719   4.594  16.440  0.00  0.00    +0.000 OA
BRANCH   7  10
ATOM      9  C   UNL     1       6.241   3.982  13.886  0.00  0.00    +0.000 C 
ATOM     10  O   UNL     1       6.115   3.495  15.223  0.00  0.00    +0.000 OA
ENDBRANCH   7  10
ENDBRANCH   1   7
BRANCH   4  11
ATOM     11  N   UNL     1       2.089   7.084  18.509  0.00  0.00    +0.000 NA
ATOM     12  N   UNL     1       2.403   8.009  19.284  0.00  0.00    +0.000 NA
BRANCH  12  13
ATOM     13  N   UNL     1       1.349   8.569  19.942  0.00  0.00    +0.000 N 
ATOM     14  C   UNL     1       0.675   9.804  19.554  0.00  0.00    +0.000 C 
ATOM     15  C   UNL     1       0.916  10.892  20.605  0.00  0.00    +0.000 C 
ATOM     16  O   UNL     1       0.565  10.434  21.925  0.00  0.00    +0.000 OA
ATOM     17  C   UNL     1       1.336   9.271  22.282  0.00  0.00    +0.000 C 
ATOM     18  C   UNL     1       1.081   8.122  21.301  0.00  0.00    +0.000 C 
ENDBRANCH  12  13
ENDBRANCH   4  11
TORSDOF 4
ENDMDL
MODEL 5
REMARK VINA RESULT:      -5.9      4.604      7.756
REMARK  Name = 
REMARK  5 active torsions:
REMARK  status: ('A' for Active; 'I' for Inactive)
REMARK    1  A    between atoms: C_1  and  O_2
REMARK    2  A    between atoms: O_2  and  C_3
REMARK    3  A    between atoms: C_3  and  C_5
REMARK    4  A    between atoms: C_8  and  N_9
REMARK    5  A    between atoms: N_10  and  N_11
REMARK                            x       y       z     vdW  Elec       q    Type
REMARK                         _______ _______ _______ _____ _____    ______ ____
ROOT
ATOM      1  C   UNL     1       0.723   9.680  20.389  0.00  0.00    +0.000 A 
ATOM      2  C   UNL     1       1.139   9.700  19.052  0.00  0.00    +0.000 A 
ATOM      3  C   UNL     1       1.858   8.622  18.520  0.00  0.00    +0.000 A 
ATOM      4  C   UNL     1       2.193   7.513  19.308  0.00  0.00    +0.000 A 
ATOM      5  C   UNL     1       1.725   7.482  20.632  0.00  0.00    +0.000 A 
ATOM      6  C   UNL     1       1.007   8.558  21.174  0.00  0.00    +0.000 A 
ENDROOT
BRANCH   1   7
ATOM      7  C   UNL     1      -0.002  10.867  20.918  0.00  0.00    +0.000 C 
ATOM      8  O   UNL     1      -0.626  11.639  20.212  0.00  0.00    +0.000 OA
BRANCH   7  10
ATOM      9  C   UNL     1      -1.098  11.092  22.968  0.00  0.00    +0.000 C 
ATOM     10  O   UNL     1       0.138  10.959  22.266  0.00  0.00    +0.000 OA
ENDBRANCH   7  10
ENDBRANCH   1   7
BRANCH   4  11
ATOM     11  N   UNL     1       3.012   6.515  18.732  0.00  0.00    +0.000 NA
ATOM     12  N   UNL     1       2.409   5.437  18.565  0.00  0.00    +0.000 NA
BRANCH  12  13
ATOM     13  N   UNL     1       3.215   4.390  18.232  0.00  0.00    +0.000 N 
ATOM     14  C   UNL     1       2.905   3.374  17.232  0.00  0.00    +0.000 C 
ATOM     15  C   UNL     1       2.711   2.011  17.903  0.00  0.00    +0.000 C 
ATOM     16  O   UNL     1       3.835   1.672  18.739  0.00  0.00    +0.000 OA
ATOM     17  C   UNL     1       4.024   2.667  19.764  0.00  0.00    +0.000 C 
ATOM     18  C   UNL     1       4.293   4.044  19.148  0.00  0.00    +0.000 C 
ENDBRANCH  12  13
ENDBRANCH   4  11
TORSDOF 4
ENDMDL
MODEL 6
REMARK VINA RESULT:      -5.9      4.485      7.697
REMARK  Name = 
REMARK  5 active torsions:
REMARK  status: ('A' for Active; 'I' for Inactive)
REMARK    1  A    between atoms: C_1  and  O_2
REMARK    2  A    between atoms: O_2  and  C_3
REMARK    3  A    between atoms: C_3  and  C_5
REMARK    4  A    between atoms: C_8  and  N_9
REMARK    5  A    between atoms: N_10  and  N_11
REMARK                            x       y       z     vdW  Elec       q    Type
REMARK                         _______ _______ _______ _____ _____    ______ ____
ROOT
ATOM      1  C   UNL     1       1.147   9.734  19.095  0.00  0.00    +0.000 A 
ATOM      2  C   UNL     1       1.726   9.414  17.861  0.00  0.00    +0.000 A 
ATOM      3  C   UNL     1       2.430   8.213  17.702  0.00  0.00    +0.000 A 
ATOM      4  C   UNL     1       2.586   7.317  18.768  0.00  0.00    +0.000 A 
ATOM      5  C   UNL     1       1.956   7.625  19.985  0.00  0.00    +0.000 A 
ATOM      6  C   UNL     1       1.253   8.827  20.154  0.00  0.00    +0.000 A 
ENDROOT
BRANCH   1   7
ATOM      7  C   UNL     1       0.446  11.041  19.225  0.00  0.00    +0.000 C 
ATOM      8  O   UNL     1       1.020  12.115  19.183  0.00  0.00    +0.000 OA
BRANCH   7  10
ATOM      9  C   UNL     1      -1.496  11.817  20.264  0.00  0.00    +0.000 C 
ATOM     10  O   UNL     1      -0.889  10.859  19.396  0.00  0.00    +0.000 OA
ENDBRANCH   7  10
ENDBRANCH   1   7
BRANCH   4  11
ATOM     11  N   UNL     1       3.400   6.179  18.561  0.00  0.00    +0.000 NA
ATOM     12  N   UNL     1       4.449   6.445  17.944  0.00  0.00    +0.000 NA
BRANCH  12  13
ATOM     13  N   UNL     1       5.144   5.351  17.522  0.00  0.00    +0.000 N 
ATOM     14  C   UNL     1       6.088   4.590  18.333  0.00  0.00    +0.000 C 
ATOM     15  C   UNL     1       7.508   4.746  17.779  0.00  0.00    +0.000 C 
ATOM     16  O   UNL     1       7.564   4.425  16.376  0.00  0.00    +0.000 OA
ATOM     17  C   UNL     1       6.680   5.279  15.623  0.00  0.00    +0.000 C 
ATOM     18  C   UNL     1       5.230   5.112  16.088  0.00  0.00    +0.000 C 
ENDBRANCH  12  13
ENDBRANCH   4  11
TORSDOF 4
ENDMDL
MODEL 7
REMARK VINA RESULT:      -5.9      1.122      1.224
REMARK  Name = 
REMARK  5 active torsions:
REMARK  status: ('A' for Active; 'I' for Inactive)
REMARK    1  A    between atoms: C_1  and  O_2
REMARK    2  A    between atoms: O_2  and  C_3
REMARK    3  A    between atoms: C_3  and  C_5
REMARK    4  A    between atoms: C_8  and  N_9
REMARK    5  A    between atoms: N_10  and  N_11
REMARK                            x       y       z     vdW  Elec       q    Type
REMARK                         _______ _______ _______ _____ _____    ______ ____
ROOT
ATOM      1  C   UNL     1       6.283   4.296  14.207  0.00  0.00    +0.000 A 
ATOM      2  C   UNL     1       4.969   4.069  14.631  0.00  0.00    +0.000 A 
ATOM      3  C   UNL     1       4.644   4.139  15.992  0.00  0.00    +0.000 A 
ATOM      4  C   UNL     1       5.621   4.417  16.958  0.00  0.00    +0.000 A 
ATOM      5  C   UNL     1       6.925   4.694  16.514  0.00  0.00    +0.000 A 
ATOM      6  C   UNL     1       7.259   4.623  15.154  0.00  0.00    +0.000 A 
ENDROOT
BRANCH   1   7
ATOM      7  C   UNL     1       6.585   4.170  12.755  0.00  0.00    +0.000 C 
ATOM      8  O   UNL     1       7.577   4.649  12.233  0.00  0.00    +0.000 OA
BRANCH   7  10
ATOM      9  C   UNL     1       6.057   2.212  11.596  0.00  0.00    +0.000 C 
ATOM     10  O   UNL     1       5.615   3.465  12.118  0.00  0.00    +0.000 OA
ENDBRANCH   7  10
ENDBRANCH   1   7
BRANCH   4  11
ATOM     11  N   UNL     1       5.240   4.363  18.319  0.00  0.00    +0.000 NA
ATOM     12  N   UNL     1       4.230   3.658  18.507  0.00  0.00    +0.000 NA
BRANCH  12  13
ATOM     13  N   UNL     1       3.695   3.766  19.756  0.00  0.00    +0.000 N 
ATOM     14  C   UNL     1       3.371   2.646  20.632  0.00  0.00    +0.000 C 
ATOM     15  C   UNL     1       1.855   2.550  20.831  0.00  0.00    +0.000 C 
ATOM     16  O   UNL     1       1.303   3.805  21.271  0.00  0.00    +0.000 OA
ATOM     17  C   UNL     1       1.575   4.846  20.313  0.00  0.00    +0.000 C 
ATOM     18  C   UNL     1       3.084   5.035  20.126  0.00  0.00    +0.000 C 
ENDBRANCH  12  13
ENDBRANCH   4  11
TORSDOF 4
ENDMDL
MODEL 8
REMARK VINA RESULT:      -5.9      4.718      6.934
REMARK  Name = 
REMARK  5 active torsions:
REMARK  status: ('A' for Active; 'I' for Inactive)
REMARK    1  A    between atoms: C_1  and  O_2
REMARK    2  A    between atoms: O_2  and  C_3
REMARK    3  A    between atoms: C_3  and  C_5
REMARK    4  A    between atoms: C_8  and  N_9
REMARK    5  A    between atoms: N_10  and  N_11
REMARK                            x       y       z     vdW  Elec       q    Type
REMARK                         _______ _______ _______ _____ _____    ______ ____
ROOT
ATOM      1  C   UNL     1       1.209   9.825  19.085  0.00  0.00    +0.000 A 
ATOM      2  C   UNL     1       1.770   9.235  17.947  0.00  0.00    +0.000 A 
ATOM      3  C   UNL     1       2.296   7.938  18.010  0.00  0.00    +0.000 A 
ATOM      4  C   UNL     1       2.291   7.211  19.208  0.00  0.00    +0.000 A 
ATOM      5  C   UNL     1       1.678   7.794  20.329  0.00  0.00    +0.000 A 
ATOM      6  C   UNL     1       1.152   9.093  20.276  0.00  0.00    +0.000 A 
ENDROOT
BRANCH   1   7
ATOM      7  C   UNL     1       0.701  11.220  18.977  0.00  0.00    +0.000 C 
ATOM      8  O   UNL     1       1.399  12.163  18.648  0.00  0.00    +0.000 OA
BRANCH   7  10
ATOM      9  C   UNL     1      -1.466  11.599  18.190  0.00  0.00    +0.000 C 
ATOM     10  O   UNL     1      -0.618  11.282  19.295  0.00  0.00    +0.000 OA
ENDBRANCH   7  10
ENDBRANCH   1   7
BRANCH   4  11
ATOM     11  N   UNL     1       2.936   5.953  19.220  0.00  0.00    +0.000 NA
ATOM     12  N   UNL     1       3.659   5.774  18.221  0.00  0.00    +0.000 NA
BRANCH  12  13
ATOM     13  N   UNL     1       4.111   4.496  18.077  0.00  0.00    +0.000 N 
ATOM     14  C   UNL     1       3.597   3.526  17.116  0.00  0.00    +0.000 C 
ATOM     15  C   UNL     1       2.897   2.376  17.847  0.00  0.00    +0.000 C 
ATOM     16  O   UNL     1       3.750   1.796  18.852  0.00  0.00    +0.000 OA
ATOM     17  C   UNL     1       4.141   2.786  19.822  0.00  0.00    +0.000 C 
ATOM     18  C   UNL     1       4.910   3.932  19.155  0.00  0.00    +0.000 C 
ENDBRANCH  12  13
ENDBRANCH   4  11
TORSDOF 4
ENDMDL
MODEL 9
REMARK VINA RESULT:      -5.9      4.692      7.223
REMARK  Name = 
REMARK  5 active torsions:
REMARK  status: ('A' for Active; 'I' for Inactive)
REMARK    1  A    between atoms: C_1  and  O_2
REMARK    2  A    between atoms: O_2  and  C_3
REMARK    3  A    between atoms: C_3  and  C_5
REMARK    4  A    between atoms: C_8  and  N_9
REMARK    5  A    between atoms: N_10  and  N_11
REMARK                            x       y       z     vdW  Elec       q    Type
REMARK                         _______ _______ _______ _____ _____    ______ ____
ROOT
ATOM      1  C   UNL     1       0.990   9.769  19.281  0.00  0.00    +0.000 A 
ATOM      2  C   UNL     1       1.095   8.961  20.418  0.00  0.00    +0.000 A 
ATOM      3  C   UNL     1       1.736   7.717  20.344  0.00  0.00    +0.000 A 
ATOM      4  C   UNL     1       2.268   7.246  19.136  0.00  0.00    +0.000 A 
ATOM      5  C   UNL     1       2.202   8.090  18.015  0.00  0.00    +0.000 A 
ATOM      6  C   UNL     1       1.559   9.335  18.080  0.00  0.00    +0.000 A 
ENDROOT
BRANCH   1   7
ATOM      7  C   UNL     1       0.263  11.063  19.402  0.00  0.00    +0.000 C 
ATOM      8  O   UNL     1       0.802  12.104  19.735  0.00  0.00    +0.000 OA
BRANCH   7  10
ATOM      9  C   UNL     1      -1.855  12.047  19.421  0.00  0.00    +0.000 C 
ATOM     10  O   UNL     1      -1.052  10.910  19.100  0.00  0.00    +0.000 OA
ENDBRANCH   7  10
ENDBRANCH   1   7
BRANCH   4  11
ATOM     11  N   UNL     1       2.803   5.938  19.114  0.00  0.00    +0.000 NA
ATOM     12  N   UNL     1       3.698   5.799  18.258  0.00  0.00    +0.000 NA
BRANCH  12  13
ATOM     13  N   UNL     1       4.074   4.506  18.045  0.00  0.00    +0.000 N 
ATOM     14  C   UNL     1       3.395   3.568  17.158  0.00  0.00    +0.000 C 
ATOM     15  C   UNL     1       2.757   2.437  17.972  0.00  0.00    +0.000 C 
ATOM     16  O   UNL     1       3.717   1.813  18.846  0.00  0.00    +0.000 OA
ATOM     17  C   UNL     1       4.277   2.776  19.759  0.00  0.00    +0.000 C 
ATOM     18  C   UNL     1       4.991   3.899  18.999  0.00  0.00    +0.000 C 
ENDBRANCH  12  13
ENDBRANCH   4  11
TORSDOF 4
ENDMDL
