MODEL 1
REMARK VINA RESULT:      -6.8      0.000      0.000
REMARK  Name = 
REMARK  5 active torsions:
REMARK  status: ('A' for Active; 'I' for Inactive)
REMARK    1  A    between atoms: C_1  and  C_2
REMARK    2  A    between atoms: N_10  and  C_11
REMARK    3  A    between atoms: C_14  and  N_15
REMARK    4  A    between atoms: N_15  and  C_16
REMARK    5  A    between atoms: N_15  and  C_17
REMARK                            x       y       z     vdW  Elec       q    Type
REMARK                         _______ _______ _______ _____ _____    ______ ____
ROOT
ATOM      1  C   UNL     1       6.360   6.790  17.382  0.00  0.00    +0.000 C 
ATOM      2  C   UNL     1       5.673   5.498  17.133  0.00  0.00    +0.000 A 
ATOM      3  C   UNL     1       6.207   4.417  16.452  0.00  0.00    +0.000 A 
ATOM      4  N   UNL     1       5.255   3.434  16.392  0.00  0.00    +0.000 N 
ATOM      5  C   UNL     1       4.116   3.855  17.015  0.00  0.00    +0.000 A 
ATOM      6  N   UNL     1       2.993   3.127  17.095  0.00  0.00    +0.000 NA
ATOM      7  C   UNL     1       2.042   3.783  17.770  0.00  0.00    +0.000 A 
ATOM      8  N   UNL     1       2.117   5.002  18.337  0.00  0.00    +0.000 NA
ATOM      9  C   UNL     1       3.270   5.712  18.236  0.00  0.00    +0.000 A 
ATOM     10  N   UNL     1       3.361   6.979  18.839  0.00  0.00    +0.000 N 
ATOM     11  C   UNL     1       4.339   5.127  17.526  0.00  0.00    +0.000 A 
ATOM     12  H   UNL     1       5.352   2.530  15.953  0.00  0.00    +0.000 HD
ATOM     13  H   UNL     1       4.125   7.506  18.438  0.00  0.00    +0.000 HD
ENDROOT
BRANCH  10  14
ATOM     14  C   UNL     1       2.097   7.707  18.915  0.00  0.00    +0.000 C 
ATOM     15  C   UNL     1       1.840   8.219  20.331  0.00  0.00    +0.000 C 
ATOM     16  C   UNL     1       0.478   8.908  20.399  0.00  0.00    +0.000 C 
ATOM     17  C   UNL     1       0.328  10.075  19.388  0.00  0.00    +0.000 C 
ATOM     18  C   UNL     1       0.787   9.622  17.978  0.00  0.00    +0.000 C 
ATOM     19  C   UNL     1       2.140   8.915  17.978  0.00  0.00    +0.000 C 
BRANCH  17  20
ATOM     20  N   UNL     1      -1.069  10.585  19.352  0.00  0.00    +0.000 NA
ATOM     21  C   UNL     1      -1.686  10.457  18.027  0.00  0.00    +0.000 C 
ATOM     22  C   UNL     1      -1.174  11.985  19.778  0.00  0.00    +0.000 C 
ENDBRANCH  17  20
ENDBRANCH  10  14
TORSDOF 2
ENDMDL
MODEL 2
REMARK VINA RESULT:      -6.8      1.612      2.347
REMARK  Name = 
REMARK  5 active torsions:
REMARK  status: ('A' for Active; 'I' for Inactive)
REMARK    1  A    between atoms: C_1  and  C_2
REMARK    2  A    between atoms: N_10  and  C_11
REMARK    3  A    between atoms: C_14  and  N_15
REMARK    4  A    between atoms: N_15  and  C_16
REMARK    5  A    between atoms: N_15  and  C_17
REMARK                            x       y       z     vdW  Elec       q    Type
REMARK                         _______ _______ _______ _____ _____    ______ ____
ROOT
ATOM      1  C   UNL     1       4.507   4.093  16.719  0.00  0.00    +0.000 C 
ATOM      2  C   UNL     1       3.709   3.256  17.651  0.00  0.00    +0.000 A 
ATOM      3  C   UNL     1       3.679   1.871  17.669  0.00  0.00    +0.000 A 
ATOM      4  N   UNL     1       2.795   1.473  18.636  0.00  0.00    +0.000 N 
ATOM      5  C   UNL     1       2.248   2.567  19.241  0.00  0.00    +0.000 A 
ATOM      6  N   UNL     1       1.322   2.504  20.208  0.00  0.00    +0.000 NA
ATOM      7  C   UNL     1       0.975   3.728  20.623  0.00  0.00    +0.000 A 
ATOM      8  N   UNL     1       1.448   4.913  20.196  0.00  0.00    +0.000 NA
ATOM      9  C   UNL     1       2.386   4.941  19.213  0.00  0.00    +0.000 A 
ATOM     10  N   UNL     1       2.896   6.175  18.774  0.00  0.00    +0.000 N 
ATOM     11  C   UNL     1       2.814   3.706  18.684  0.00  0.00    +0.000 A 
ATOM     12  H   UNL     1       2.558   0.522  18.878  0.00  0.00    +0.000 HD
ATOM     13  H   UNL     1       3.331   6.073  17.867  0.00  0.00    +0.000 HD
ENDROOT
BRANCH  10  14
ATOM     14  C   UNL     1       1.957   7.289  18.874  0.00  0.00    +0.000 C 
ATOM     15  C   UNL     1       1.976   7.902  20.274  0.00  0.00    +0.000 C 
ATOM     16  C   UNL     1       0.932   9.013  20.373  0.00  0.00    +0.000 C 
ATOM     17  C   UNL     1       1.119  10.130  19.313  0.00  0.00    +0.000 C 
ATOM     18  C   UNL     1       1.310   9.505  17.907  0.00  0.00    +0.000 C 
ATOM     19  C   UNL     1       2.345   8.383  17.877  0.00  0.00    +0.000 C 
BRANCH  17  20
ATOM     20  N   UNL     1      -0.024  11.081  19.319  0.00  0.00    +0.000 NA
ATOM     21  C   UNL     1      -0.584  11.288  20.659  0.00  0.00    +0.000 C 
ATOM     22  C   UNL     1      -1.111  10.668  18.423  0.00  0.00    +0.000 C 
ENDBRANCH  17  20
ENDBRANCH  10  14
TORSDOF 2
ENDMDL
MODEL 3
REMARK VINA RESULT:      -6.7      1.854      2.153
REMARK  Name = 
REMARK  5 active torsions:
REMARK  status: ('A' for Active; 'I' for Inactive)
REMARK    1  A    between atoms: C_1  and  C_2
REMARK    2  A    between atoms: N_10  and  C_11
REMARK    3  A    between atoms: C_14  and  N_15
REMARK    4  A    between atoms: N_15  and  C_16
REMARK    5  A    between atoms: N_15  and  C_17
REMARK                            x       y       z     vdW  Elec       q    Type
REMARK                         _______ _______ _______ _____ _____    ______ ____
ROOT
ATOM      1  C   UNL     1       5.618   5.254  18.963  0.00  0.00    +0.000 C 
ATOM      2  C   UNL     1       4.667   4.161  19.289  0.00  0.00    +0.000 A 
ATOM      3  C   UNL     1       4.930   2.805  19.189  0.00  0.00    +0.000 A 
ATOM      4  N   UNL     1       3.795   2.121  19.533  0.00  0.00    +0.000 N 
ATOM      5  C   UNL     1       2.802   3.002  19.849  0.00  0.00    +0.000 A 
ATOM      6  N   UNL     1       1.560   2.638  20.196  0.00  0.00    +0.000 NA
ATOM      7  C   UNL     1       0.801   3.708  20.461  0.00  0.00    +0.000 A 
ATOM      8  N   UNL     1       1.155   5.005  20.425  0.00  0.00    +0.000 NA
ATOM      9  C   UNL     1       2.423   5.339  20.068  0.00  0.00    +0.000 A 
ATOM     10  N   UNL     1       2.805   6.692  20.044  0.00  0.00    +0.000 N 
ATOM     11  C   UNL     1       3.309   4.291  19.746  0.00  0.00    +0.000 A 
ATOM     12  H   UNL     1       3.680   1.117  19.550  0.00  0.00    +0.000 HD
ATOM     13  H   UNL     1       3.638   6.812  19.484  0.00  0.00    +0.000 HD
ENDROOT
BRANCH  10  14
ATOM     14  C   UNL     1       1.723   7.622  19.728  0.00  0.00    +0.000 C 
ATOM     15  C   UNL     1       1.447   8.563  20.899  0.00  0.00    +0.000 C 
ATOM     16  C   UNL     1       0.262   9.471  20.572  0.00  0.00    +0.000 C 
ATOM     17  C   UNL     1       0.462  10.298  19.275  0.00  0.00    +0.000 C 
ATOM     18  C   UNL     1       0.947   9.379  18.124  0.00  0.00    +0.000 C 
ATOM     19  C   UNL     1       2.112   8.475  18.520  0.00  0.00    +0.000 C 
BRANCH  17  20
ATOM     20  N   UNL     1      -0.785  11.014  18.891  0.00  0.00    +0.000 NA
ATOM     21  C   UNL     1      -1.495  10.363  17.785  0.00  0.00    +0.000 C 
ATOM     22  C   UNL     1      -0.546  12.415  18.527  0.00  0.00    +0.000 C 
ENDBRANCH  17  20
ENDBRANCH  10  14
TORSDOF 2
ENDMDL
MODEL 4
REMARK VINA RESULT:      -6.7      1.972      3.268
REMARK  Name = 
REMARK  5 active torsions:
REMARK  status: ('A' for Active; 'I' for Inactive)
REMARK    1  A    between atoms: C_1  and  C_2
REMARK    2  A    between atoms: N_10  and  C_11
REMARK    3  A    between atoms: C_14  and  N_15
REMARK    4  A    between atoms: N_15  and  C_16
REMARK    5  A    between atoms: N_15  and  C_17
REMARK                            x       y       z     vdW  Elec       q    Type
REMARK                         _______ _______ _______ _____ _____    ______ ____
ROOT
ATOM      1  C   UNL     1       1.393   3.212  19.980  0.00  0.00    +0.000 C 
ATOM      2  C   UNL     1       2.856   3.173  19.724  0.00  0.00    +0.000 A 
ATOM      3  C   UNL     1       3.682   2.080  19.928  0.00  0.00    +0.000 A 
ATOM      4  N   UNL     1       4.965   2.449  19.622  0.00  0.00    +0.000 N 
ATOM      5  C   UNL     1       4.989   3.756  19.230  0.00  0.00    +0.000 A 
ATOM      6  N   UNL     1       6.106   4.417  18.897  0.00  0.00    +0.000 NA
ATOM      7  C   UNL     1       5.832   5.679  18.544  0.00  0.00    +0.000 A 
ATOM      8  N   UNL     1       4.630   6.281  18.488  0.00  0.00    +0.000 NA
ATOM      9  C   UNL     1       3.518   5.581  18.834  0.00  0.00    +0.000 A 
ATOM     10  N   UNL     1       2.258   6.200  18.763  0.00  0.00    +0.000 N 
ATOM     11  C   UNL     1       3.689   4.243  19.244  0.00  0.00    +0.000 A 
ATOM     12  H   UNL     1       5.787   1.865  19.678  0.00  0.00    +0.000 HD
ATOM     13  H   UNL     1       1.585   5.693  19.322  0.00  0.00    +0.000 HD
ENDROOT
BRANCH  10  14
ATOM     14  C   UNL     1       2.275   7.642  18.996  0.00  0.00    +0.000 C 
ATOM     15  C   UNL     1       1.808   8.406  17.758  0.00  0.00    +0.000 C 
ATOM     16  C   UNL     1       1.910   9.911  18.003  0.00  0.00    +0.000 C 
ATOM     17  C   UNL     1       1.109  10.388  19.243  0.00  0.00    +0.000 C 
ATOM     18  C   UNL     1       1.422   9.482  20.462  0.00  0.00    +0.000 C 
ATOM     19  C   UNL     1       1.332   7.991  20.148  0.00  0.00    +0.000 C 
BRANCH  17  20
ATOM     20  N   UNL     1       1.393  11.814  19.557  0.00  0.00    +0.000 NA
ATOM     21  C   UNL     1       0.189  12.564  19.928  0.00  0.00    +0.000 C 
ATOM     22  C   UNL     1       2.055  12.518  18.452  0.00  0.00    +0.000 C 
ENDBRANCH  17  20
ENDBRANCH  10  14
TORSDOF 2
ENDMDL
MODEL 5
REMARK VINA RESULT:      -6.7      1.923      3.156
REMARK  Name = 
REMARK  5 active torsions:
REMARK  status: ('A' for Active; 'I' for Inactive)
REMARK    1  A    between atoms: C_1  and  C_2
REMARK    2  A    between atoms: N_10  and  C_11
REMARK    3  A    between atoms: C_14  and  N_15
REMARK    4  A    between atoms: N_15  and  C_16
REMARK    5  A    between atoms: N_15  and  C_17
REMARK                            x       y       z     vdW  Elec       q    Type
REMARK                         _______ _______ _______ _____ _____    ______ ____
ROOT
ATOM      1  C   UNL     1       1.091   3.188  18.128  0.00  0.00    +0.000 C 
ATOM      2  C   UNL     1       2.544   3.063  18.410  0.00  0.00    +0.000 A 
ATOM      3  C   UNL     1       3.248   1.875  18.512  0.00  0.00    +0.000 A 
ATOM      4  N   UNL     1       4.548   2.171  18.823  0.00  0.00    +0.000 N 
ATOM      5  C   UNL     1       4.701   3.523  18.930  0.00  0.00    +0.000 A 
ATOM      6  N   UNL     1       5.854   4.123  19.257  0.00  0.00    +0.000 NA
ATOM      7  C   UNL     1       5.716   5.454  19.277  0.00  0.00    +0.000 A 
ATOM      8  N   UNL     1       4.614   6.177  19.005  0.00  0.00    +0.000 NA
ATOM      9  C   UNL     1       3.462   5.537  18.678  0.00  0.00    +0.000 A 
ATOM     10  N   UNL     1       2.311   6.287  18.378  0.00  0.00    +0.000 N 
ATOM     11  C   UNL     1       3.484   4.128  18.645  0.00  0.00    +0.000 A 
ATOM     12  H   UNL     1       5.297   1.509  18.967  0.00  0.00    +0.000 HD
ATOM     13  H   UNL     1       1.485   5.710  18.456  0.00  0.00    +0.000 HD
ENDROOT
BRANCH  10  14
ATOM     14  C   UNL     1       2.224   7.568  19.073  0.00  0.00    +0.000 C 
ATOM     15  C   UNL     1       1.461   8.597  18.239  0.00  0.00    +0.000 C 
ATOM     16  C   UNL     1       1.452   9.947  18.955  0.00  0.00    +0.000 C 
ATOM     17  C   UNL     1       0.849   9.883  20.382  0.00  0.00    +0.000 C 
ATOM     18  C   UNL     1       1.472   8.703  21.173  0.00  0.00    +0.000 C 
ATOM     19  C   UNL     1       1.478   7.389  20.396  0.00  0.00    +0.000 C 
BRANCH  17  20
ATOM     20  N   UNL     1       1.039  11.167  21.109  0.00  0.00    +0.000 NA
ATOM     21  C   UNL     1      -0.158  11.582  21.849  0.00  0.00    +0.000 C 
ATOM     22  C   UNL     1       1.441  12.266  20.225  0.00  0.00    +0.000 C 
ENDBRANCH  17  20
ENDBRANCH  10  14
TORSDOF 2
ENDMDL
MODEL 6
REMARK VINA RESULT:      -6.6      1.789      2.358
REMARK  Name = 
REMARK  5 active torsions:
REMARK  status: ('A' for Active; 'I' for Inactive)
REMARK    1  A    between atoms: C_1  and  C_2
REMARK    2  A    between atoms: N_10  and  C_11
REMARK    3  A    between atoms: C_14  and  N_15
REMARK    4  A    between atoms: N_15  and  C_16
REMARK    5  A    between atoms: N_15  and  C_17
REMARK                            x       y       z     vdW  Elec       q    Type
REMARK                         _______ _______ _______ _____ _____    ______ ____
ROOT
ATOM      1  C   UNL     1       4.504   6.598  17.381  0.00  0.00    +0.000 C 
ATOM      2  C   UNL     1       3.859   5.331  17.810  0.00  0.00    +0.000 A 
ATOM      3  C   UNL     1       4.088   4.081  17.258  0.00  0.00    +0.000 A 
ATOM      4  N   UNL     1       3.276   3.177  17.890  0.00  0.00    +0.000 N 
ATOM      5  C   UNL     1       2.525   3.813  18.835  0.00  0.00    +0.000 A 
ATOM      6  N   UNL     1       1.610   3.201  19.601  0.00  0.00    +0.000 NA
ATOM      7  C   UNL     1       1.034   4.065  20.446  0.00  0.00    +0.000 A 
ATOM      8  N   UNL     1       1.286   5.379  20.587  0.00  0.00    +0.000 NA
ATOM      9  C   UNL     1       2.219   5.967  19.794  0.00  0.00    +0.000 A 
ATOM     10  N   UNL     1       2.498   7.337  19.947  0.00  0.00    +0.000 N 
ATOM     11  C   UNL     1       2.878   5.155  18.849  0.00  0.00    +0.000 A 
ATOM     12  H   UNL     1       3.217   2.187  17.699  0.00  0.00    +0.000 HD
ATOM     13  H   UNL     1       2.960   7.696  19.123  0.00  0.00    +0.000 HD
ENDROOT
BRANCH  10  14
ATOM     14  C   UNL     1       1.367   8.138  20.406  0.00  0.00    +0.000 C 
ATOM     15  C   UNL     1       1.616   8.692  21.808  0.00  0.00    +0.000 C 
ATOM     16  C   UNL     1       0.388   9.461  22.293  0.00  0.00    +0.000 C 
ATOM     17  C   UNL     1      -0.030  10.614  21.344  0.00  0.00    +0.000 C 
ATOM     18  C   UNL     1      -0.085  10.108  19.879  0.00  0.00    +0.000 C 
ATOM     19  C   UNL     1       1.157   9.324  19.462  0.00  0.00    +0.000 C 
BRANCH  17  20
ATOM     20  N   UNL     1      -1.335  11.204  21.749  0.00  0.00    +0.000 NA
ATOM     21  C   UNL     1      -1.533  12.559  21.221  0.00  0.00    +0.000 C 
ATOM     22  C   UNL     1      -1.512  11.245  23.205  0.00  0.00    +0.000 C 
ENDBRANCH  17  20
ENDBRANCH  10  14
TORSDOF 2
ENDMDL
MODEL 7
REMARK VINA RESULT:      -6.5      1.010      1.050
REMARK  Name = 
REMARK  5 active torsions:
REMARK  status: ('A' for Active; 'I' for Inactive)
REMARK    1  A    between atoms: C_1  and  C_2
REMARK    2  A    between atoms: N_10  and  C_11
REMARK    3  A    between atoms: C_14  and  N_15
REMARK    4  A    between atoms: N_15  and  C_16
REMARK    5  A    between atoms: N_15  and  C_17
REMARK                            x       y       z     vdW  Elec       q    Type
REMARK                         _______ _______ _______ _____ _____    ______ ____
ROOT
ATOM      1  C   UNL     1       5.189   6.402  16.098  0.00  0.00    +0.000 C 
ATOM      2  C   UNL     1       4.715   5.164  16.768  0.00  0.00    +0.000 A 
ATOM      3  C   UNL     1       5.124   3.875  16.467  0.00  0.00    +0.000 A 
ATOM      4  N   UNL     1       4.430   3.007  17.266  0.00  0.00    +0.000 N 
ATOM      5  C   UNL     1       3.579   3.702  18.075  0.00  0.00    +0.000 A 
ATOM      6  N   UNL     1       2.740   3.129  18.950  0.00  0.00    +0.000 NA
ATOM      7  C   UNL     1       2.034   4.052  19.614  0.00  0.00    +0.000 A 
ATOM      8  N   UNL     1       2.101   5.391  19.497  0.00  0.00    +0.000 NA
ATOM      9  C   UNL     1       2.962   5.938  18.600  0.00  0.00    +0.000 A 
ATOM     10  N   UNL     1       3.047   7.336  18.483  0.00  0.00    +0.000 N 
ATOM     11  C   UNL     1       3.745   5.058  17.826  0.00  0.00    +0.000 A 
ATOM     12  H   UNL     1       4.510   2.000  17.271  0.00  0.00    +0.000 HD
ATOM     13  H   UNL     1       3.473   7.591  17.603  0.00  0.00    +0.000 HD
ENDROOT
BRANCH  10  14
ATOM     14  C   UNL     1       1.808   8.047  18.785  0.00  0.00    +0.000 C 
ATOM     15  C   UNL     1       1.788   8.533  20.233  0.00  0.00    +0.000 C 
ATOM     16  C   UNL     1       0.451   9.204  20.542  0.00  0.00    +0.000 C 
ATOM     17  C   UNL     1       0.122  10.385  19.594  0.00  0.00    +0.000 C 
ATOM     18  C   UNL     1       0.341   9.962  18.118  0.00  0.00    +0.000 C 
ATOM     19  C   UNL     1       1.681   9.272  17.877  0.00  0.00    +0.000 C 
BRANCH  17  20
ATOM     20  N   UNL     1      -1.266  10.879  19.803  0.00  0.00    +0.000 NA
ATOM     21  C   UNL     1      -1.916  11.291  18.554  0.00  0.00    +0.000 C 
ATOM     22  C   UNL     1      -1.334  11.997  20.751  0.00  0.00    +0.000 C 
ENDBRANCH  17  20
ENDBRANCH  10  14
TORSDOF 2
ENDMDL
MODEL 8
REMARK VINA RESULT:      -6.3      2.224      7.431
REMARK  Name = 
REMARK  5 active torsions:
REMARK  status: ('A' for Active; 'I' for Inactive)
REMARK    1  A    between atoms: C_1  and  C_2
REMARK    2  A    between atoms: N_10  and  C_11
REMARK    3  A    between atoms: C_14  and  N_15
REMARK    4  A    between atoms: N_15  and  C_16
REMARK    5  A    between atoms: N_15  and  C_17
REMARK                            x       y       z     vdW  Elec       q    Type
REMARK                         _______ _______ _______ _____ _____    ______ ____
ROOT
ATOM      1  C   UNL     1       0.160   9.295  23.222  0.00  0.00    +0.000 C 
ATOM      2  C   UNL     1       0.176  10.162  22.016  0.00  0.00    +0.000 A 
ATOM      3  C   UNL     1      -0.370  11.432  21.926  0.00  0.00    +0.000 A 
ATOM      4  N   UNL     1      -0.194  11.885  20.646  0.00  0.00    +0.000 N 
ATOM      5  C   UNL     1       0.448  10.937  19.904  0.00  0.00    +0.000 A 
ATOM      6  N   UNL     1       0.735  11.073  18.602  0.00  0.00    +0.000 NA
ATOM      7  C   UNL     1       1.376   9.995  18.135  0.00  0.00    +0.000 A 
ATOM      8  N   UNL     1       1.736   8.888  18.810  0.00  0.00    +0.000 NA
ATOM      9  C   UNL     1       1.428   8.783  20.129  0.00  0.00    +0.000 A 
ATOM     10  N   UNL     1       1.815   7.635  20.843  0.00  0.00    +0.000 N 
ATOM     11  C   UNL     1       0.733   9.854  20.725  0.00  0.00    +0.000 A 
ATOM     12  H   UNL     1      -0.493  12.777  20.279  0.00  0.00    +0.000 HD
ATOM     13  H   UNL     1       1.274   7.551  21.693  0.00  0.00    +0.000 HD
ENDROOT
BRANCH  10  14
ATOM     14  C   UNL     1       1.881   6.416  20.043  0.00  0.00    +0.000 C 
ATOM     15  C   UNL     1       3.321   6.096  19.643  0.00  0.00    +0.000 C 
ATOM     16  C   UNL     1       3.352   4.861  18.743  0.00  0.00    +0.000 C 
ATOM     17  C   UNL     1       2.703   3.612  19.392  0.00  0.00    +0.000 C 
ATOM     18  C   UNL     1       1.320   3.978  19.989  0.00  0.00    +0.000 C 
ATOM     19  C   UNL     1       1.346   5.235  20.854  0.00  0.00    +0.000 C 
BRANCH  17  20
ATOM     20  N   UNL     1       2.580   2.496  18.416  0.00  0.00    +0.000 NA
ATOM     21  C   UNL     1       1.297   1.791  18.518  0.00  0.00    +0.000 C 
ATOM     22  C   UNL     1       3.660   1.511  18.540  0.00  0.00    +0.000 C 
ENDBRANCH  17  20
ENDBRANCH  10  14
TORSDOF 2
ENDMDL
MODEL 9
REMARK VINA RESULT:      -6.3      1.545      2.981
REMARK  Name = 
REMARK  5 active torsions:
REMARK  status: ('A' for Active; 'I' for Inactive)
REMARK    1  A    between atoms: C_1  and  C_2
REMARK    2  A    between atoms: N_10  and  C_11
REMARK    3  A    between atoms: C_14  and  N_15
REMARK    4  A    between atoms: N_15  and  C_16
REMARK    5  A    between atoms: N_15  and  C_17
REMARK                            x       y       z     vdW  Elec       q    Type
REMARK                         _______ _______ _______ _____ _____    ______ ____
ROOT
ATOM      1  C   UNL     1       1.525   3.611  18.626  0.00  0.00    +0.000 C 
ATOM      2  C   UNL     1       2.892   3.799  18.077  0.00  0.00    +0.000 A 
ATOM      3  C   UNL     1       3.776   2.785  17.746  0.00  0.00    +0.000 A 
ATOM      4  N   UNL     1       4.945   3.357  17.319  0.00  0.00    +0.000 N 
ATOM      5  C   UNL     1       4.840   4.717  17.370  0.00  0.00    +0.000 A 
ATOM      6  N   UNL     1       5.832   5.557  17.045  0.00  0.00    +0.000 NA
ATOM      7  C   UNL     1       5.446   6.832  17.179  0.00  0.00    +0.000 A 
ATOM      8  N   UNL     1       4.244   7.298  17.566  0.00  0.00    +0.000 NA
ATOM      9  C   UNL     1       3.261   6.418  17.889  0.00  0.00    +0.000 A 
ATOM     10  N   UNL     1       1.999   6.898  18.280  0.00  0.00    +0.000 N 
ATOM     11  C   UNL     1       3.562   5.043  17.805  0.00  0.00    +0.000 A 
ATOM     12  H   UNL     1       5.776   2.870  17.016  0.00  0.00    +0.000 HD
ATOM     13  H   UNL     1       1.486   6.180  18.772  0.00  0.00    +0.000 HD
ENDROOT
BRANCH  10  14
ATOM     14  C   UNL     1       2.025   8.194  18.953  0.00  0.00    +0.000 C 
ATOM     15  C   UNL     1       1.279   9.252  18.142  0.00  0.00    +0.000 C 
ATOM     16  C   UNL     1       1.388  10.612  18.830  0.00  0.00    +0.000 C 
ATOM     17  C   UNL     1       0.860  10.607  20.288  0.00  0.00    +0.000 C 
ATOM     18  C   UNL     1       1.455   9.405  21.068  0.00  0.00    +0.000 C 
ATOM     19  C   UNL     1       1.343   8.081  20.318  0.00  0.00    +0.000 C 
BRANCH  17  20
ATOM     20  N   UNL     1       1.164  11.889  20.979  0.00  0.00    +0.000 NA
ATOM     21  C   UNL     1      -0.031  12.526  21.543  0.00  0.00    +0.000 C 
ATOM     22  C   UNL     1       1.838  12.858  20.108  0.00  0.00    +0.000 C 
ENDBRANCH  17  20
ENDBRANCH  10  14
TORSDOF 2
ENDMDL
