MODEL 1
REMARK VINA RESULT:      -7.0      0.000      0.000
REMARK  Name = 
REMARK  4 active torsions:
REMARK  status: ('A' for Active; 'I' for Inactive)
REMARK    1  A    between atoms: C_2  and  O_3
REMARK    2  A    between atoms: C_2  and  C_4
REMARK    3  A    between atoms: C_6  and  C_7
REMARK    4  A    between atoms: C_7  and  C_8
REMARK                            x       y       z     vdW  Elec       q    Type
REMARK                         _______ _______ _______ _____ _____    ______ ____
ROOT
ATOM      1  C   UNL     1       6.757   4.614  15.957  0.00  0.00    +0.000 A 
ATOM      2  C   UNL     1       5.591   4.792  16.677  0.00  0.00    +0.000 A 
ATOM      3  C   UNL     1       5.962   4.680  18.042  0.00  0.00    +0.000 A 
ATOM      4  N   UNL     1       7.278   4.464  18.170  0.00  0.00    +0.000 NA
ATOM      5  N   UNL     1       7.720   4.384  16.904  0.00  0.00    +0.000 N 
ATOM      6  H   UNL     1       8.706   4.196  16.740  0.00  0.00    +0.000 HD
ENDROOT
BRANCH   1   8
ATOM      7  O   UNL     1       7.791   5.457  14.021  0.00  0.00    +0.000 OA
ATOM      8  C   UNL     1       7.085   4.618  14.560  0.00  0.00    +0.000 C 
BRANCH   8   9
ATOM      9  O   UNL     1       6.511   3.603  13.875  0.00  0.00    +0.000 OA
ATOM     10  H   UNL     1       6.251   3.837  12.968  0.00  0.00    +0.000 HD
ENDBRANCH   8   9
ENDBRANCH   1   8
BRANCH   3  11
ATOM     11  C   UNL     1       5.088   4.855  19.243  0.00  0.00    +0.000 C 
BRANCH  11  12
ATOM     12  C   UNL     1       3.833   4.051  19.002  0.00  0.00    +0.000 A 
ATOM     13  C   UNL     1       2.631   4.699  18.679  0.00  0.00    +0.000 A 
ATOM     14  C   UNL     1       1.475   3.964  18.412  0.00  0.00    +0.000 A 
ATOM     15  C   UNL     1       1.504   2.572  18.475  0.00  0.00    +0.000 A 
ATOM     16  C   UNL     1       2.687   1.915  18.807  0.00  0.00    +0.000 A 
ATOM     17  C   UNL     1       3.846   2.649  19.069  0.00  0.00    +0.000 A 
ENDBRANCH  11  12
ENDBRANCH   3  11
TORSDOF 4
ENDMDL
MODEL 2
REMARK VINA RESULT:      -7.0      2.102      2.615
REMARK  Name = 
REMARK  4 active torsions:
REMARK  status: ('A' for Active; 'I' for Inactive)
REMARK    1  A    between atoms: C_2  and  O_3
REMARK    2  A    between atoms: C_2  and  C_4
REMARK    3  A    between atoms: C_6  and  C_7
REMARK    4  A    between atoms: C_7  and  C_8
REMARK                            x       y       z     vdW  Elec       q    Type
REMARK                         _______ _______ _______ _____ _____    ______ ____
ROOT
ATOM      1  C   UNL     1       5.870   4.736  16.910  0.00  0.00    +0.000 A 
ATOM      2  C   UNL     1       4.904   5.604  17.384  0.00  0.00    +0.000 A 
ATOM      3  C   UNL     1       3.703   4.851  17.439  0.00  0.00    +0.000 A 
ATOM      4  N   UNL     1       3.906   3.588  17.042  0.00  0.00    +0.000 NA
ATOM      5  N   UNL     1       5.202   3.560  16.689  0.00  0.00    +0.000 N 
ATOM      6  H   UNL     1       5.593   2.696  16.324  0.00  0.00    +0.000 HD
ENDROOT
BRANCH   1   8
ATOM      7  O   UNL     1       8.142   4.220  17.221  0.00  0.00    +0.000 OA
ATOM      8  C   UNL     1       7.273   4.848  16.636  0.00  0.00    +0.000 C 
BRANCH   8   9
ATOM      9  O   UNL     1       7.556   5.748  15.667  0.00  0.00    +0.000 OA
ATOM     10  H   UNL     1       7.264   5.479  14.781  0.00  0.00    +0.000 HD
ENDBRANCH   8   9
ENDBRANCH   1   8
BRANCH   3  11
ATOM     11  C   UNL     1       2.368   5.297  17.942  0.00  0.00    +0.000 C 
BRANCH  11  12
ATOM     12  C   UNL     1       2.026   4.429  19.129  0.00  0.00    +0.000 A 
ATOM     13  C   UNL     1       2.595   4.695  20.385  0.00  0.00    +0.000 A 
ATOM     14  C   UNL     1       2.253   3.926  21.499  0.00  0.00    +0.000 A 
ATOM     15  C   UNL     1       1.347   2.876  21.369  0.00  0.00    +0.000 A 
ATOM     16  C   UNL     1       0.783   2.592  20.126  0.00  0.00    +0.000 A 
ATOM     17  C   UNL     1       1.120   3.363  19.012  0.00  0.00    +0.000 A 
ENDBRANCH  11  12
ENDBRANCH   3  11
TORSDOF 4
ENDMDL
MODEL 3
REMARK VINA RESULT:      -6.9      1.355      1.672
REMARK  Name = 
REMARK  4 active torsions:
REMARK  status: ('A' for Active; 'I' for Inactive)
REMARK    1  A    between atoms: C_2  and  O_3
REMARK    2  A    between atoms: C_2  and  C_4
REMARK    3  A    between atoms: C_6  and  C_7
REMARK    4  A    between atoms: C_7  and  C_8
REMARK                            x       y       z     vdW  Elec       q    Type
REMARK                         _______ _______ _______ _____ _____    ______ ____
ROOT
ATOM      1  C   UNL     1       5.977   4.856  16.039  0.00  0.00    +0.000 A 
ATOM      2  C   UNL     1       4.914   5.695  16.315  0.00  0.00    +0.000 A 
ATOM      3  C   UNL     1       4.570   5.449  17.669  0.00  0.00    +0.000 A 
ATOM      4  N   UNL     1       5.378   4.529  18.213  0.00  0.00    +0.000 NA
ATOM      5  N   UNL     1       6.180   4.159  17.201  0.00  0.00    +0.000 N 
ATOM      6  H   UNL     1       6.877   3.437  17.366  0.00  0.00    +0.000 HD
ENDROOT
BRANCH   1   8
ATOM      7  O   UNL     1       7.720   5.331  14.534  0.00  0.00    +0.000 OA
ATOM      8  C   UNL     1       6.794   4.615  14.884  0.00  0.00    +0.000 C 
BRANCH   8   9
ATOM      9  O   UNL     1       6.423   3.515  14.190  0.00  0.00    +0.000 OA
ATOM     10  H   UNL     1       6.260   3.680  13.247  0.00  0.00    +0.000 HD
ENDBRANCH   8   9
ENDBRANCH   1   8
BRANCH   3  11
ATOM     11  C   UNL     1       3.526   6.140  18.486  0.00  0.00    +0.000 C 
BRANCH  11  12
ATOM     12  C   UNL     1       2.562   5.081  18.965  0.00  0.00    +0.000 A 
ATOM     13  C   UNL     1       1.959   4.208  18.045  0.00  0.00    +0.000 A 
ATOM     14  C   UNL     1       1.100   3.198  18.481  0.00  0.00    +0.000 A 
ATOM     15  C   UNL     1       0.826   3.053  19.839  0.00  0.00    +0.000 A 
ATOM     16  C   UNL     1       1.408   3.920  20.763  0.00  0.00    +0.000 A 
ATOM     17  C   UNL     1       2.271   4.928  20.329  0.00  0.00    +0.000 A 
ENDBRANCH  11  12
ENDBRANCH   3  11
TORSDOF 4
ENDMDL
MODEL 4
REMARK VINA RESULT:      -6.9      1.293      1.599
REMARK  Name = 
REMARK  4 active torsions:
REMARK  status: ('A' for Active; 'I' for Inactive)
REMARK    1  A    between atoms: C_2  and  O_3
REMARK    2  A    between atoms: C_2  and  C_4
REMARK    3  A    between atoms: C_6  and  C_7
REMARK    4  A    between atoms: C_7  and  C_8
REMARK                            x       y       z     vdW  Elec       q    Type
REMARK                         _______ _______ _______ _____ _____    ______ ____
ROOT
ATOM      1  C   UNL     1       6.026   4.855  16.044  0.00  0.00    +0.000 A 
ATOM      2  C   UNL     1       4.917   5.634  16.315  0.00  0.00    +0.000 A 
ATOM      3  C   UNL     1       4.632   5.433  17.690  0.00  0.00    +0.000 A 
ATOM      4  N   UNL     1       5.516   4.596  18.249  0.00  0.00    +0.000 NA
ATOM      5  N   UNL     1       6.311   4.231  17.230  0.00  0.00    +0.000 N 
ATOM      6  H   UNL     1       7.060   3.567  17.406  0.00  0.00    +0.000 HD
ENDROOT
BRANCH   1   8
ATOM      7  O   UNL     1       7.754   5.317  14.518  0.00  0.00    +0.000 OA
ATOM      8  C   UNL     1       6.822   4.613  14.875  0.00  0.00    +0.000 C 
BRANCH   8   9
ATOM      9  O   UNL     1       6.425   3.525  14.177  0.00  0.00    +0.000 OA
ATOM     10  H   UNL     1       6.961   3.345  13.387  0.00  0.00    +0.000 HD
ENDBRANCH   8   9
ENDBRANCH   1   8
BRANCH   3  11
ATOM     11  C   UNL     1       3.568   6.091  18.507  0.00  0.00    +0.000 C 
BRANCH  11  12
ATOM     12  C   UNL     1       2.625   5.006  18.969  0.00  0.00    +0.000 A 
ATOM     13  C   UNL     1       2.297   4.888  20.329  0.00  0.00    +0.000 A 
ATOM     14  C   UNL     1       1.393   3.916  20.762  0.00  0.00    +0.000 A 
ATOM     15  C   UNL     1       0.813   3.045  19.842  0.00  0.00    +0.000 A 
ATOM     16  C   UNL     1       1.138   3.143  18.490  0.00  0.00    +0.000 A 
ATOM     17  C   UNL     1       2.038   4.118  18.055  0.00  0.00    +0.000 A 
ENDBRANCH  11  12
ENDBRANCH   3  11
TORSDOF 4
ENDMDL
MODEL 5
REMARK VINA RESULT:      -6.9      2.341      2.883
REMARK  Name = 
REMARK  4 active torsions:
REMARK  status: ('A' for Active; 'I' for Inactive)
REMARK    1  A    between atoms: C_2  and  O_3
REMARK    2  A    between atoms: C_2  and  C_4
REMARK    3  A    between atoms: C_6  and  C_7
REMARK    4  A    between atoms: C_7  and  C_8
REMARK                            x       y       z     vdW  Elec       q    Type
REMARK                         _______ _______ _______ _____ _____    ______ ____
ROOT
ATOM      1  C   UNL     1       6.242   5.481  17.751  0.00  0.00    +0.000 A 
ATOM      2  C   UNL     1       5.100   5.510  18.529  0.00  0.00    +0.000 A 
ATOM      3  C   UNL     1       4.178   6.332  17.829  0.00  0.00    +0.000 A 
ATOM      4  N   UNL     1       4.702   6.774  16.678  0.00  0.00    +0.000 NA
ATOM      5  N   UNL     1       5.954   6.286  16.679  0.00  0.00    +0.000 N 
ATOM      6  H   UNL     1       6.569   6.512  15.903  0.00  0.00    +0.000 HD
ENDROOT
BRANCH   1   8
ATOM      7  O   UNL     1       8.062   4.217  16.966  0.00  0.00    +0.000 OA
ATOM      8  C   UNL     1       7.520   4.840  17.866  0.00  0.00    +0.000 C 
BRANCH   8   9
ATOM      9  O   UNL     1       8.071   4.968  19.094  0.00  0.00    +0.000 OA
ATOM     10  H   UNL     1       7.666   5.664  19.638  0.00  0.00    +0.000 HD
ENDBRANCH   8   9
ENDBRANCH   1   8
BRANCH   3  11
ATOM     11  C   UNL     1       2.765   6.642  18.204  0.00  0.00    +0.000 C 
BRANCH  11  12
ATOM     12  C   UNL     1       2.156   5.369  18.742  0.00  0.00    +0.000 A 
ATOM     13  C   UNL     1       1.886   5.242  20.114  0.00  0.00    +0.000 A 
ATOM     14  C   UNL     1       1.284   4.087  20.617  0.00  0.00    +0.000 A 
ATOM     15  C   UNL     1       0.954   3.042  19.756  0.00  0.00    +0.000 A 
ATOM     16  C   UNL     1       1.227   3.150  18.393  0.00  0.00    +0.000 A 
ATOM     17  C   UNL     1       1.825   4.306  17.888  0.00  0.00    +0.000 A 
ENDBRANCH  11  12
ENDBRANCH   3  11
TORSDOF 4
ENDMDL
MODEL 6
REMARK VINA RESULT:      -6.9      2.263      2.758
REMARK  Name = 
REMARK  4 active torsions:
REMARK  status: ('A' for Active; 'I' for Inactive)
REMARK    1  A    between atoms: C_2  and  O_3
REMARK    2  A    between atoms: C_2  and  C_4
REMARK    3  A    between atoms: C_6  and  C_7
REMARK    4  A    between atoms: C_7  and  C_8
REMARK                            x       y       z     vdW  Elec       q    Type
REMARK                         _______ _______ _______ _____ _____    ______ ____
ROOT
ATOM      1  C   UNL     1       6.198   5.485  17.417  0.00  0.00    +0.000 A 
ATOM      2  C   UNL     1       5.139   5.572  18.301  0.00  0.00    +0.000 A 
ATOM      3  C   UNL     1       4.209   6.459  17.699  0.00  0.00    +0.000 A 
ATOM      4  N   UNL     1       4.647   6.884  16.507  0.00  0.00    +0.000 NA
ATOM      5  N   UNL     1       5.861   6.321  16.385  0.00  0.00    +0.000 N 
ATOM      6  H   UNL     1       6.413   6.520  15.555  0.00  0.00    +0.000 HD
ENDROOT
BRANCH   1   8
ATOM      7  O   UNL     1       8.059   4.442  18.406  0.00  0.00    +0.000 OA
ATOM      8  C   UNL     1       7.439   4.764  17.404  0.00  0.00    +0.000 C 
BRANCH   8   9
ATOM      9  O   UNL     1       7.882   4.490  16.156  0.00  0.00    +0.000 OA
ATOM     10  H   UNL     1       7.928   3.541  15.953  0.00  0.00    +0.000 HD
ENDBRANCH   8   9
ENDBRANCH   1   8
BRANCH   3  11
ATOM     11  C   UNL     1       2.859   6.850  18.210  0.00  0.00    +0.000 C 
BRANCH  11  12
ATOM     12  C   UNL     1       2.203   5.598  18.742  0.00  0.00    +0.000 A 
ATOM     13  C   UNL     1       1.836   4.566  17.864  0.00  0.00    +0.000 A 
ATOM     14  C   UNL     1       1.269   3.386  18.349  0.00  0.00    +0.000 A 
ATOM     15  C   UNL     1       1.053   3.228  19.716  0.00  0.00    +0.000 A 
ATOM     16  C   UNL     1       1.401   4.249  20.599  0.00  0.00    +0.000 A 
ATOM     17  C   UNL     1       1.973   5.427  20.116  0.00  0.00    +0.000 A 
ENDBRANCH  11  12
ENDBRANCH   3  11
TORSDOF 4
ENDMDL
MODEL 7
REMARK VINA RESULT:      -6.7      1.635      2.150
REMARK  Name = 
REMARK  4 active torsions:
REMARK  status: ('A' for Active; 'I' for Inactive)
REMARK    1  A    between atoms: C_2  and  O_3
REMARK    2  A    between atoms: C_2  and  C_4
REMARK    3  A    between atoms: C_6  and  C_7
REMARK    4  A    between atoms: C_7  and  C_8
REMARK                            x       y       z     vdW  Elec       q    Type
REMARK                         _______ _______ _______ _____ _____    ______ ____
ROOT
ATOM      1  C   UNL     1       6.306   5.275  17.533  0.00  0.00    +0.000 A 
ATOM      2  C   UNL     1       5.167   5.976  17.881  0.00  0.00    +0.000 A 
ATOM      3  C   UNL     1       4.648   5.322  19.028  0.00  0.00    +0.000 A 
ATOM      4  N   UNL     1       5.422   4.289  19.387  0.00  0.00    +0.000 NA
ATOM      5  N   UNL     1       6.382   4.257  18.448  0.00  0.00    +0.000 N 
ATOM      6  H   UNL     1       7.089   3.529  18.493  0.00  0.00    +0.000 HD
ENDROOT
BRANCH   1   8
ATOM      7  O   UNL     1       7.752   4.478  15.859  0.00  0.00    +0.000 OA
ATOM      8  C   UNL     1       7.293   5.410  16.500  0.00  0.00    +0.000 C 
BRANCH   8   9
ATOM      9  O   UNL     1       7.696   6.688  16.312  0.00  0.00    +0.000 OA
ATOM     10  H   UNL     1       7.559   7.016  15.408  0.00  0.00    +0.000 HD
ENDBRANCH   8   9
ENDBRANCH   1   8
BRANCH   3  11
ATOM     11  C   UNL     1       3.459   5.716  19.844  0.00  0.00    +0.000 C 
BRANCH  11  12
ATOM     12  C   UNL     1       2.460   4.588  19.748  0.00  0.00    +0.000 A 
ATOM     13  C   UNL     1       1.959   4.192  18.497  0.00  0.00    +0.000 A 
ATOM     14  C   UNL     1       1.068   3.123  18.393  0.00  0.00    +0.000 A 
ATOM     15  C   UNL     1       0.660   2.442  19.537  0.00  0.00    +0.000 A 
ATOM     16  C   UNL     1       1.139   2.831  20.787  0.00  0.00    +0.000 A 
ATOM     17  C   UNL     1       2.034   3.897  20.893  0.00  0.00    +0.000 A 
ENDBRANCH  11  12
ENDBRANCH   3  11
TORSDOF 4
ENDMDL
MODEL 8
REMARK VINA RESULT:      -6.7      2.568      3.293
REMARK  Name = 
REMARK  4 active torsions:
REMARK  status: ('A' for Active; 'I' for Inactive)
REMARK    1  A    between atoms: C_2  and  O_3
REMARK    2  A    between atoms: C_2  and  C_4
REMARK    3  A    between atoms: C_6  and  C_7
REMARK    4  A    between atoms: C_7  and  C_8
REMARK                            x       y       z     vdW  Elec       q    Type
REMARK                         _______ _______ _______ _____ _____    ______ ____
ROOT
ATOM      1  C   UNL     1       6.126   5.572  18.517  0.00  0.00    +0.000 A 
ATOM      2  C   UNL     1       4.885   5.589  19.124  0.00  0.00    +0.000 A 
ATOM      3  C   UNL     1       4.000   6.160  18.174  0.00  0.00    +0.000 A 
ATOM      4  N   UNL     1       4.641   6.464  17.038  0.00  0.00    +0.000 NA
ATOM      5  N   UNL     1       5.921   6.143  17.289  0.00  0.00    +0.000 N 
ATOM      6  H   UNL     1       6.619   6.309  16.569  0.00  0.00    +0.000 HD
ENDROOT
BRANCH   1   8
ATOM      7  O   UNL     1       8.156   4.422  18.222  0.00  0.00    +0.000 OA
ATOM      8  C   UNL     1       7.431   5.122  18.911  0.00  0.00    +0.000 C 
BRANCH   8   9
ATOM      9  O   UNL     1       7.783   5.532  20.151  0.00  0.00    +0.000 OA
ATOM     10  H   UNL     1       7.151   6.147  20.558  0.00  0.00    +0.000 HD
ENDBRANCH   8   9
ENDBRANCH   1   8
BRANCH   3  11
ATOM     11  C   UNL     1       2.523   6.351  18.301  0.00  0.00    +0.000 C 
BRANCH  11  12
ATOM     12  C   UNL     1       1.951   5.062  18.840  0.00  0.00    +0.000 A 
ATOM     13  C   UNL     1       1.724   3.976  17.978  0.00  0.00    +0.000 A 
ATOM     14  C   UNL     1       1.236   2.766  18.472  0.00  0.00    +0.000 A 
ATOM     15  C   UNL     1       0.961   2.627  19.831  0.00  0.00    +0.000 A 
ATOM     16  C   UNL     1       1.169   3.700  20.696  0.00  0.00    +0.000 A 
ATOM     17  C   UNL     1       1.662   4.911  20.205  0.00  0.00    +0.000 A 
ENDBRANCH  11  12
ENDBRANCH   3  11
TORSDOF 4
ENDMDL
MODEL 9
REMARK VINA RESULT:      -6.7      2.314      2.901
REMARK  Name = 
REMARK  4 active torsions:
REMARK  status: ('A' for Active; 'I' for Inactive)
REMARK    1  A    between atoms: C_2  and  O_3
REMARK    2  A    between atoms: C_2  and  C_4
REMARK    3  A    between atoms: C_6  and  C_7
REMARK    4  A    between atoms: C_7  and  C_8
REMARK                            x       y       z     vdW  Elec       q    Type
REMARK                         _______ _______ _______ _____ _____    ______ ____
ROOT
ATOM      1  C   UNL     1       6.229   4.846  17.881  0.00  0.00    +0.000 A 
ATOM      2  C   UNL     1       5.159   5.550  18.400  0.00  0.00    +0.000 A 
ATOM      3  C   UNL     1       4.032   5.157  17.633  0.00  0.00    +0.000 A 
ATOM      4  N   UNL     1       4.369   4.252  16.705  0.00  0.00    +0.000 NA
ATOM      5  N   UNL     1       5.698   4.119  16.847  0.00  0.00    +0.000 N 
ATOM      6  H   UNL     1       6.198   3.490  16.224  0.00  0.00    +0.000 HD
ENDROOT
BRANCH   1   8
ATOM      7  O   UNL     1       8.146   5.296  19.164  0.00  0.00    +0.000 OA
ATOM      8  C   UNL     1       7.626   4.766  18.195  0.00  0.00    +0.000 C 
BRANCH   8   9
ATOM      9  O   UNL     1       8.336   4.055  17.289  0.00  0.00    +0.000 OA
ATOM     10  H   UNL     1       9.265   3.915  17.537  0.00  0.00    +0.000 HD
ENDBRANCH   8   9
ENDBRANCH   1   8
BRANCH   3  11
ATOM     11  C   UNL     1       2.609   5.575  17.822  0.00  0.00    +0.000 C 
BRANCH  11  12
ATOM     12  C   UNL     1       1.996   4.630  18.828  0.00  0.00    +0.000 A 
ATOM     13  C   UNL     1       1.314   3.482  18.394  0.00  0.00    +0.000 A 
ATOM     14  C   UNL     1       0.781   2.580  19.316  0.00  0.00    +0.000 A 
ATOM     15  C   UNL     1       0.916   2.817  20.682  0.00  0.00    +0.000 A 
ATOM     16  C   UNL     1       1.580   3.959  21.128  0.00  0.00    +0.000 A 
ATOM     17  C   UNL     1       2.118   4.861  20.207  0.00  0.00    +0.000 A 
ENDBRANCH  11  12
ENDBRANCH   3  11
TORSDOF 4
ENDMDL
