MODEL 1
REMARK VINA RESULT:      -7.0      0.000      0.000
REMARK  Name = 
REMARK  6 active torsions:
REMARK  status: ('A' for Active; 'I' for Inactive)
REMARK    1  A    between atoms: C_1  and  O_2
REMARK    2  A    between atoms: O_2  and  C_3
REMARK    3  A    between atoms: C_7  and  N_8
REMARK    4  A    between atoms: C_12  and  C_14
REMARK    5  A    between atoms: C_14  and  C_15
REMARK    6  A    between atoms: C_14  and  N_16
REMARK                            x       y       z     vdW  Elec       q    Type
REMARK                         _______ _______ _______ _____ _____    ______ ____
ROOT
ATOM      1  N   UNL     1       2.115   7.235  19.237  0.00  0.00    +0.000 N 
ATOM      2  C   UNL     1       2.587   8.155  18.185  0.00  0.00    +0.000 C 
ATOM      3  C   UNL     1       1.577   9.304  18.000  0.00  0.00    +0.000 C 
ATOM      4  N   UNL     1       1.250   9.962  19.279  0.00  0.00    +0.000 N 
ATOM      5  C   UNL     1       1.344  11.345  19.368  0.00  0.00    +0.000 C 
ATOM      6  O   UNL     1       1.737  12.012  18.407  0.00  0.00    +0.000 OA
ATOM      7  C   UNL     1       0.834   9.033  20.342  0.00  0.00    +0.000 C 
ATOM      8  C   UNL     1       1.846   7.877  20.533  0.00  0.00    +0.000 C 
ENDROOT
BRANCH   1  13
ATOM      9  C   UNL     1       1.464   3.618  19.846  0.00  0.00    +0.000 A 
ATOM     10  C   UNL     1       1.852   3.070  18.628  0.00  0.00    +0.000 A 
ATOM     11  C   UNL     1       2.313   3.899  17.613  0.00  0.00    +0.000 A 
ATOM     12  C   UNL     1       2.400   5.278  17.826  0.00  0.00    +0.000 A 
ATOM     13  C   UNL     1       2.038   5.869  19.047  0.00  0.00    +0.000 A 
ATOM     14  C   UNL     1       1.574   5.000  20.052  0.00  0.00    +0.000 A 
BRANCH   9  16
ATOM     15  C   UNL     1       1.982   2.409  21.806  0.00  0.00    +0.000 C 
ATOM     16  O   UNL     1       1.040   2.716  20.784  0.00  0.00    +0.000 OA
ENDBRANCH   9  16
ENDBRANCH   1  13
BRANCH   5  17
ATOM     17  C   UNL     1       0.980  12.040  20.701  0.00  0.00    +0.000 C 
ATOM     18  C   UNL     1       1.634  13.417  20.817  0.00  0.00    +0.000 C 
BRANCH  17  19
ATOM     19  N   UNL     1      -0.465  12.122  20.928  0.00  0.00    +0.000 N 
ATOM     20  C   UNL     1      -1.008  11.829  22.148  0.00  0.00    +0.000 C 
ATOM     21  O   UNL     1      -0.432  11.300  23.088  0.00  0.00    +0.000 OA
ATOM     22  C   UNL     1      -2.412  12.352  22.214  0.00  0.00    +0.000 C 
ATOM     23  C   UNL     1      -2.668  12.895  20.825  0.00  0.00    +0.000 C 
ATOM     24  C   UNL     1      -1.307  12.918  20.197  0.00  0.00    +0.000 C 
ATOM     25  O   UNL     1      -1.038  13.558  19.195  0.00  0.00    +0.000 OA
ENDBRANCH  17  19
ENDBRANCH   5  17
TORSDOF 4
ENDMDL
MODEL 2
REMARK VINA RESULT:      -6.9      1.064      1.742
REMARK  Name = 
REMARK  6 active torsions:
REMARK  status: ('A' for Active; 'I' for Inactive)
REMARK    1  A    between atoms: C_1  and  O_2
REMARK    2  A    between atoms: O_2  and  C_3
REMARK    3  A    between atoms: C_7  and  N_8
REMARK    4  A    between atoms: C_12  and  C_14
REMARK    5  A    between atoms: C_14  and  C_15
REMARK    6  A    between atoms: C_14  and  N_16
REMARK                            x       y       z     vdW  Elec       q    Type
REMARK                         _______ _______ _______ _____ _____    ______ ____
ROOT
ATOM      1  N   UNL     1       2.085   7.092  19.724  0.00  0.00    +0.000 N 
ATOM      2  C   UNL     1       2.446   7.950  18.580  0.00  0.00    +0.000 C 
ATOM      3  C   UNL     1       1.365   9.027  18.369  0.00  0.00    +0.000 C 
ATOM      4  N   UNL     1       1.072   9.766  19.611  0.00  0.00    +0.000 N 
ATOM      5  C   UNL     1       1.093  11.155  19.590  0.00  0.00    +0.000 C 
ATOM      6  O   UNL     1       1.394  11.763  18.559  0.00  0.00    +0.000 OA
ATOM      7  C   UNL     1       0.768   8.903  20.764  0.00  0.00    +0.000 C 
ATOM      8  C   UNL     1       1.852   7.819  20.982  0.00  0.00    +0.000 C 
ENDROOT
BRANCH   1  13
ATOM      9  C   UNL     1       2.890   3.614  18.661  0.00  0.00    +0.000 A 
ATOM     10  C   UNL     1       2.067   2.880  19.509  0.00  0.00    +0.000 A 
ATOM     11  C   UNL     1       1.264   3.538  20.431  0.00  0.00    +0.000 A 
ATOM     12  C   UNL     1       1.273   4.935  20.492  0.00  0.00    +0.000 A 
ATOM     13  C   UNL     1       2.075   5.713  19.642  0.00  0.00    +0.000 A 
ATOM     14  C   UNL     1       2.877   5.015  18.721  0.00  0.00    +0.000 A 
BRANCH   9  16
ATOM     15  C   UNL     1       4.512   3.617  16.945  0.00  0.00    +0.000 C 
ATOM     16  O   UNL     1       3.630   2.873  17.780  0.00  0.00    +0.000 OA
ENDBRANCH   9  16
ENDBRANCH   1  13
BRANCH   5  17
ATOM     17  C   UNL     1       0.764  11.932  20.886  0.00  0.00    +0.000 C 
ATOM     18  C   UNL     1       1.384  13.330  20.878  0.00  0.00    +0.000 C 
BRANCH  17  19
ATOM     19  N   UNL     1      -0.673  11.994  21.167  0.00  0.00    +0.000 N 
ATOM     20  C   UNL     1      -1.167  11.677  22.402  0.00  0.00    +0.000 C 
ATOM     21  O   UNL     1      -0.550  11.141  23.312  0.00  0.00    +0.000 OA
ATOM     22  C   UNL     1      -2.573  12.182  22.528  0.00  0.00    +0.000 C 
ATOM     23  C   UNL     1      -2.887  12.743  21.158  0.00  0.00    +0.000 C 
ATOM     24  C   UNL     1      -1.550  12.791  20.480  0.00  0.00    +0.000 C 
ATOM     25  O   UNL     1      -1.325  13.449  19.479  0.00  0.00    +0.000 OA
ENDBRANCH  17  19
ENDBRANCH   5  17
TORSDOF 4
ENDMDL
MODEL 3
REMARK VINA RESULT:      -6.6      1.134      1.273
REMARK  Name = 
REMARK  6 active torsions:
REMARK  status: ('A' for Active; 'I' for Inactive)
REMARK    1  A    between atoms: C_1  and  O_2
REMARK    2  A    between atoms: O_2  and  C_3
REMARK    3  A    between atoms: C_7  and  N_8
REMARK    4  A    between atoms: C_12  and  C_14
REMARK    5  A    between atoms: C_14  and  C_15
REMARK    6  A    between atoms: C_14  and  N_16
REMARK                            x       y       z     vdW  Elec       q    Type
REMARK                         _______ _______ _______ _____ _____    ______ ____
ROOT
ATOM      1  N   UNL     1       2.432   7.434  18.561  0.00  0.00    +0.000 N 
ATOM      2  C   UNL     1       2.339   8.524  17.571  0.00  0.00    +0.000 C 
ATOM      3  C   UNL     1       1.092   9.384  17.852  0.00  0.00    +0.000 C 
ATOM      4  N   UNL     1       1.036   9.833  19.256  0.00  0.00    +0.000 N 
ATOM      5  C   UNL     1       0.842  11.182  19.524  0.00  0.00    +0.000 C 
ATOM      6  O   UNL     1       0.760  12.001  18.604  0.00  0.00    +0.000 OA
ATOM      7  C   UNL     1       1.186   8.748  20.239  0.00  0.00    +0.000 C 
ATOM      8  C   UNL     1       2.439   7.881  19.962  0.00  0.00    +0.000 C 
ENDROOT
BRANCH   1  13
ATOM      9  C   UNL     1       1.782   3.807  18.017  0.00  0.00    +0.000 A 
ATOM     10  C   UNL     1       2.966   3.413  17.404  0.00  0.00    +0.000 A 
ATOM     11  C   UNL     1       3.964   4.350  17.163  0.00  0.00    +0.000 A 
ATOM     12  C   UNL     1       3.779   5.680  17.554  0.00  0.00    +0.000 A 
ATOM     13  C   UNL     1       2.607   6.113  18.194  0.00  0.00    +0.000 A 
ATOM     14  C   UNL     1       1.617   5.139  18.420  0.00  0.00    +0.000 A 
BRANCH   9  16
ATOM     15  C   UNL     1       0.914   2.195  19.508  0.00  0.00    +0.000 C 
ATOM     16  O   UNL     1       0.870   2.806  18.223  0.00  0.00    +0.000 OA
ENDBRANCH   9  16
ENDBRANCH   1  13
BRANCH   5  17
ATOM     17  C   UNL     1       0.760  11.653  20.996  0.00  0.00    +0.000 C 
ATOM     18  C   UNL     1       1.452  13.001  21.196  0.00  0.00    +0.000 C 
BRANCH  17  19
ATOM     19  N   UNL     1      -0.610  11.680  21.512  0.00  0.00    +0.000 N 
ATOM     20  C   UNL     1      -0.919  11.138  22.729  0.00  0.00    +0.000 C 
ATOM     21  O   UNL     1      -0.193  10.426  23.409  0.00  0.00    +0.000 OA
ATOM     22  C   UNL     1      -2.264  11.630  23.174  0.00  0.00    +0.000 C 
ATOM     23  C   UNL     1      -2.762  12.451  22.003  0.00  0.00    +0.000 C 
ATOM     24  C   UNL     1      -1.546  12.608  21.140  0.00  0.00    +0.000 C 
ATOM     25  O   UNL     1      -1.450  13.445  20.257  0.00  0.00    +0.000 OA
ENDBRANCH  17  19
ENDBRANCH   5  17
TORSDOF 4
ENDMDL
MODEL 4
REMARK VINA RESULT:      -6.5      3.209      8.003
REMARK  Name = 
REMARK  6 active torsions:
REMARK  status: ('A' for Active; 'I' for Inactive)
REMARK    1  A    between atoms: C_1  and  O_2
REMARK    2  A    between atoms: O_2  and  C_3
REMARK    3  A    between atoms: C_7  and  N_8
REMARK    4  A    between atoms: C_12  and  C_14
REMARK    5  A    between atoms: C_14  and  C_15
REMARK    6  A    between atoms: C_14  and  N_16
REMARK                            x       y       z     vdW  Elec       q    Type
REMARK                         _______ _______ _______ _____ _____    ______ ____
ROOT
ATOM      1  N   UNL     1       1.574   8.559  19.545  0.00  0.00    +0.000 N 
ATOM      2  C   UNL     1       1.746   7.649  20.693  0.00  0.00    +0.000 C 
ATOM      3  C   UNL     1       1.835   6.192  20.201  0.00  0.00    +0.000 C 
ATOM      4  N   UNL     1       2.847   6.028  19.141  0.00  0.00    +0.000 N 
ATOM      5  C   UNL     1       3.802   5.028  19.271  0.00  0.00    +0.000 C 
ATOM      6  O   UNL     1       3.832   4.314  20.278  0.00  0.00    +0.000 OA
ATOM      7  C   UNL     1       2.704   6.975  18.025  0.00  0.00    +0.000 C 
ATOM      8  C   UNL     1       2.616   8.442  18.513  0.00  0.00    +0.000 C 
ENDROOT
BRANCH   1  13
ATOM      9  C   UNL     1      -0.895  11.136  20.608  0.00  0.00    +0.000 A 
ATOM     10  C   UNL     1      -1.448  11.496  19.384  0.00  0.00    +0.000 A 
ATOM     11  C   UNL     1      -0.993  10.894  18.218  0.00  0.00    +0.000 A 
ATOM     12  C   UNL     1       0.006   9.918  18.281  0.00  0.00    +0.000 A 
ATOM     13  C   UNL     1       0.576   9.513  19.498  0.00  0.00    +0.000 A 
ATOM     14  C   UNL     1       0.094  10.144  20.660  0.00  0.00    +0.000 A 
BRANCH   9  16
ATOM     15  C   UNL     1      -1.185  11.144  22.951  0.00  0.00    +0.000 C 
ATOM     16  O   UNL     1      -1.423  11.776  21.698  0.00  0.00    +0.000 OA
ENDBRANCH   9  16
ENDBRANCH   1  13
BRANCH   5  17
ATOM     17  C   UNL     1       4.851   4.838  18.150  0.00  0.00    +0.000 C 
ATOM     18  C   UNL     1       4.192   4.709  16.777  0.00  0.00    +0.000 C 
BRANCH  17  19
ATOM     19  N   UNL     1       5.880   5.881  18.147  0.00  0.00    +0.000 N 
ATOM     20  C   UNL     1       6.951   5.822  18.994  0.00  0.00    +0.000 C 
ATOM     21  O   UNL     1       7.083   5.059  19.942  0.00  0.00    +0.000 OA
ATOM     22  C   UNL     1       8.015   6.771  18.530  0.00  0.00    +0.000 C 
ATOM     23  C   UNL     1       7.383   7.486  17.355  0.00  0.00    +0.000 C 
ATOM     24  C   UNL     1       6.156   6.674  17.065  0.00  0.00    +0.000 C 
ATOM     25  O   UNL     1       5.536   6.742  16.017  0.00  0.00    +0.000 OA
ENDBRANCH  17  19
ENDBRANCH   5  17
TORSDOF 4
ENDMDL
MODEL 5
REMARK VINA RESULT:      -6.5      2.656      8.380
REMARK  Name = 
REMARK  6 active torsions:
REMARK  status: ('A' for Active; 'I' for Inactive)
REMARK    1  A    between atoms: C_1  and  O_2
REMARK    2  A    between atoms: O_2  and  C_3
REMARK    3  A    between atoms: C_7  and  N_8
REMARK    4  A    between atoms: C_12  and  C_14
REMARK    5  A    between atoms: C_14  and  C_15
REMARK    6  A    between atoms: C_14  and  N_16
REMARK                            x       y       z     vdW  Elec       q    Type
REMARK                         _______ _______ _______ _____ _____    ______ ____
ROOT
ATOM      1  N   UNL     1       1.330   9.491  19.122  0.00  0.00    +0.000 N 
ATOM      2  C   UNL     1       1.421   8.873  20.458  0.00  0.00    +0.000 C 
ATOM      3  C   UNL     1       1.290   7.343  20.340  0.00  0.00    +0.000 C 
ATOM      4  N   UNL     1       2.227   6.784  19.348  0.00  0.00    +0.000 N 
ATOM      5  C   UNL     1       3.041   5.720  19.716  0.00  0.00    +0.000 C 
ATOM      6  O   UNL     1       3.013   5.275  20.867  0.00  0.00    +0.000 OA
ATOM      7  C   UNL     1       2.171   7.442  18.033  0.00  0.00    +0.000 C 
ATOM      8  C   UNL     1       2.304   8.980  18.146  0.00  0.00    +0.000 C 
ENDROOT
BRANCH   1  13
ATOM      9  C   UNL     1      -1.645  11.398  17.944  0.00  0.00    +0.000 A 
ATOM     10  C   UNL     1      -1.297  12.692  18.319  0.00  0.00    +0.000 A 
ATOM     11  C   UNL     1      -0.091  12.921  18.968  0.00  0.00    +0.000 A 
ATOM     12  C   UNL     1       0.776  11.854  19.226  0.00  0.00    +0.000 A 
ATOM     13  C   UNL     1       0.471  10.538  18.846  0.00  0.00    +0.000 A 
ATOM     14  C   UNL     1      -0.760  10.341  18.192  0.00  0.00    +0.000 A 
BRANCH   9  16
ATOM     15  C   UNL     1      -2.768  10.895  15.929  0.00  0.00    +0.000 C 
ATOM     16  O   UNL     1      -2.846  11.281  17.297  0.00  0.00    +0.000 OA
ENDBRANCH   9  16
ENDBRANCH   1  13
BRANCH   5  17
ATOM     17  C   UNL     1       4.009   5.116  18.671  0.00  0.00    +0.000 C 
ATOM     18  C   UNL     1       5.468   5.263  19.103  0.00  0.00    +0.000 C 
BRANCH  17  19
ATOM     19  N   UNL     1       3.695   3.725  18.337  0.00  0.00    +0.000 N 
ATOM     20  C   UNL     1       4.212   2.688  19.062  0.00  0.00    +0.000 C 
ATOM     21  O   UNL     1       5.103   2.762  19.896  0.00  0.00    +0.000 OA
ATOM     22  C   UNL     1       3.447   1.433  18.763  0.00  0.00    +0.000 C 
ATOM     23  C   UNL     1       2.478   1.842  17.675  0.00  0.00    +0.000 C 
ATOM     24  C   UNL     1       2.560   3.340  17.673  0.00  0.00    +0.000 C 
ATOM     25  O   UNL     1       1.725   4.060  17.152  0.00  0.00    +0.000 OA
ENDBRANCH  17  19
ENDBRANCH   5  17
TORSDOF 4
ENDMDL
MODEL 6
REMARK VINA RESULT:      -6.5      3.396      8.154
REMARK  Name = 
REMARK  6 active torsions:
REMARK  status: ('A' for Active; 'I' for Inactive)
REMARK    1  A    between atoms: C_1  and  O_2
REMARK    2  A    between atoms: O_2  and  C_3
REMARK    3  A    between atoms: C_7  and  N_8
REMARK    4  A    between atoms: C_12  and  C_14
REMARK    5  A    between atoms: C_14  and  C_15
REMARK    6  A    between atoms: C_14  and  N_16
REMARK                            x       y       z     vdW  Elec       q    Type
REMARK                         _______ _______ _______ _____ _____    ______ ____
ROOT
ATOM      1  N   UNL     1       1.509   8.760  19.291  0.00  0.00    +0.000 N 
ATOM      2  C   UNL     1       1.682   7.955  20.515  0.00  0.00    +0.000 C 
ATOM      3  C   UNL     1       1.780   6.461  20.153  0.00  0.00    +0.000 C 
ATOM      4  N   UNL     1       2.797   6.211  19.114  0.00  0.00    +0.000 N 
ATOM      5  C   UNL     1       3.758   5.232  19.335  0.00  0.00    +0.000 C 
ATOM      6  O   UNL     1       3.788   4.609  20.400  0.00  0.00    +0.000 OA
ATOM      7  C   UNL     1       2.654   7.056  17.919  0.00  0.00    +0.000 C 
ATOM      8  C   UNL     1       2.556   8.560  18.277  0.00  0.00    +0.000 C 
ENDROOT
BRANCH   1  13
ATOM      9  C   UNL     1      -1.355  10.692  17.898  0.00  0.00    +0.000 A 
ATOM     10  C   UNL     1      -1.571  11.616  18.915  0.00  0.00    +0.000 A 
ATOM     11  C   UNL     1      -0.779  11.586  20.055  0.00  0.00    +0.000 A 
ATOM     12  C   UNL     1       0.243  10.638  20.169  0.00  0.00    +0.000 A 
ATOM     13  C   UNL     1       0.506   9.701  19.158  0.00  0.00    +0.000 A 
ATOM     14  C   UNL     1      -0.316   9.758  18.017  0.00  0.00    +0.000 A 
BRANCH   9  16
ATOM     15  C   UNL     1      -3.467  11.358  17.081  0.00  0.00    +0.000 C 
ATOM     16  O   UNL     1      -2.178  10.816  16.812  0.00  0.00    +0.000 OA
ENDBRANCH   9  16
ENDBRANCH   1  13
BRANCH   5  17
ATOM     17  C   UNL     1       4.812   4.951  18.238  0.00  0.00    +0.000 C 
ATOM     18  C   UNL     1       4.166   4.791  16.862  0.00  0.00    +0.000 C 
BRANCH  17  19
ATOM     19  N   UNL     1       5.884   5.949  18.206  0.00  0.00    +0.000 N 
ATOM     20  C   UNL     1       6.965   5.855  19.038  0.00  0.00    +0.000 C 
ATOM     21  O   UNL     1       7.078   5.100  19.993  0.00  0.00    +0.000 OA
ATOM     22  C   UNL     1       8.060   6.753  18.545  0.00  0.00    +0.000 C 
ATOM     23  C   UNL     1       7.441   7.480  17.371  0.00  0.00    +0.000 C 
ATOM     24  C   UNL     1       6.177   6.717  17.109  0.00  0.00    +0.000 C 
ATOM     25  O   UNL     1       5.544   6.797  16.070  0.00  0.00    +0.000 OA
ENDBRANCH  17  19
ENDBRANCH   5  17
TORSDOF 4
ENDMDL
MODEL 7
REMARK VINA RESULT:      -6.5      2.878      4.042
REMARK  Name = 
REMARK  6 active torsions:
REMARK  status: ('A' for Active; 'I' for Inactive)
REMARK    1  A    between atoms: C_1  and  O_2
REMARK    2  A    between atoms: O_2  and  C_3
REMARK    3  A    between atoms: C_7  and  N_8
REMARK    4  A    between atoms: C_12  and  C_14
REMARK    5  A    between atoms: C_14  and  C_15
REMARK    6  A    between atoms: C_14  and  N_16
REMARK                            x       y       z     vdW  Elec       q    Type
REMARK                         _______ _______ _______ _____ _____    ______ ____
ROOT
ATOM      1  N   UNL     1       2.896   7.054  18.514  0.00  0.00    +0.000 N 
ATOM      2  C   UNL     1       2.051   6.858  19.707  0.00  0.00    +0.000 C 
ATOM      3  C   UNL     1       1.772   8.214  20.383  0.00  0.00    +0.000 C 
ATOM      4  N   UNL     1       1.251   9.209  19.428  0.00  0.00    +0.000 N 
ATOM      5  C   UNL     1       0.089   9.902  19.745  0.00  0.00    +0.000 C 
ATOM      6  O   UNL     1      -0.522   9.660  20.789  0.00  0.00    +0.000 OA
ATOM      7  C   UNL     1       2.067   9.360  18.213  0.00  0.00    +0.000 C 
ATOM      8  C   UNL     1       2.349   7.999  17.529  0.00  0.00    +0.000 C 
ENDROOT
BRANCH   1  13
ATOM      9  C   UNL     1       6.045   5.816  16.957  0.00  0.00    +0.000 A 
ATOM     10  C   UNL     1       6.434   4.848  17.877  0.00  0.00    +0.000 A 
ATOM     11  C   UNL     1       5.660   4.620  19.008  0.00  0.00    +0.000 A 
ATOM     12  C   UNL     1       4.486   5.354  19.209  0.00  0.00    +0.000 A 
ATOM     13  C   UNL     1       4.049   6.326  18.295  0.00  0.00    +0.000 A 
ATOM     14  C   UNL     1       4.857   6.531  17.161  0.00  0.00    +0.000 A 
BRANCH   9  16
ATOM     15  C   UNL     1       6.913   4.828  14.997  0.00  0.00    +0.000 C 
ATOM     16  O   UNL     1       6.866   5.951  15.870  0.00  0.00    +0.000 OA
ENDBRANCH   9  16
ENDBRANCH   1  13
BRANCH   5  17
ATOM     17  C   UNL     1      -0.448  10.963  18.756  0.00  0.00    +0.000 C 
ATOM     18  C   UNL     1      -1.803  10.558  18.175  0.00  0.00    +0.000 C 
BRANCH  17  19
ATOM     19  N   UNL     1      -0.502  12.308  19.333  0.00  0.00    +0.000 N 
ATOM     20  C   UNL     1       0.323  13.304  18.886  0.00  0.00    +0.000 C 
ATOM     21  O   UNL     1       1.287  13.167  18.146  0.00  0.00    +0.000 OA
ATOM     22  C   UNL     1      -0.190  14.632  19.357  0.00  0.00    +0.000 C 
ATOM     23  C   UNL     1      -1.369  14.281  20.239  0.00  0.00    +0.000 C 
ATOM     24  C   UNL     1      -1.610  12.830  19.946  0.00  0.00    +0.000 C 
ATOM     25  O   UNL     1      -2.645  12.250  20.226  0.00  0.00    +0.000 OA
ENDBRANCH  17  19
ENDBRANCH   5  17
TORSDOF 4
ENDMDL
MODEL 8
REMARK VINA RESULT:      -6.4      2.371      3.422
REMARK  Name = 
REMARK  6 active torsions:
REMARK  status: ('A' for Active; 'I' for Inactive)
REMARK    1  A    between atoms: C_1  and  O_2
REMARK    2  A    between atoms: O_2  and  C_3
REMARK    3  A    between atoms: C_7  and  N_8
REMARK    4  A    between atoms: C_12  and  C_14
REMARK    5  A    between atoms: C_14  and  C_15
REMARK    6  A    between atoms: C_14  and  N_16
REMARK                            x       y       z     vdW  Elec       q    Type
REMARK                         _______ _______ _______ _____ _____    ______ ____
ROOT
ATOM      1  N   UNL     1       1.456   8.340  19.841  0.00  0.00    +0.000 N 
ATOM      2  C   UNL     1       0.889   7.889  21.126  0.00  0.00    +0.000 C 
ATOM      3  C   UNL     1       1.027   9.003  22.181  0.00  0.00    +0.000 C 
ATOM      4  N   UNL     1       0.489  10.289  21.699  0.00  0.00    +0.000 N 
ATOM      5  C   UNL     1      -0.421  10.978  22.491  0.00  0.00    +0.000 C 
ATOM      6  O   UNL     1      -0.808  10.503  23.563  0.00  0.00    +0.000 OA
ATOM      7  C   UNL     1       1.016  10.706  20.390  0.00  0.00    +0.000 C 
ATOM      8  C   UNL     1       0.878   9.590  19.325  0.00  0.00    +0.000 C 
ENDROOT
BRANCH   1  13
ATOM      9  C   UNL     1       3.707   5.548  18.836  0.00  0.00    +0.000 A 
ATOM     10  C   UNL     1       4.235   6.046  17.650  0.00  0.00    +0.000 A 
ATOM     11  C   UNL     1       3.835   7.293  17.186  0.00  0.00    +0.000 A 
ATOM     12  C   UNL     1       2.916   8.048  17.922  0.00  0.00    +0.000 A 
ATOM     13  C   UNL     1       2.374   7.589  19.133  0.00  0.00    +0.000 A 
ATOM     14  C   UNL     1       2.800   6.322  19.572  0.00  0.00    +0.000 A 
BRANCH   9  16
ATOM     15  C   UNL     1       4.083   3.299  18.224  0.00  0.00    +0.000 C 
ATOM     16  O   UNL     1       4.177   4.319  19.213  0.00  0.00    +0.000 OA
ENDBRANCH   9  16
ENDBRANCH   1  13
BRANCH   5  17
ATOM     17  C   UNL     1      -0.969  12.338  21.999  0.00  0.00    +0.000 C 
ATOM     18  C   UNL     1      -1.940  12.165  20.831  0.00  0.00    +0.000 C 
BRANCH  17  19
ATOM     19  N   UNL     1      -1.570  13.134  23.071  0.00  0.00    +0.000 N 
ATOM     20  C   UNL     1      -1.065  14.358  23.412  0.00  0.00    +0.000 C 
ATOM     21  O   UNL     1       0.000  14.831  23.041  0.00  0.00    +0.000 OA
ATOM     22  C   UNL     1      -2.067  15.104  24.242  0.00  0.00    +0.000 C 
ATOM     23  C   UNL     1      -3.191  14.111  24.443  0.00  0.00    +0.000 C 
ATOM     24  C   UNL     1      -2.877  13.018  23.466  0.00  0.00    +0.000 C 
ATOM     25  O   UNL     1      -3.688  12.181  23.107  0.00  0.00    +0.000 OA
ENDBRANCH  17  19
ENDBRANCH   5  17
TORSDOF 4
ENDMDL
MODEL 9
REMARK VINA RESULT:      -6.4      0.338      1.528
REMARK  Name = 
REMARK  6 active torsions:
REMARK  status: ('A' for Active; 'I' for Inactive)
REMARK    1  A    between atoms: C_1  and  O_2
REMARK    2  A    between atoms: O_2  and  C_3
REMARK    3  A    between atoms: C_7  and  N_8
REMARK    4  A    between atoms: C_12  and  C_14
REMARK    5  A    between atoms: C_14  and  C_15
REMARK    6  A    between atoms: C_14  and  N_16
REMARK                            x       y       z     vdW  Elec       q    Type
REMARK                         _______ _______ _______ _____ _____    ______ ____
ROOT
ATOM      1  N   UNL     1       2.077   7.312  19.203  0.00  0.00    +0.000 N 
ATOM      2  C   UNL     1       2.542   8.184  18.107  0.00  0.00    +0.000 C 
ATOM      3  C   UNL     1       1.584   9.380  17.945  0.00  0.00    +0.000 C 
ATOM      4  N   UNL     1       1.355  10.081  19.222  0.00  0.00    +0.000 N 
ATOM      5  C   UNL     1       1.523  11.459  19.274  0.00  0.00    +0.000 C 
ATOM      6  O   UNL     1       1.901  12.084  18.279  0.00  0.00    +0.000 OA
ATOM      7  C   UNL     1       0.946   9.198  20.325  0.00  0.00    +0.000 C 
ATOM      8  C   UNL     1       1.906   7.994  20.494  0.00  0.00    +0.000 C 
ENDROOT
BRANCH   1  13
ATOM      9  C   UNL     1       1.359   3.736  19.953  0.00  0.00    +0.000 A 
ATOM     10  C   UNL     1       1.571   3.155  18.707  0.00  0.00    +0.000 A 
ATOM     11  C   UNL     1       1.936   3.949  17.628  0.00  0.00    +0.000 A 
ATOM     12  C   UNL     1       2.105   5.327  17.803  0.00  0.00    +0.000 A 
ATOM     13  C   UNL     1       1.921   5.949  19.048  0.00  0.00    +0.000 A 
ATOM     14  C   UNL     1       1.550   5.114  20.119  0.00  0.00    +0.000 A 
BRANCH   9  16
ATOM     15  C   UNL     1       2.023   2.639  21.936  0.00  0.00    +0.000 C 
ATOM     16  O   UNL     1       1.018   2.865  20.953  0.00  0.00    +0.000 OA
ENDBRANCH   9  16
ENDBRANCH   1  13
BRANCH   5  17
ATOM     17  C   UNL     1       1.262  12.200  20.606  0.00  0.00    +0.000 C 
ATOM     18  C   UNL     1       2.046  13.510  20.687  0.00  0.00    +0.000 C 
BRANCH  17  19
ATOM     19  N   UNL     1      -0.163  12.420  20.868  0.00  0.00    +0.000 N 
ATOM     20  C   UNL     1      -1.028  12.736  19.858  0.00  0.00    +0.000 C 
ATOM     21  O   UNL     1      -0.723  13.057  18.718  0.00  0.00    +0.000 OA
ATOM     22  C   UNL     1      -2.440  12.529  20.320  0.00  0.00    +0.000 C 
ATOM     23  C   UNL     1      -2.298  12.156  21.780  0.00  0.00    +0.000 C 
ATOM     24  C   UNL     1      -0.833  11.881  21.935  0.00  0.00    +0.000 C 
ATOM     25  O   UNL     1      -0.357  11.271  22.877  0.00  0.00    +0.000 OA
ENDBRANCH  17  19
ENDBRANCH   5  17
TORSDOF 4
ENDMDL
