MODEL 1
REMARK VINA RESULT:      -9.0      0.000      0.000
REMARK  Name = 
REMARK  7 active torsions:
REMARK  status: ('A' for Active; 'I' for Inactive)
REMARK    1  A    between atoms: C_1  and  O_2
REMARK    2  A    between atoms: O_2  and  C_3
REMARK    3  A    between atoms: C_8  and  C_9
REMARK    4  A    between atoms: C_11  and  C_12
REMARK    5  A    between atoms: N_17  and  C_18
REMARK    6  A    between atoms: C_21  and  S_22
REMARK    7  A    between atoms: S_22  and  C_23
REMARK                            x       y       z     vdW  Elec       q    Type
REMARK                         _______ _______ _______ _____ _____    ______ ____
ROOT
ATOM      1  C   UNL     1       6.466   5.052  15.714  0.00  0.00    +0.000 A 
ATOM      2  N   UNL     1       6.941   5.031  14.477  0.00  0.00    +0.000 NA
ATOM      3  C   UNL     1       6.194   4.109  13.765  0.00  0.00    +0.000 A 
ATOM      4  C   UNL     1       5.218   3.586  14.592  0.00  0.00    +0.000 A 
ATOM      5  N   UNL     1       5.317   4.250  15.797  0.00  0.00    +0.000 N 
ENDROOT
BRANCH   1  11
ATOM      6  C   UNL     1       7.851   7.854  17.865  0.00  0.00    +0.000 A 
ATOM      7  C   UNL     1       8.229   7.159  19.011  0.00  0.00    +0.000 A 
ATOM      8  C   UNL     1       8.112   5.779  19.038  0.00  0.00    +0.000 A 
ATOM      9  F   UNL     1       8.446   5.109  20.149  0.00  0.00    +0.000 F 
ATOM     10  C   UNL     1       7.621   5.078  17.948  0.00  0.00    +0.000 A 
ATOM     11  C   UNL     1       7.133   5.758  16.826  0.00  0.00    +0.000 A 
ATOM     12  C   UNL     1       7.298   7.153  16.782  0.00  0.00    +0.000 A 
BRANCH   6  14
ATOM     13  C   UNL     1       8.874   9.882  18.557  0.00  0.00    +0.000 C 
ATOM     14  O   UNL     1       7.956   9.209  17.698  0.00  0.00    +0.000 OA
ENDBRANCH   6  14
ENDBRANCH   1  11
BRANCH   5  15
ATOM     15  C   UNL     1       4.423   4.081  16.895  0.00  0.00    +0.000 A 
ATOM     16  C   UNL     1       3.697   5.179  17.380  0.00  0.00    +0.000 A 
ATOM     17  C   UNL     1       2.699   4.983  18.340  0.00  0.00    +0.000 A 
ATOM     18  C   UNL     1       2.438   3.695  18.816  0.00  0.00    +0.000 A 
ATOM     19  C   UNL     1       3.207   2.609  18.394  0.00  0.00    +0.000 A 
ATOM     20  C   UNL     1       4.214   2.809  17.450  0.00  0.00    +0.000 A 
BRANCH  18  21
ATOM     21  S   UNL     1       1.146   3.432  20.009  0.00  0.00    +0.000 S 
ATOM     22  C   UNL     1       1.963   2.569  21.326  0.00  0.00    +0.000 C 
ATOM     23  O   UNL     1       0.744   4.734  20.499  0.00  0.00    +0.000 OA
ATOM     24  O   UNL     1       0.181   2.528  19.406  0.00  0.00    +0.000 OA
ENDBRANCH  18  21
ENDBRANCH   5  15
BRANCH   3  25
ATOM     25  C   UNL     1       6.464   3.766  12.327  0.00  0.00    +0.000 C 
ATOM     26  F   UNL     1       5.361   3.835  11.537  0.00  0.00    +0.000 F 
ATOM     27  F   UNL     1       7.389   4.604  11.784  0.00  0.00    +0.000 F 
ATOM     28  F   UNL     1       6.963   2.508  12.197  0.00  0.00    +0.000 F 
ENDBRANCH   3  25
TORSDOF 5
ENDMDL
MODEL 2
REMARK VINA RESULT:      -9.0      0.483      1.267
REMARK  Name = 
REMARK  7 active torsions:
REMARK  status: ('A' for Active; 'I' for Inactive)
REMARK    1  A    between atoms: C_1  and  O_2
REMARK    2  A    between atoms: O_2  and  C_3
REMARK    3  A    between atoms: C_8  and  C_9
REMARK    4  A    between atoms: C_11  and  C_12
REMARK    5  A    between atoms: N_17  and  C_18
REMARK    6  A    between atoms: C_21  and  S_22
REMARK    7  A    between atoms: S_22  and  C_23
REMARK                            x       y       z     vdW  Elec       q    Type
REMARK                         _______ _______ _______ _____ _____    ______ ____
ROOT
ATOM      1  C   UNL     1       6.518   5.128  15.677  0.00  0.00    +0.000 A 
ATOM      2  N   UNL     1       7.047   5.063  14.463  0.00  0.00    +0.000 NA
ATOM      3  C   UNL     1       6.280   4.176  13.728  0.00  0.00    +0.000 A 
ATOM      4  C   UNL     1       5.239   3.721  14.515  0.00  0.00    +0.000 A 
ATOM      5  N   UNL     1       5.321   4.395  15.715  0.00  0.00    +0.000 N 
ENDROOT
BRANCH   1  11
ATOM      6  C   UNL     1       7.908   7.880  17.888  0.00  0.00    +0.000 A 
ATOM      7  C   UNL     1       8.248   7.166  19.034  0.00  0.00    +0.000 A 
ATOM      8  C   UNL     1       8.105   5.789  19.043  0.00  0.00    +0.000 A 
ATOM      9  F   UNL     1       8.402   5.101  20.154  0.00  0.00    +0.000 F 
ATOM     10  C   UNL     1       7.625   5.108  17.935  0.00  0.00    +0.000 A 
ATOM     11  C   UNL     1       7.174   5.809  16.811  0.00  0.00    +0.000 A 
ATOM     12  C   UNL     1       7.366   7.201  16.786  0.00  0.00    +0.000 A 
BRANCH   6  14
ATOM     13  C   UNL     1       8.904   9.891  18.666  0.00  0.00    +0.000 C 
ATOM     14  O   UNL     1       8.043   9.234  17.738  0.00  0.00    +0.000 OA
ENDBRANCH   6  14
ENDBRANCH   1  11
BRANCH   5  15
ATOM     15  C   UNL     1       4.370   4.293  16.773  0.00  0.00    +0.000 A 
ATOM     16  C   UNL     1       4.063   3.037  17.317  0.00  0.00    +0.000 A 
ATOM     17  C   UNL     1       3.263   2.952  18.461  0.00  0.00    +0.000 A 
ATOM     18  C   UNL     1       2.769   4.120  19.050  0.00  0.00    +0.000 A 
ATOM     19  C   UNL     1       3.007   5.367  18.470  0.00  0.00    +0.000 A 
ATOM     20  C   UNL     1       3.791   5.449  17.319  0.00  0.00    +0.000 A 
BRANCH  18  21
ATOM     21  S   UNL     1       1.782   4.023  20.526  0.00  0.00    +0.000 S 
ATOM     22  C   UNL     1       2.584   2.762  21.483  0.00  0.00    +0.000 C 
ATOM     23  O   UNL     1       1.929   5.285  21.223  0.00  0.00    +0.000 OA
ATOM     24  O   UNL     1       0.472   3.531  20.136  0.00  0.00    +0.000 OA
ENDBRANCH  18  21
ENDBRANCH   5  15
BRANCH   3  25
ATOM     25  C   UNL     1       6.595   3.798  12.308  0.00  0.00    +0.000 C 
ATOM     26  F   UNL     1       7.187   2.582  12.189  0.00  0.00    +0.000 F 
ATOM     27  F   UNL     1       5.468   3.763  11.544  0.00  0.00    +0.000 F 
ATOM     28  F   UNL     1       7.427   4.701  11.722  0.00  0.00    +0.000 F 
ENDBRANCH   3  25
TORSDOF 5
ENDMDL
MODEL 3
REMARK VINA RESULT:      -8.8      0.709      1.103
REMARK  Name = 
REMARK  7 active torsions:
REMARK  status: ('A' for Active; 'I' for Inactive)
REMARK    1  A    between atoms: C_1  and  O_2
REMARK    2  A    between atoms: O_2  and  C_3
REMARK    3  A    between atoms: C_8  and  C_9
REMARK    4  A    between atoms: C_11  and  C_12
REMARK    5  A    between atoms: N_17  and  C_18
REMARK    6  A    between atoms: C_21  and  S_22
REMARK    7  A    between atoms: S_22  and  C_23
REMARK                            x       y       z     vdW  Elec       q    Type
REMARK                         _______ _______ _______ _____ _____    ______ ____
ROOT
ATOM      1  C   UNL     1       6.544   5.022  15.636  0.00  0.00    +0.000 A 
ATOM      2  N   UNL     1       7.027   5.051  14.403  0.00  0.00    +0.000 NA
ATOM      3  C   UNL     1       6.327   4.112  13.665  0.00  0.00    +0.000 A 
ATOM      4  C   UNL     1       5.370   3.527  14.474  0.00  0.00    +0.000 A 
ATOM      5  N   UNL     1       5.431   4.168  15.693  0.00  0.00    +0.000 N 
ENDROOT
BRANCH   1  11
ATOM      6  C   UNL     1       7.824   7.835  17.839  0.00  0.00    +0.000 A 
ATOM      7  C   UNL     1       8.189   7.138  18.988  0.00  0.00    +0.000 A 
ATOM      8  C   UNL     1       8.099   5.756  19.003  0.00  0.00    +0.000 A 
ATOM      9  F   UNL     1       8.420   5.084  20.116  0.00  0.00    +0.000 F 
ATOM     10  C   UNL     1       7.647   5.053  17.896  0.00  0.00    +0.000 A 
ATOM     11  C   UNL     1       7.171   5.733  16.769  0.00  0.00    +0.000 A 
ATOM     12  C   UNL     1       7.310   7.130  16.738  0.00  0.00    +0.000 A 
BRANCH   6  14
ATOM     13  C   UNL     1       8.824   9.871  18.539  0.00  0.00    +0.000 C 
ATOM     14  O   UNL     1       7.907   9.192  17.683  0.00  0.00    +0.000 OA
ENDBRANCH   6  14
ENDBRANCH   1  11
BRANCH   5  15
ATOM     15  C   UNL     1       4.540   3.934  16.781  0.00  0.00    +0.000 A 
ATOM     16  C   UNL     1       3.719   4.972  17.247  0.00  0.00    +0.000 A 
ATOM     17  C   UNL     1       2.728   4.702  18.195  0.00  0.00    +0.000 A 
ATOM     18  C   UNL     1       2.566   3.401  18.678  0.00  0.00    +0.000 A 
ATOM     19  C   UNL     1       3.428   2.379  18.277  0.00  0.00    +0.000 A 
ATOM     20  C   UNL     1       4.427   2.653  17.343  0.00  0.00    +0.000 A 
BRANCH  18  21
ATOM     21  S   UNL     1       1.283   3.041  19.857  0.00  0.00    +0.000 S 
ATOM     22  C   UNL     1       0.896   4.628  20.550  0.00  0.00    +0.000 C 
ATOM     23  O   UNL     1       0.132   2.579  19.109  0.00  0.00    +0.000 OA
ATOM     24  O   UNL     1       1.876   2.224  20.902  0.00  0.00    +0.000 OA
ENDBRANCH  18  21
ENDBRANCH   5  15
BRANCH   3  25
ATOM     25  C   UNL     1       6.621   3.814  12.222  0.00  0.00    +0.000 C 
ATOM     26  F   UNL     1       7.206   2.604  12.026  0.00  0.00    +0.000 F 
ATOM     27  F   UNL     1       5.484   3.827  11.472  0.00  0.00    +0.000 F 
ATOM     28  F   UNL     1       7.449   4.745  11.677  0.00  0.00    +0.000 F 
ENDBRANCH   3  25
TORSDOF 5
ENDMDL
MODEL 4
REMARK VINA RESULT:      -8.7      0.823      1.505
REMARK  Name = 
REMARK  7 active torsions:
REMARK  status: ('A' for Active; 'I' for Inactive)
REMARK    1  A    between atoms: C_1  and  O_2
REMARK    2  A    between atoms: O_2  and  C_3
REMARK    3  A    between atoms: C_8  and  C_9
REMARK    4  A    between atoms: C_11  and  C_12
REMARK    5  A    between atoms: N_17  and  C_18
REMARK    6  A    between atoms: C_21  and  S_22
REMARK    7  A    between atoms: S_22  and  C_23
REMARK                            x       y       z     vdW  Elec       q    Type
REMARK                         _______ _______ _______ _____ _____    ______ ____
ROOT
ATOM      1  C   UNL     1       6.494   5.130  15.663  0.00  0.00    +0.000 A 
ATOM      2  N   UNL     1       7.021   5.054  14.449  0.00  0.00    +0.000 NA
ATOM      3  C   UNL     1       6.247   4.168  13.721  0.00  0.00    +0.000 A 
ATOM      4  C   UNL     1       5.204   3.725  14.513  0.00  0.00    +0.000 A 
ATOM      5  N   UNL     1       5.293   4.406  15.708  0.00  0.00    +0.000 N 
ENDROOT
BRANCH   1  11
ATOM      6  C   UNL     1       7.880   7.889  17.870  0.00  0.00    +0.000 A 
ATOM      7  C   UNL     1       8.245   7.173  19.007  0.00  0.00    +0.000 A 
ATOM      8  C   UNL     1       8.119   5.794  19.011  0.00  0.00    +0.000 A 
ATOM      9  F   UNL     1       8.439   5.104  20.114  0.00  0.00    +0.000 F 
ATOM     10  C   UNL     1       7.632   5.113  17.906  0.00  0.00    +0.000 A 
ATOM     11  C   UNL     1       7.157   5.814  16.792  0.00  0.00    +0.000 A 
ATOM     12  C   UNL     1       7.332   7.208  16.771  0.00  0.00    +0.000 A 
BRANCH   6  14
ATOM     13  C   UNL     1       8.887   9.903  18.623  0.00  0.00    +0.000 C 
ATOM     14  O   UNL     1       7.996   9.245  17.725  0.00  0.00    +0.000 OA
ENDBRANCH   6  14
ENDBRANCH   1  11
BRANCH   5  15
ATOM     15  C   UNL     1       4.343   4.317  16.768  0.00  0.00    +0.000 A 
ATOM     16  C   UNL     1       4.029   3.066  17.321  0.00  0.00    +0.000 A 
ATOM     17  C   UNL     1       3.230   2.994  18.467  0.00  0.00    +0.000 A 
ATOM     18  C   UNL     1       2.745   4.168  19.050  0.00  0.00    +0.000 A 
ATOM     19  C   UNL     1       2.991   5.410  18.462  0.00  0.00    +0.000 A 
ATOM     20  C   UNL     1       3.773   5.480  17.309  0.00  0.00    +0.000 A 
BRANCH  18  21
ATOM     21  S   UNL     1       1.761   4.088  20.529  0.00  0.00    +0.000 S 
ATOM     22  C   UNL     1       1.508   5.791  20.956  0.00  0.00    +0.000 C 
ATOM     23  O   UNL     1       0.481   3.517  20.161  0.00  0.00    +0.000 OA
ATOM     24  O   UNL     1       2.584   3.480  21.560  0.00  0.00    +0.000 OA
ENDBRANCH  18  21
ENDBRANCH   5  15
BRANCH   3  25
ATOM     25  C   UNL     1       6.556   3.779  12.302  0.00  0.00    +0.000 C 
ATOM     26  F   UNL     1       7.446   4.606  11.695  0.00  0.00    +0.000 F 
ATOM     27  F   UNL     1       7.076   2.523  12.235  0.00  0.00    +0.000 F 
ATOM     28  F   UNL     1       5.436   3.772  11.530  0.00  0.00    +0.000 F 
ENDBRANCH   3  25
TORSDOF 5
ENDMDL
MODEL 5
REMARK VINA RESULT:      -8.7      0.828      1.358
REMARK  Name = 
REMARK  7 active torsions:
REMARK  status: ('A' for Active; 'I' for Inactive)
REMARK    1  A    between atoms: C_1  and  O_2
REMARK    2  A    between atoms: O_2  and  C_3
REMARK    3  A    between atoms: C_8  and  C_9
REMARK    4  A    between atoms: C_11  and  C_12
REMARK    5  A    between atoms: N_17  and  C_18
REMARK    6  A    between atoms: C_21  and  S_22
REMARK    7  A    between atoms: S_22  and  C_23
REMARK                            x       y       z     vdW  Elec       q    Type
REMARK                         _______ _______ _______ _____ _____    ______ ____
ROOT
ATOM      1  C   UNL     1       6.503   5.092  15.691  0.00  0.00    +0.000 A 
ATOM      2  N   UNL     1       6.976   5.071  14.453  0.00  0.00    +0.000 NA
ATOM      3  C   UNL     1       6.236   4.141  13.746  0.00  0.00    +0.000 A 
ATOM      4  C   UNL     1       5.265   3.612  14.577  0.00  0.00    +0.000 A 
ATOM      5  N   UNL     1       5.361   4.281  15.778  0.00  0.00    +0.000 N 
ENDROOT
BRANCH   1  11
ATOM      6  C   UNL     1       7.878   7.913  17.825  0.00  0.00    +0.000 A 
ATOM      7  C   UNL     1       8.255   7.227  18.976  0.00  0.00    +0.000 A 
ATOM      8  C   UNL     1       8.141   5.847  19.013  0.00  0.00    +0.000 A 
ATOM      9  F   UNL     1       8.475   5.185  20.129  0.00  0.00    +0.000 F 
ATOM     10  C   UNL     1       7.654   5.136  17.926  0.00  0.00    +0.000 A 
ATOM     11  C   UNL     1       7.166   5.808  16.799  0.00  0.00    +0.000 A 
ATOM     12  C   UNL     1       7.329   7.202  16.746  0.00  0.00    +0.000 A 
BRANCH   6  14
ATOM     13  C   UNL     1       8.869   9.953  18.527  0.00  0.00    +0.000 C 
ATOM     14  O   UNL     1       7.981   9.266  17.648  0.00  0.00    +0.000 OA
ENDBRANCH   6  14
ENDBRANCH   1  11
BRANCH   5  15
ATOM     15  C   UNL     1       4.471   4.109  16.879  0.00  0.00    +0.000 A 
ATOM     16  C   UNL     1       4.341   2.849  17.481  0.00  0.00    +0.000 A 
ATOM     17  C   UNL     1       3.602   2.715  18.661  0.00  0.00    +0.000 A 
ATOM     18  C   UNL     1       2.991   3.837  19.227  0.00  0.00    +0.000 A 
ATOM     19  C   UNL     1       3.052   5.079  18.593  0.00  0.00    +0.000 A 
ATOM     20  C   UNL     1       3.775   5.207  17.407  0.00  0.00    +0.000 A 
BRANCH  18  21
ATOM     21  S   UNL     1       2.081   3.683  20.747  0.00  0.00    +0.000 S 
ATOM     22  C   UNL     1       0.503   3.058  20.228  0.00  0.00    +0.000 C 
ATOM     23  O   UNL     1       2.737   2.662  21.538  0.00  0.00    +0.000 OA
ATOM     24  O   UNL     1       1.885   5.025  21.269  0.00  0.00    +0.000 OA
ENDBRANCH  18  21
ENDBRANCH   5  15
BRANCH   3  25
ATOM     25  C   UNL     1       6.505   3.795  12.308  0.00  0.00    +0.000 C 
ATOM     26  F   UNL     1       5.401   3.851  11.520  0.00  0.00    +0.000 F 
ATOM     27  F   UNL     1       7.423   4.638  11.760  0.00  0.00    +0.000 F 
ATOM     28  F   UNL     1       7.016   2.540  12.182  0.00  0.00    +0.000 F 
ENDBRANCH   3  25
TORSDOF 5
ENDMDL
MODEL 6
REMARK VINA RESULT:      -8.0      4.536      6.693
REMARK  Name = 
REMARK  7 active torsions:
REMARK  status: ('A' for Active; 'I' for Inactive)
REMARK    1  A    between atoms: C_1  and  O_2
REMARK    2  A    between atoms: O_2  and  C_3
REMARK    3  A    between atoms: C_8  and  C_9
REMARK    4  A    between atoms: C_11  and  C_12
REMARK    5  A    between atoms: N_17  and  C_18
REMARK    6  A    between atoms: C_21  and  S_22
REMARK    7  A    between atoms: S_22  and  C_23
REMARK                            x       y       z     vdW  Elec       q    Type
REMARK                         _______ _______ _______ _____ _____    ______ ____
ROOT
ATOM      1  C   UNL     1       3.413   5.053  19.065  0.00  0.00    +0.000 A 
ATOM      2  N   UNL     1       3.274   3.789  19.440  0.00  0.00    +0.000 NA
ATOM      3  C   UNL     1       2.349   3.766  20.469  0.00  0.00    +0.000 A 
ATOM      4  C   UNL     1       1.893   5.052  20.693  0.00  0.00    +0.000 A 
ATOM      5  N   UNL     1       2.483   5.857  19.743  0.00  0.00    +0.000 N 
ENDROOT
BRANCH   1  11
ATOM      6  C   UNL     1       6.685   6.469  17.767  0.00  0.00    +0.000 A 
ATOM      7  C   UNL     1       6.569   6.221  16.401  0.00  0.00    +0.000 A 
ATOM      8  C   UNL     1       5.395   5.679  15.907  0.00  0.00    +0.000 A 
ATOM      9  F   UNL     1       5.290   5.410  14.599  0.00  0.00    +0.000 F 
ATOM     10  C   UNL     1       4.334   5.373  16.747  0.00  0.00    +0.000 A 
ATOM     11  C   UNL     1       4.464   5.510  18.134  0.00  0.00    +0.000 A 
ATOM     12  C   UNL     1       5.637   6.106  18.627  0.00  0.00    +0.000 A 
BRANCH   6  14
ATOM     13  C   UNL     1       8.111   8.359  17.950  0.00  0.00    +0.000 C 
ATOM     14  O   UNL     1       7.773   7.039  18.372  0.00  0.00    +0.000 OA
ENDBRANCH   6  14
ENDBRANCH   1  11
BRANCH   5  15
ATOM     15  C   UNL     1       2.200   7.242  19.560  0.00  0.00    +0.000 A 
ATOM     16  C   UNL     1       2.353   7.825  18.293  0.00  0.00    +0.000 A 
ATOM     17  C   UNL     1       1.916   9.135  18.073  0.00  0.00    +0.000 A 
ATOM     18  C   UNL     1       1.337   9.858  19.120  0.00  0.00    +0.000 A 
ATOM     19  C   UNL     1       1.253   9.312  20.402  0.00  0.00    +0.000 A 
ATOM     20  C   UNL     1       1.704   8.011  20.624  0.00  0.00    +0.000 A 
BRANCH  18  21
ATOM     21  S   UNL     1       0.745  11.511  18.840  0.00  0.00    +0.000 S 
ATOM     22  C   UNL     1       0.531  12.161  20.477  0.00  0.00    +0.000 C 
ATOM     23  O   UNL     1       1.815  12.246  18.196  0.00  0.00    +0.000 OA
ATOM     24  O   UNL     1      -0.565  11.400  18.222  0.00  0.00    +0.000 OA
ENDBRANCH  18  21
ENDBRANCH   5  15
BRANCH   3  25
ATOM     25  C   UNL     1       1.957   2.510  21.195  0.00  0.00    +0.000 C 
ATOM     26  F   UNL     1       0.891   2.671  22.021  0.00  0.00    +0.000 F 
ATOM     27  F   UNL     1       1.633   1.515  20.324  0.00  0.00    +0.000 F 
ATOM     28  F   UNL     1       2.978   2.033  21.957  0.00  0.00    +0.000 F 
ENDBRANCH   3  25
TORSDOF 5
ENDMDL
MODEL 7
REMARK VINA RESULT:      -7.9      4.696      6.833
REMARK  Name = 
REMARK  7 active torsions:
REMARK  status: ('A' for Active; 'I' for Inactive)
REMARK    1  A    between atoms: C_1  and  O_2
REMARK    2  A    between atoms: O_2  and  C_3
REMARK    3  A    between atoms: C_8  and  C_9
REMARK    4  A    between atoms: C_11  and  C_12
REMARK    5  A    between atoms: N_17  and  C_18
REMARK    6  A    between atoms: C_21  and  S_22
REMARK    7  A    between atoms: S_22  and  C_23
REMARK                            x       y       z     vdW  Elec       q    Type
REMARK                         _______ _______ _______ _____ _____    ______ ____
ROOT
ATOM      1  C   UNL     1       3.352   5.252  19.203  0.00  0.00    +0.000 A 
ATOM      2  N   UNL     1       3.238   3.975  19.539  0.00  0.00    +0.000 NA
ATOM      3  C   UNL     1       2.259   3.894  20.514  0.00  0.00    +0.000 A 
ATOM      4  C   UNL     1       1.747   5.157  20.745  0.00  0.00    +0.000 A 
ATOM      5  N   UNL     1       2.360   6.006  19.848  0.00  0.00    +0.000 N 
ENDROOT
BRANCH   1  11
ATOM      6  C   UNL     1       6.799   6.319  18.028  0.00  0.00    +0.000 A 
ATOM      7  C   UNL     1       6.564   6.571  16.679  0.00  0.00    +0.000 A 
ATOM      8  C   UNL     1       5.273   6.476  16.186  0.00  0.00    +0.000 A 
ATOM      9  F   UNL     1       5.046   6.688  14.883  0.00  0.00    +0.000 F 
ATOM     10  C   UNL     1       4.212   6.132  17.009  0.00  0.00    +0.000 A 
ATOM     11  C   UNL     1       4.436   5.768  18.342  0.00  0.00    +0.000 A 
ATOM     12  C   UNL     1       5.737   5.912  18.851  0.00  0.00    +0.000 A 
BRANCH   6  14
ATOM     13  C   UNL     1       8.202   5.622  19.813  0.00  0.00    +0.000 C 
ATOM     14  O   UNL     1       8.017   6.419  18.645  0.00  0.00    +0.000 OA
ENDBRANCH   6  14
ENDBRANCH   1  11
BRANCH   5  15
ATOM     15  C   UNL     1       2.039   7.385  19.684  0.00  0.00    +0.000 A 
ATOM     16  C   UNL     1       2.193   7.994  18.429  0.00  0.00    +0.000 A 
ATOM     17  C   UNL     1       1.721   9.294  18.225  0.00  0.00    +0.000 A 
ATOM     18  C   UNL     1       1.106   9.982  19.274  0.00  0.00    +0.000 A 
ATOM     19  C   UNL     1       1.018   9.412  20.545  0.00  0.00    +0.000 A 
ATOM     20  C   UNL     1       1.504   8.122  20.753  0.00  0.00    +0.000 A 
BRANCH  18  21
ATOM     21  S   UNL     1       0.470  11.622  19.012  0.00  0.00    +0.000 S 
ATOM     22  C   UNL     1       0.197  12.232  20.656  0.00  0.00    +0.000 C 
ATOM     23  O   UNL     1       1.531  12.402  18.409  0.00  0.00    +0.000 OA
ATOM     24  O   UNL     1      -0.822  11.483  18.361  0.00  0.00    +0.000 OA
ENDBRANCH  18  21
ENDBRANCH   5  15
BRANCH   3  25
ATOM     25  C   UNL     1       1.873   2.606  21.187  0.00  0.00    +0.000 C 
ATOM     26  F   UNL     1       1.549   1.616  20.317  0.00  0.00    +0.000 F 
ATOM     27  F   UNL     1       2.885   2.131  21.965  0.00  0.00    +0.000 F 
ATOM     28  F   UNL     1       0.803   2.773  22.011  0.00  0.00    +0.000 F 
ENDBRANCH   3  25
TORSDOF 5
ENDMDL
MODEL 8
REMARK VINA RESULT:      -7.9      4.557      6.719
REMARK  Name = 
REMARK  7 active torsions:
REMARK  status: ('A' for Active; 'I' for Inactive)
REMARK    1  A    between atoms: C_1  and  O_2
REMARK    2  A    between atoms: O_2  and  C_3
REMARK    3  A    between atoms: C_8  and  C_9
REMARK    4  A    between atoms: C_11  and  C_12
REMARK    5  A    between atoms: N_17  and  C_18
REMARK    6  A    between atoms: C_21  and  S_22
REMARK    7  A    between atoms: S_22  and  C_23
REMARK                            x       y       z     vdW  Elec       q    Type
REMARK                         _______ _______ _______ _____ _____    ______ ____
ROOT
ATOM      1  C   UNL     1       3.584   4.927  19.239  0.00  0.00    +0.000 A 
ATOM      2  N   UNL     1       3.392   3.663  19.587  0.00  0.00    +0.000 NA
ATOM      3  C   UNL     1       2.337   3.638  20.482  0.00  0.00    +0.000 A 
ATOM      4  C   UNL     1       1.859   4.924  20.649  0.00  0.00    +0.000 A 
ATOM      5  N   UNL     1       2.574   5.731  19.790  0.00  0.00    +0.000 N 
ENDROOT
BRANCH   1  11
ATOM      6  C   UNL     1       5.758   5.941  16.298  0.00  0.00    +0.000 A 
ATOM      7  C   UNL     1       6.888   6.429  16.949  0.00  0.00    +0.000 A 
ATOM      8  C   UNL     1       6.969   6.342  18.328  0.00  0.00    +0.000 A 
ATOM      9  F   UNL     1       8.041   6.837  18.961  0.00  0.00    +0.000 F 
ATOM     10  C   UNL     1       5.943   5.782  19.075  0.00  0.00    +0.000 A 
ATOM     11  C   UNL     1       4.751   5.385  18.458  0.00  0.00    +0.000 A 
ATOM     12  C   UNL     1       4.692   5.429  17.056  0.00  0.00    +0.000 A 
BRANCH   6  14
ATOM     13  C   UNL     1       5.749   4.673  14.291  0.00  0.00    +0.000 C 
ATOM     14  O   UNL     1       5.576   5.930  14.942  0.00  0.00    +0.000 OA
ENDBRANCH   6  14
ENDBRANCH   1  11
BRANCH   5  15
ATOM     15  C   UNL     1       2.322   7.119  19.577  0.00  0.00    +0.000 A 
ATOM     16  C   UNL     1       2.506   7.675  18.303  0.00  0.00    +0.000 A 
ATOM     17  C   UNL     1       2.099   8.989  18.052  0.00  0.00    +0.000 A 
ATOM     18  C   UNL     1       1.519   9.742  19.076  0.00  0.00    +0.000 A 
ATOM     19  C   UNL     1       1.402   9.222  20.366  0.00  0.00    +0.000 A 
ATOM     20  C   UNL     1       1.824   7.917  20.619  0.00  0.00    +0.000 A 
BRANCH  18  21
ATOM     21  S   UNL     1       0.965  11.402  18.756  0.00  0.00    +0.000 S 
ATOM     22  C   UNL     1       0.838  12.120  20.374  0.00  0.00    +0.000 C 
ATOM     23  O   UNL     1       2.028  12.078  18.041  0.00  0.00    +0.000 OA
ATOM     24  O   UNL     1      -0.374  11.308  18.198  0.00  0.00    +0.000 OA
ENDBRANCH  18  21
ENDBRANCH   5  15
BRANCH   3  25
ATOM     25  C   UNL     1       1.849   2.380  21.143  0.00  0.00    +0.000 C 
ATOM     26  F   UNL     1       2.758   1.820  21.981  0.00  0.00    +0.000 F 
ATOM     27  F   UNL     1       0.726   2.611  21.879  0.00  0.00    +0.000 F 
ATOM     28  F   UNL     1       1.518   1.430  20.228  0.00  0.00    +0.000 F 
ENDBRANCH   3  25
TORSDOF 5
ENDMDL
MODEL 9
REMARK VINA RESULT:      -7.8      4.696      6.868
REMARK  Name = 
REMARK  7 active torsions:
REMARK  status: ('A' for Active; 'I' for Inactive)
REMARK    1  A    between atoms: C_1  and  O_2
REMARK    2  A    between atoms: O_2  and  C_3
REMARK    3  A    between atoms: C_8  and  C_9
REMARK    4  A    between atoms: C_11  and  C_12
REMARK    5  A    between atoms: N_17  and  C_18
REMARK    6  A    between atoms: C_21  and  S_22
REMARK    7  A    between atoms: S_22  and  C_23
REMARK                            x       y       z     vdW  Elec       q    Type
REMARK                         _______ _______ _______ _____ _____    ______ ____
ROOT
ATOM      1  C   UNL     1       3.332   5.269  19.224  0.00  0.00    +0.000 A 
ATOM      2  N   UNL     1       3.230   3.985  19.533  0.00  0.00    +0.000 NA
ATOM      3  C   UNL     1       2.264   3.875  20.518  0.00  0.00    +0.000 A 
ATOM      4  C   UNL     1       1.747   5.130  20.784  0.00  0.00    +0.000 A 
ATOM      5  N   UNL     1       2.344   6.003  19.899  0.00  0.00    +0.000 N 
ENDROOT
BRANCH   1  11
ATOM      6  C   UNL     1       6.762   6.362  18.023  0.00  0.00    +0.000 A 
ATOM      7  C   UNL     1       6.501   6.665  16.688  0.00  0.00    +0.000 A 
ATOM      8  C   UNL     1       5.201   6.596  16.218  0.00  0.00    +0.000 A 
ATOM      9  F   UNL     1       4.949   6.858  14.928  0.00  0.00    +0.000 F 
ATOM     10  C   UNL     1       4.154   6.227  17.049  0.00  0.00    +0.000 A 
ATOM     11  C   UNL     1       4.402   5.812  18.362  0.00  0.00    +0.000 A 
ATOM     12  C   UNL     1       5.714   5.930  18.850  0.00  0.00    +0.000 A 
BRANCH   6  14
ATOM     13  C   UNL     1       8.187   5.610  19.767  0.00  0.00    +0.000 C 
ATOM     14  O   UNL     1       7.993   6.432  18.618  0.00  0.00    +0.000 OA
ENDBRANCH   6  14
ENDBRANCH   1  11
BRANCH   5  15
ATOM     15  C   UNL     1       2.012   7.383  19.770  0.00  0.00    +0.000 A 
ATOM     16  C   UNL     1       2.119   8.014  18.521  0.00  0.00    +0.000 A 
ATOM     17  C   UNL     1       1.636   9.315  18.356  0.00  0.00    +0.000 A 
ATOM     18  C   UNL     1       1.056   9.983  19.438  0.00  0.00    +0.000 A 
ATOM     19  C   UNL     1       1.015   9.391  20.702  0.00  0.00    +0.000 A 
ATOM     20  C   UNL     1       1.513   8.099  20.869  0.00  0.00    +0.000 A 
BRANCH  18  21
ATOM     21  S   UNL     1       0.405  11.624  19.227  0.00  0.00    +0.000 S 
ATOM     22  C   UNL     1      -1.089  11.366  18.304  0.00  0.00    +0.000 C 
ATOM     23  O   UNL     1       0.047  12.115  20.543  0.00  0.00    +0.000 OA
ATOM     24  O   UNL     1       1.338  12.351  18.384  0.00  0.00    +0.000 OA
ENDBRANCH  18  21
ENDBRANCH   5  15
BRANCH   3  25
ATOM     25  C   UNL     1       1.894   2.571  21.167  0.00  0.00    +0.000 C 
ATOM     26  F   UNL     1       2.878   2.056  21.949  0.00  0.00    +0.000 F 
ATOM     27  F   UNL     1       0.793   2.704  21.955  0.00  0.00    +0.000 F 
ATOM     28  F   UNL     1       1.589   1.621  20.242  0.00  0.00    +0.000 F 
ENDBRANCH   3  25
TORSDOF 5
ENDMDL
