MODEL 1
REMARK VINA RESULT:      -5.7      0.000      0.000
REMARK  Name = 
REMARK  4 active torsions:
REMARK  status: ('A' for Active; 'I' for Inactive)
REMARK    1  A    between atoms: C_1  and  C_2
REMARK    2  A    between atoms: C_2  and  N_3
REMARK    3  A    between atoms: C_7  and  S_8
REMARK    4  A    between atoms: S_8  and  N_9
REMARK                            x       y       z     vdW  Elec       q    Type
REMARK                         _______ _______ _______ _____ _____    ______ ____
ROOT
ATOM      1  N   UNL     1       3.205   2.695  19.257  0.00  0.00    +0.000 N 
ATOM      2  C   UNL     1       4.296   3.338  18.774  0.00  0.00    +0.000 A 
ATOM      3  N   UNL     1       5.361   3.691  19.469  0.00  0.00    +0.000 NA
ATOM      4  N   UNL     1       6.279   4.403  18.723  0.00  0.00    +0.000 NA
ATOM      5  C   UNL     1       5.856   4.550  17.486  0.00  0.00    +0.000 A 
ATOM      6  S   UNL     1       4.369   3.815  17.117  0.00  0.00    +0.000 S 
ATOM      7  H   UNL     1       2.390   2.689  18.651  0.00  0.00    +0.000 HD
ENDROOT
BRANCH   5   8
ATOM      8  S   UNL     1       6.691   5.483  16.250  0.00  0.00    +0.000 S 
ATOM      9  O   UNL     1       7.798   4.664  15.810  0.00  0.00    +0.000 OA
ATOM     10  O   UNL     1       5.662   5.964  15.355  0.00  0.00    +0.000 OA
BRANCH   8  11
ATOM     11  N   UNL     1       7.353   6.845  17.002  0.00  0.00    +0.000 NA
ATOM     12  H   UNL     1       7.800   6.598  17.886  0.00  0.00    +0.000 HD
ATOM     13  H   UNL     1       6.659   7.586  17.096  0.00  0.00    +0.000 HD
ENDBRANCH   8  11
ENDBRANCH   5   8
BRANCH   1  15
ATOM     14  C   UNL     1       1.484   3.347  20.857  0.00  0.00    +0.000 C 
ATOM     15  C   UNL     1       2.911   2.856  20.673  0.00  0.00    +0.000 C 
ENDBRANCH   1  15
TORSDOF 3
ENDMDL
MODEL 2
REMARK VINA RESULT:      -5.7      1.929      2.021
REMARK  Name = 
REMARK  4 active torsions:
REMARK  status: ('A' for Active; 'I' for Inactive)
REMARK    1  A    between atoms: C_1  and  C_2
REMARK    2  A    between atoms: C_2  and  N_3
REMARK    3  A    between atoms: C_7  and  S_8
REMARK    4  A    between atoms: S_8  and  N_9
REMARK                            x       y       z     vdW  Elec       q    Type
REMARK                         _______ _______ _______ _____ _____    ______ ____
ROOT
ATOM      1  N   UNL     1       2.475   3.411  17.426  0.00  0.00    +0.000 N 
ATOM      2  C   UNL     1       3.694   3.743  17.917  0.00  0.00    +0.000 A 
ATOM      3  N   UNL     1       4.033   3.784  19.192  0.00  0.00    +0.000 NA
ATOM      4  N   UNL     1       5.323   4.233  19.391  0.00  0.00    +0.000 NA
ATOM      5  C   UNL     1       5.901   4.508  18.241  0.00  0.00    +0.000 A 
ATOM      6  S   UNL     1       4.970   4.208  16.852  0.00  0.00    +0.000 S 
ATOM      7  H   UNL     1       2.315   3.635  16.448  0.00  0.00    +0.000 HD
ENDROOT
BRANCH   5   8
ATOM      8  S   UNL     1       7.510   5.199  18.073  0.00  0.00    +0.000 S 
ATOM      9  O   UNL     1       8.329   4.166  17.481  0.00  0.00    +0.000 OA
ATOM     10  O   UNL     1       7.320   6.499  17.468  0.00  0.00    +0.000 OA
BRANCH   8  11
ATOM     11  N   UNL     1       8.110   5.474  19.629  0.00  0.00    +0.000 NA
ATOM     12  H   UNL     1       9.098   5.223  19.693  0.00  0.00    +0.000 HD
ATOM     13  H   UNL     1       7.533   5.013  20.333  0.00  0.00    +0.000 HD
ENDBRANCH   8  11
ENDBRANCH   5   8
BRANCH   1  15
ATOM     14  C   UNL     1       0.780   2.290  18.775  0.00  0.00    +0.000 C 
ATOM     15  C   UNL     1       1.327   3.624  18.295  0.00  0.00    +0.000 C 
ENDBRANCH   1  15
TORSDOF 3
ENDMDL
MODEL 3
REMARK VINA RESULT:      -5.6      3.072      5.170
REMARK  Name = 
REMARK  4 active torsions:
REMARK  status: ('A' for Active; 'I' for Inactive)
REMARK    1  A    between atoms: C_1  and  C_2
REMARK    2  A    between atoms: C_2  and  N_3
REMARK    3  A    between atoms: C_7  and  S_8
REMARK    4  A    between atoms: S_8  and  N_9
REMARK                            x       y       z     vdW  Elec       q    Type
REMARK                         _______ _______ _______ _____ _____    ______ ____
ROOT
ATOM      1  N   UNL     1       6.031   6.640  17.427  0.00  0.00    +0.000 N 
ATOM      2  C   UNL     1       5.502   5.525  17.989  0.00  0.00    +0.000 A 
ATOM      3  N   UNL     1       6.055   4.798  18.943  0.00  0.00    +0.000 NA
ATOM      4  N   UNL     1       5.317   3.676  19.260  0.00  0.00    +0.000 NA
ATOM      5  C   UNL     1       4.229   3.612  18.522  0.00  0.00    +0.000 A 
ATOM      6  S   UNL     1       3.989   4.902  17.441  0.00  0.00    +0.000 S 
ATOM      7  H   UNL     1       5.590   6.954  16.568  0.00  0.00    +0.000 HD
ENDROOT
BRANCH   5   8
ATOM      8  S   UNL     1       3.079   2.282  18.553  0.00  0.00    +0.000 S 
ATOM      9  O   UNL     1       2.524   2.264  19.887  0.00  0.00    +0.000 OA
ATOM     10  O   UNL     1       2.269   2.433  17.364  0.00  0.00    +0.000 OA
BRANCH   8  11
ATOM     11  N   UNL     1       3.954   0.848  18.362  0.00  0.00    +0.000 NA
ATOM     12  H   UNL     1       4.831   1.015  17.867  0.00  0.00    +0.000 HD
ATOM     13  H   UNL     1       3.382   0.123  17.931  0.00  0.00    +0.000 HD
ENDBRANCH   8  11
ENDBRANCH   5   8
BRANCH   1  15
ATOM     14  C   UNL     1       7.866   8.223  17.706  0.00  0.00    +0.000 C 
ATOM     15  C   UNL     1       7.480   6.774  17.453  0.00  0.00    +0.000 C 
ENDBRANCH   1  15
TORSDOF 3
ENDMDL
MODEL 4
REMARK VINA RESULT:      -5.6      2.004      2.113
REMARK  Name = 
REMARK  4 active torsions:
REMARK  status: ('A' for Active; 'I' for Inactive)
REMARK    1  A    between atoms: C_1  and  C_2
REMARK    2  A    between atoms: C_2  and  N_3
REMARK    3  A    between atoms: C_7  and  S_8
REMARK    4  A    between atoms: S_8  and  N_9
REMARK                            x       y       z     vdW  Elec       q    Type
REMARK                         _______ _______ _______ _____ _____    ______ ____
ROOT
ATOM      1  N   UNL     1       2.070   4.278  18.312  0.00  0.00    +0.000 N 
ATOM      2  C   UNL     1       3.412   4.222  18.492  0.00  0.00    +0.000 A 
ATOM      3  N   UNL     1       4.067   3.305  19.179  0.00  0.00    +0.000 NA
ATOM      4  N   UNL     1       5.422   3.553  19.253  0.00  0.00    +0.000 NA
ATOM      5  C   UNL     1       5.727   4.658  18.607  0.00  0.00    +0.000 A 
ATOM      6  S   UNL     1       4.436   5.446  17.833  0.00  0.00    +0.000 S 
ATOM      7  H   UNL     1       1.708   5.154  17.947  0.00  0.00    +0.000 HD
ENDROOT
BRANCH   5   8
ATOM      8  S   UNL     1       7.334   5.370  18.551  0.00  0.00    +0.000 S 
ATOM      9  O   UNL     1       8.187   4.386  17.923  0.00  0.00    +0.000 OA
ATOM     10  O   UNL     1       7.156   6.707  18.028  0.00  0.00    +0.000 OA
BRANCH   8  11
ATOM     11  N   UNL     1       7.871   5.542  20.145  0.00  0.00    +0.000 NA
ATOM     12  H   UNL     1       7.200   6.072  20.704  0.00  0.00    +0.000 HD
ATOM     13  H   UNL     1       8.814   5.929  20.176  0.00  0.00    +0.000 HD
ENDBRANCH   8  11
ENDBRANCH   5   8
BRANCH   1  15
ATOM     14  C   UNL     1       1.103   4.563  20.533  0.00  0.00    +0.000 C 
ATOM     15  C   UNL     1       1.236   3.649  19.326  0.00  0.00    +0.000 C 
ENDBRANCH   1  15
TORSDOF 3
ENDMDL
MODEL 5
REMARK VINA RESULT:      -5.6      1.039      1.224
REMARK  Name = 
REMARK  4 active torsions:
REMARK  status: ('A' for Active; 'I' for Inactive)
REMARK    1  A    between atoms: C_1  and  C_2
REMARK    2  A    between atoms: C_2  and  N_3
REMARK    3  A    between atoms: C_7  and  S_8
REMARK    4  A    between atoms: S_8  and  N_9
REMARK                            x       y       z     vdW  Elec       q    Type
REMARK                         _______ _______ _______ _____ _____    ______ ____
ROOT
ATOM      1  N   UNL     1       2.927   2.607  18.810  0.00  0.00    +0.000 N 
ATOM      2  C   UNL     1       4.077   3.277  18.552  0.00  0.00    +0.000 A 
ATOM      3  N   UNL     1       5.042   3.527  19.417  0.00  0.00    +0.000 NA
ATOM      4  N   UNL     1       6.056   4.297  18.885  0.00  0.00    +0.000 NA
ATOM      5  C   UNL     1       5.803   4.592  17.627  0.00  0.00    +0.000 A 
ATOM      6  S   UNL     1       4.374   3.935  16.984  0.00  0.00    +0.000 S 
ATOM      7  H   UNL     1       2.200   2.687  18.105  0.00  0.00    +0.000 HD
ENDROOT
BRANCH   5   8
ATOM      8  S   UNL     1       6.802   5.638  16.627  0.00  0.00    +0.000 S 
ATOM      9  O   UNL     1       7.449   6.559  17.533  0.00  0.00    +0.000 OA
ATOM     10  O   UNL     1       7.533   4.759  15.742  0.00  0.00    +0.000 OA
BRANCH   8  11
ATOM     11  N   UNL     1       5.765   6.551  15.653  0.00  0.00    +0.000 NA
ATOM     12  H   UNL     1       5.686   6.146  14.718  0.00  0.00    +0.000 HD
ATOM     13  H   UNL     1       6.040   7.533  15.643  0.00  0.00    +0.000 HD
ENDBRANCH   8  11
ENDBRANCH   5   8
BRANCH   1  15
ATOM     14  C   UNL     1       1.207   3.487  20.298  0.00  0.00    +0.000 C 
ATOM     15  C   UNL     1       2.447   2.615  20.184  0.00  0.00    +0.000 C 
ENDBRANCH   1  15
TORSDOF 3
ENDMDL
MODEL 6
REMARK VINA RESULT:      -5.6      4.134      5.395
REMARK  Name = 
REMARK  4 active torsions:
REMARK  status: ('A' for Active; 'I' for Inactive)
REMARK    1  A    between atoms: C_1  and  C_2
REMARK    2  A    between atoms: C_2  and  N_3
REMARK    3  A    between atoms: C_7  and  S_8
REMARK    4  A    between atoms: S_8  and  N_9
REMARK                            x       y       z     vdW  Elec       q    Type
REMARK                         _______ _______ _______ _____ _____    ______ ____
ROOT
ATOM      1  N   UNL     1       5.528   3.696  13.298  0.00  0.00    +0.000 N 
ATOM      2  C   UNL     1       6.114   4.373  14.316  0.00  0.00    +0.000 A 
ATOM      3  N   UNL     1       7.153   5.181  14.217  0.00  0.00    +0.000 NA
ATOM      4  N   UNL     1       7.575   5.667  15.438  0.00  0.00    +0.000 NA
ATOM      5  C   UNL     1       6.822   5.198  16.409  0.00  0.00    +0.000 A 
ATOM      6  S   UNL     1       5.539   4.190  15.934  0.00  0.00    +0.000 S 
ATOM      7  H   UNL     1       4.886   2.958  13.569  0.00  0.00    +0.000 HD
ENDROOT
BRANCH   5   8
ATOM      8  S   UNL     1       7.097   5.501  18.120  0.00  0.00    +0.000 S 
ATOM      9  O   UNL     1       5.789   5.663  18.713  0.00  0.00    +0.000 OA
ATOM     10  O   UNL     1       8.039   4.493  18.554  0.00  0.00    +0.000 OA
BRANCH   8  11
ATOM     11  N   UNL     1       7.887   6.990  18.252  0.00  0.00    +0.000 NA
ATOM     12  H   UNL     1       8.863   6.916  17.960  0.00  0.00    +0.000 HD
ATOM     13  H   UNL     1       7.776   7.383  19.187  0.00  0.00    +0.000 HD
ENDBRANCH   8  11
ENDBRANCH   5   8
BRANCH   1  15
ATOM     14  C   UNL     1       5.890   2.096  11.493  0.00  0.00    +0.000 C 
ATOM     15  C   UNL     1       6.356   3.390  12.141  0.00  0.00    +0.000 C 
ENDBRANCH   1  15
TORSDOF 3
ENDMDL
MODEL 7
REMARK VINA RESULT:      -5.6      2.086      2.310
REMARK  Name = 
REMARK  4 active torsions:
REMARK  status: ('A' for Active; 'I' for Inactive)
REMARK    1  A    between atoms: C_1  and  C_2
REMARK    2  A    between atoms: C_2  and  N_3
REMARK    3  A    between atoms: C_7  and  S_8
REMARK    4  A    between atoms: S_8  and  N_9
REMARK                            x       y       z     vdW  Elec       q    Type
REMARK                         _______ _______ _______ _____ _____    ______ ____
ROOT
ATOM      1  N   UNL     1       2.116   4.872  18.395  0.00  0.00    +0.000 N 
ATOM      2  C   UNL     1       3.281   4.723  17.718  0.00  0.00    +0.000 A 
ATOM      3  N   UNL     1       3.634   3.675  16.997  0.00  0.00    +0.000 NA
ATOM      4  N   UNL     1       4.913   3.776  16.488  0.00  0.00    +0.000 NA
ATOM      5  C   UNL     1       5.468   4.912  16.853  0.00  0.00    +0.000 A 
ATOM      6  S   UNL     1       4.493   5.950  17.781  0.00  0.00    +0.000 S 
ATOM      7  H   UNL     1       2.090   5.631  19.069  0.00  0.00    +0.000 HD
ENDROOT
BRANCH   5   8
ATOM      8  S   UNL     1       7.126   5.373  16.493  0.00  0.00    +0.000 S 
ATOM      9  O   UNL     1       7.231   6.778  16.816  0.00  0.00    +0.000 OA
ATOM     10  O   UNL     1       7.960   4.360  17.102  0.00  0.00    +0.000 OA
BRANCH   8  11
ATOM     11  N   UNL     1       7.341   5.234  14.821  0.00  0.00    +0.000 NA
ATOM     12  H   UNL     1       6.657   4.594  14.414  0.00  0.00    +0.000 HD
ATOM     13  H   UNL     1       8.305   4.990  14.594  0.00  0.00    +0.000 HD
ENDBRANCH   8  11
ENDBRANCH   5   8
BRANCH   1  15
ATOM     14  C   UNL     1       1.036   3.764  20.280  0.00  0.00    +0.000 C 
ATOM     15  C   UNL     1       1.433   3.658  18.817  0.00  0.00    +0.000 C 
ENDBRANCH   1  15
TORSDOF 3
ENDMDL
MODEL 8
REMARK VINA RESULT:      -5.6      1.736      2.009
REMARK  Name = 
REMARK  4 active torsions:
REMARK  status: ('A' for Active; 'I' for Inactive)
REMARK    1  A    between atoms: C_1  and  C_2
REMARK    2  A    between atoms: C_2  and  N_3
REMARK    3  A    between atoms: C_7  and  S_8
REMARK    4  A    between atoms: S_8  and  N_9
REMARK                            x       y       z     vdW  Elec       q    Type
REMARK                         _______ _______ _______ _____ _____    ______ ____
ROOT
ATOM      1  N   UNL     1       2.188   4.622  18.563  0.00  0.00    +0.000 N 
ATOM      2  C   UNL     1       3.541   4.530  18.561  0.00  0.00    +0.000 A 
ATOM      3  N   UNL     1       4.271   3.796  19.379  0.00  0.00    +0.000 NA
ATOM      4  N   UNL     1       5.628   3.965  19.188  0.00  0.00    +0.000 NA
ATOM      5  C   UNL     1       5.855   4.827  18.220  0.00  0.00    +0.000 A 
ATOM      6  S   UNL     1       4.479   5.455  17.446  0.00  0.00    +0.000 S 
ATOM      7  H   UNL     1       1.796   5.387  18.021  0.00  0.00    +0.000 HD
ENDROOT
BRANCH   5   8
ATOM      8  S   UNL     1       7.451   5.389  17.739  0.00  0.00    +0.000 S 
ATOM      9  O   UNL     1       7.858   6.347  18.741  0.00  0.00    +0.000 OA
ATOM     10  O   UNL     1       8.213   4.198  17.432  0.00  0.00    +0.000 OA
BRANCH   8  11
ATOM     11  N   UNL     1       7.276   6.238  16.288  0.00  0.00    +0.000 NA
ATOM     12  H   UNL     1       7.523   5.654  15.487  0.00  0.00    +0.000 HD
ATOM     13  H   UNL     1       7.786   7.120  16.314  0.00  0.00    +0.000 HD
ENDBRANCH   8  11
ENDBRANCH   5   8
BRANCH   1  15
ATOM     14  C   UNL     1       0.848   2.984  19.774  0.00  0.00    +0.000 C 
ATOM     15  C   UNL     1       1.506   4.353  19.820  0.00  0.00    +0.000 C 
ENDBRANCH   1  15
TORSDOF 3
ENDMDL
MODEL 9
REMARK VINA RESULT:      -5.5      3.569      5.322
REMARK  Name = 
REMARK  4 active torsions:
REMARK  status: ('A' for Active; 'I' for Inactive)
REMARK    1  A    between atoms: C_1  and  C_2
REMARK    2  A    between atoms: C_2  and  N_3
REMARK    3  A    between atoms: C_7  and  S_8
REMARK    4  A    between atoms: S_8  and  N_9
REMARK                            x       y       z     vdW  Elec       q    Type
REMARK                         _______ _______ _______ _____ _____    ______ ____
ROOT
ATOM      1  N   UNL     1       5.423   3.641  13.379  0.00  0.00    +0.000 N 
ATOM      2  C   UNL     1       6.070   4.290  14.377  0.00  0.00    +0.000 A 
ATOM      3  N   UNL     1       7.080   5.127  14.234  0.00  0.00    +0.000 NA
ATOM      4  N   UNL     1       7.585   5.574  15.439  0.00  0.00    +0.000 NA
ATOM      5  C   UNL     1       6.919   5.046  16.444  0.00  0.00    +0.000 A 
ATOM      6  S   UNL     1       5.625   4.027  16.024  0.00  0.00    +0.000 S 
ATOM      7  H   UNL     1       4.820   2.876  13.666  0.00  0.00    +0.000 HD
ENDROOT
BRANCH   5   8
ATOM      8  S   UNL     1       7.317   5.286  18.140  0.00  0.00    +0.000 S 
ATOM      9  O   UNL     1       8.376   4.350  18.439  0.00  0.00    +0.000 OA
ATOM     10  O   UNL     1       7.456   6.715  18.315  0.00  0.00    +0.000 OA
BRANCH   8  11
ATOM     11  N   UNL     1       5.972   4.817  19.050  0.00  0.00    +0.000 NA
ATOM     12  H   UNL     1       5.346   5.606  19.216  0.00  0.00    +0.000 HD
ATOM     13  H   UNL     1       6.255   4.342  19.907  0.00  0.00    +0.000 HD
ENDBRANCH   8  11
ENDBRANCH   5   8
BRANCH   1  15
ATOM     14  C   UNL     1       5.672   2.131  11.479  0.00  0.00    +0.000 C 
ATOM     15  C   UNL     1       6.166   3.403  12.150  0.00  0.00    +0.000 C 
ENDBRANCH   1  15
TORSDOF 3
ENDMDL
