MODEL 1
REMARK VINA RESULT:      -7.3      0.000      0.000
REMARK  Name = 
REMARK  6 active torsions:
REMARK  status: ('A' for Active; 'I' for Inactive)
REMARK    1  A    between atoms: C_2  and  C_3
REMARK    2  A    between atoms: C_3  and  N_4
REMARK    3  A    between atoms: N_4  and  C_5
REMARK    4  A    between atoms: N_4  and  C_6
REMARK    5  A    between atoms: C_11  and  N_12
REMARK    6  A    between atoms: C_13  and  C_15
REMARK                            x       y       z     vdW  Elec       q    Type
REMARK                         _______ _______ _______ _____ _____    ______ ____
ROOT
ATOM      1  N   UNL     1       2.733   7.049  18.805  0.00  0.00    +0.000 N 
ATOM      2  C   UNL     1       2.135   8.251  18.494  0.00  0.00    +0.000 C 
ATOM      3  O   UNL     1       2.171   8.769  17.387  0.00  0.00    +0.000 OA
ATOM      4  H   UNL     1       2.522   6.609  19.691  0.00  0.00    +0.000 HD
ENDROOT
BRANCH   2   5
ATOM      5  C   UNL     1       1.331   8.877  19.580  0.00  0.00    +0.000 A 
ATOM      6  C   UNL     1       1.332   8.367  20.884  0.00  0.00    +0.000 A 
ATOM      7  C   UNL     1       0.589   9.007  21.881  0.00  0.00    +0.000 A 
ATOM      8  C   UNL     1      -0.156  10.152  21.583  0.00  0.00    +0.000 A 
ATOM      9 CL   UNL     1      -1.015  10.908  22.877  0.00  0.00    +0.000 Cl
ATOM     10  C   UNL     1      -0.173  10.651  20.275  0.00  0.00    +0.000 A 
ATOM     11 CL   UNL     1      -1.087  12.048  19.832  0.00  0.00    +0.000 Cl
ATOM     12  C   UNL     1       0.572  10.015  19.277  0.00  0.00    +0.000 A 
ENDBRANCH   2   5
BRANCH   1  18
ATOM     13  C   UNL     1       3.223   4.636  17.998  0.00  0.00    +0.000 C 
ATOM     14  C   UNL     1       3.825   4.009  16.707  0.00  0.00    +0.000 C 
ATOM     15  C   UNL     1       5.295   4.375  16.499  0.00  0.00    +0.000 C 
ATOM     16  C   UNL     1       5.494   5.887  16.454  0.00  0.00    +0.000 C 
ATOM     17  C   UNL     1       4.846   6.590  17.642  0.00  0.00    +0.000 C 
ATOM     18  C   UNL     1       3.367   6.200  17.797  0.00  0.00    +0.000 C 
BRANCH  13  19
ATOM     19  N   UNL     1       3.816   4.055  19.266  0.00  0.00    +0.000 NA
ATOM     20  C   UNL     1       4.050   2.605  19.092  0.00  0.00    +0.000 C 
BRANCH  19  21
ATOM     21  C   UNL     1       2.908   4.244  20.410  0.00  0.00    +0.000 C 
BRANCH  21  23
ATOM     22  C   UNL     1       1.351   2.678  21.606  0.00  0.00    +0.000 C 
ATOM     23  C   UNL     1       2.586   3.007  21.199  0.00  0.00    +0.000 C 
ENDBRANCH  21  23
ENDBRANCH  19  21
ENDBRANCH  13  19
ENDBRANCH   1  18
TORSDOF 5
ENDMDL
MODEL 2
REMARK VINA RESULT:      -7.2      0.944      1.639
REMARK  Name = 
REMARK  6 active torsions:
REMARK  status: ('A' for Active; 'I' for Inactive)
REMARK    1  A    between atoms: C_2  and  C_3
REMARK    2  A    between atoms: C_3  and  N_4
REMARK    3  A    between atoms: N_4  and  C_5
REMARK    4  A    between atoms: N_4  and  C_6
REMARK    5  A    between atoms: C_11  and  N_12
REMARK    6  A    between atoms: C_13  and  C_15
REMARK                            x       y       z     vdW  Elec       q    Type
REMARK                         _______ _______ _______ _____ _____    ______ ____
ROOT
ATOM      1  N   UNL     1       2.242   7.518  18.780  0.00  0.00    +0.000 N 
ATOM      2  C   UNL     1       1.826   8.760  18.353  0.00  0.00    +0.000 C 
ATOM      3  O   UNL     1       2.037   9.207  17.234  0.00  0.00    +0.000 OA
ATOM      4  H   UNL     1       1.890   7.156  19.656  0.00  0.00    +0.000 HD
ENDROOT
BRANCH   2   5
ATOM      5  C   UNL     1       0.994   9.534  19.316  0.00  0.00    +0.000 A 
ATOM      6  C   UNL     1       0.178  10.591  18.899  0.00  0.00    +0.000 A 
ATOM      7  C   UNL     1      -0.613  11.269  19.831  0.00  0.00    +0.000 A 
ATOM      8  C   UNL     1      -0.592  10.897  21.179  0.00  0.00    +0.000 A 
ATOM      9 CL   UNL     1      -1.628  11.756  22.263  0.00  0.00    +0.000 Cl
ATOM     10  C   UNL     1       0.239   9.853  21.600  0.00  0.00    +0.000 A 
ATOM     11 CL   UNL     1       0.330   9.355  23.252  0.00  0.00    +0.000 Cl
ATOM     12  C   UNL     1       1.029   9.171  20.669  0.00  0.00    +0.000 A 
ENDBRANCH   2   5
BRANCH   1  18
ATOM     13  C   UNL     1       2.871   5.038  18.368  0.00  0.00    +0.000 C 
ATOM     14  C   UNL     1       3.431   4.232  17.160  0.00  0.00    +0.000 C 
ATOM     15  C   UNL     1       4.848   4.655  16.769  0.00  0.00    +0.000 C 
ATOM     16  C   UNL     1       4.918   6.144  16.445  0.00  0.00    +0.000 C 
ATOM     17  C   UNL     1       4.299   7.003  17.542  0.00  0.00    +0.000 C 
ATOM     18  C   UNL     1       2.871   6.547  17.886  0.00  0.00    +0.000 C 
BRANCH  13  19
ATOM     19  N   UNL     1       3.597   4.737  19.663  0.00  0.00    +0.000 NA
ATOM     20  C   UNL     1       4.216   3.395  19.592  0.00  0.00    +0.000 C 
BRANCH  19  21
ATOM     21  C   UNL     1       2.670   4.760  20.807  0.00  0.00    +0.000 C 
BRANCH  21  23
ATOM     22  C   UNL     1       1.108   2.821  21.135  0.00  0.00    +0.000 C 
ATOM     23  C   UNL     1       1.373   4.028  20.611  0.00  0.00    +0.000 C 
ENDBRANCH  21  23
ENDBRANCH  19  21
ENDBRANCH  13  19
ENDBRANCH   1  18
TORSDOF 5
ENDMDL
MODEL 3
REMARK VINA RESULT:      -6.8      1.163      1.288
REMARK  Name = 
REMARK  6 active torsions:
REMARK  status: ('A' for Active; 'I' for Inactive)
REMARK    1  A    between atoms: C_2  and  C_3
REMARK    2  A    between atoms: C_3  and  N_4
REMARK    3  A    between atoms: N_4  and  C_5
REMARK    4  A    between atoms: N_4  and  C_6
REMARK    5  A    between atoms: C_11  and  N_12
REMARK    6  A    between atoms: C_13  and  C_15
REMARK                            x       y       z     vdW  Elec       q    Type
REMARK                         _______ _______ _______ _____ _____    ______ ____
ROOT
ATOM      1  N   UNL     1       2.588   6.561  19.417  0.00  0.00    +0.000 N 
ATOM      2  C   UNL     1       2.207   7.838  19.068  0.00  0.00    +0.000 C 
ATOM      3  O   UNL     1       2.452   8.356  17.987  0.00  0.00    +0.000 OA
ATOM      4  H   UNL     1       2.210   6.148  20.259  0.00  0.00    +0.000 HD
ENDROOT
BRANCH   2   5
ATOM      5  C   UNL     1       1.369   8.562  20.064  0.00  0.00    +0.000 A 
ATOM      6  C   UNL     1       1.363   8.207  21.418  0.00  0.00    +0.000 A 
ATOM      7  C   UNL     1       0.588   8.935  22.325  0.00  0.00    +0.000 A 
ATOM      8  C   UNL     1      -0.185  10.016  21.886  0.00  0.00    +0.000 A 
ATOM      9 CL   UNL     1      -1.084  10.891  23.073  0.00  0.00    +0.000 Cl
ATOM     10  C   UNL     1      -0.195  10.359  20.529  0.00  0.00    +0.000 A 
ATOM     11 CL   UNL     1      -1.140  11.668  19.915  0.00  0.00    +0.000 Cl
ATOM     12  C   UNL     1       0.583   9.634  19.621  0.00  0.00    +0.000 A 
ENDBRANCH   2   5
BRANCH   1  18
ATOM     13  C   UNL     1       2.349   4.402  18.005  0.00  0.00    +0.000 C 
ATOM     14  C   UNL     1       3.193   3.718  16.890  0.00  0.00    +0.000 C 
ATOM     15  C   UNL     1       4.557   3.239  17.388  0.00  0.00    +0.000 C 
ATOM     16  C   UNL     1       5.367   4.384  17.989  0.00  0.00    +0.000 C 
ATOM     17  C   UNL     1       4.573   5.169  19.028  0.00  0.00    +0.000 C 
ATOM     18  C   UNL     1       3.219   5.640  18.472  0.00  0.00    +0.000 C 
BRANCH  13  19
ATOM     19  N   UNL     1       1.906   3.435  19.084  0.00  0.00    +0.000 NA
ATOM     20  C   UNL     1       0.824   2.568  18.569  0.00  0.00    +0.000 C 
BRANCH  19  21
ATOM     21  C   UNL     1       1.401   4.155  20.266  0.00  0.00    +0.000 C 
BRANCH  21  23
ATOM     22  C   UNL     1       2.584   2.512  21.752  0.00  0.00    +0.000 C 
ATOM     23  C   UNL     1       1.745   3.548  21.596  0.00  0.00    +0.000 C 
ENDBRANCH  21  23
ENDBRANCH  19  21
ENDBRANCH  13  19
ENDBRANCH   1  18
TORSDOF 5
ENDMDL
MODEL 4
REMARK VINA RESULT:      -6.8      4.740      7.565
REMARK  Name = 
REMARK  6 active torsions:
REMARK  status: ('A' for Active; 'I' for Inactive)
REMARK    1  A    between atoms: C_2  and  C_3
REMARK    2  A    between atoms: C_3  and  N_4
REMARK    3  A    between atoms: N_4  and  C_5
REMARK    4  A    between atoms: N_4  and  C_6
REMARK    5  A    between atoms: C_11  and  N_12
REMARK    6  A    between atoms: C_13  and  C_15
REMARK                            x       y       z     vdW  Elec       q    Type
REMARK                         _______ _______ _______ _____ _____    ______ ____
ROOT
ATOM      1  N   UNL     1       4.142   3.449  18.180  0.00  0.00    +0.000 N 
ATOM      2  C   UNL     1       3.839   3.585  16.843  0.00  0.00    +0.000 C 
ATOM      3  O   UNL     1       2.728   3.391  16.368  0.00  0.00    +0.000 OA
ATOM      4  H   UNL     1       5.035   3.783  18.517  0.00  0.00    +0.000 HD
ENDROOT
BRANCH   2   5
ATOM      5  C   UNL     1       4.939   4.087  15.973  0.00  0.00    +0.000 A 
ATOM      6  C   UNL     1       5.895   4.993  16.447  0.00  0.00    +0.000 A 
ATOM      7  C   UNL     1       6.931   5.413  15.607  0.00  0.00    +0.000 A 
ATOM      8  C   UNL     1       7.016   4.934  14.296  0.00  0.00    +0.000 A 
ATOM      9 CL   UNL     1       8.348   5.469  13.334  0.00  0.00    +0.000 Cl
ATOM     10  C   UNL     1       6.049   4.044  13.816  0.00  0.00    +0.000 A 
ATOM     11 CL   UNL     1       6.081   3.428  12.202  0.00  0.00    +0.000 Cl
ATOM     12  C   UNL     1       5.014   3.620  14.655  0.00  0.00    +0.000 A 
ENDBRANCH   2   5
BRANCH   1  18
ATOM     13  C   UNL     1       2.104   4.356  19.497  0.00  0.00    +0.000 C 
ATOM     14  C   UNL     1       1.054   3.734  20.464  0.00  0.00    +0.000 C 
ATOM     15  C   UNL     1       1.673   3.233  21.769  0.00  0.00    +0.000 C 
ATOM     16  C   UNL     1       2.774   2.209  21.510  0.00  0.00    +0.000 C 
ATOM     17  C   UNL     1       3.797   2.707  20.495  0.00  0.00    +0.000 C 
ATOM     18  C   UNL     1       3.125   3.183  19.196  0.00  0.00    +0.000 C 
BRANCH  13  19
ATOM     19  N   UNL     1       2.689   5.652  20.020  0.00  0.00    +0.000 NA
ATOM     20  C   UNL     1       1.640   6.437  20.706  0.00  0.00    +0.000 C 
BRANCH  19  21
ATOM     21  C   UNL     1       3.235   6.467  18.921  0.00  0.00    +0.000 C 
BRANCH  21  23
ATOM     22  C   UNL     1       2.454   8.544  17.745  0.00  0.00    +0.000 C 
ATOM     23  C   UNL     1       2.234   7.287  18.158  0.00  0.00    +0.000 C 
ENDBRANCH  21  23
ENDBRANCH  19  21
ENDBRANCH  13  19
ENDBRANCH   1  18
TORSDOF 5
ENDMDL
MODEL 5
REMARK VINA RESULT:      -6.8      1.880      3.743
REMARK  Name = 
REMARK  6 active torsions:
REMARK  status: ('A' for Active; 'I' for Inactive)
REMARK    1  A    between atoms: C_2  and  C_3
REMARK    2  A    between atoms: C_3  and  N_4
REMARK    3  A    between atoms: N_4  and  C_5
REMARK    4  A    between atoms: N_4  and  C_6
REMARK    5  A    between atoms: C_11  and  N_12
REMARK    6  A    between atoms: C_13  and  C_15
REMARK                            x       y       z     vdW  Elec       q    Type
REMARK                         _______ _______ _______ _____ _____    ______ ____
ROOT
ATOM      1  N   UNL     1       2.295   6.267  18.435  0.00  0.00    +0.000 N 
ATOM      2  C   UNL     1       1.913   7.022  19.522  0.00  0.00    +0.000 C 
ATOM      3  O   UNL     1       1.801   6.582  20.658  0.00  0.00    +0.000 OA
ATOM      4  H   UNL     1       2.523   6.734  17.567  0.00  0.00    +0.000 HD
ENDROOT
BRANCH   2   5
ATOM      5  C   UNL     1       1.725   8.478  19.269  0.00  0.00    +0.000 A 
ATOM      6  C   UNL     1       2.195   9.088  18.100  0.00  0.00    +0.000 A 
ATOM      7  C   UNL     1       1.966  10.451  17.887  0.00  0.00    +0.000 A 
ATOM      8  C   UNL     1       1.273  11.208  18.836  0.00  0.00    +0.000 A 
ATOM      9 CL   UNL     1       0.995  12.876  18.482  0.00  0.00    +0.000 Cl
ATOM     10  C   UNL     1       0.820  10.603  20.014  0.00  0.00    +0.000 A 
ATOM     11 CL   UNL     1      -0.025  11.482  21.238  0.00  0.00    +0.000 Cl
ATOM     12  C   UNL     1       1.045   9.239  20.228  0.00  0.00    +0.000 A 
ENDBRANCH   2   5
BRANCH   1  18
ATOM     13  C   UNL     1       4.211   4.559  18.081  0.00  0.00    +0.000 C 
ATOM     14  C   UNL     1       4.451   3.075  18.488  0.00  0.00    +0.000 C 
ATOM     15  C   UNL     1       3.469   2.110  17.823  0.00  0.00    +0.000 C 
ATOM     16  C   UNL     1       2.022   2.480  18.134  0.00  0.00    +0.000 C 
ATOM     17  C   UNL     1       1.729   3.950  17.851  0.00  0.00    +0.000 C 
ATOM     18  C   UNL     1       2.734   4.877  18.556  0.00  0.00    +0.000 C 
BRANCH  13  19
ATOM     19  N   UNL     1       4.531   4.827  16.624  0.00  0.00    +0.000 NA
ATOM     20  C   UNL     1       5.579   3.893  16.159  0.00  0.00    +0.000 C 
BRANCH  19  21
ATOM     21  C   UNL     1       5.019   6.204  16.435  0.00  0.00    +0.000 C 
BRANCH  21  23
ATOM     22  C   UNL     1       7.229   6.941  17.374  0.00  0.00    +0.000 C 
ATOM     23  C   UNL     1       5.911   6.734  17.522  0.00  0.00    +0.000 C 
ENDBRANCH  21  23
ENDBRANCH  19  21
ENDBRANCH  13  19
ENDBRANCH   1  18
TORSDOF 5
ENDMDL
MODEL 6
REMARK VINA RESULT:      -6.6      1.855      3.683
REMARK  Name = 
REMARK  6 active torsions:
REMARK  status: ('A' for Active; 'I' for Inactive)
REMARK    1  A    between atoms: C_2  and  C_3
REMARK    2  A    between atoms: C_3  and  N_4
REMARK    3  A    between atoms: N_4  and  C_5
REMARK    4  A    between atoms: N_4  and  C_6
REMARK    5  A    between atoms: C_11  and  N_12
REMARK    6  A    between atoms: C_13  and  C_15
REMARK                            x       y       z     vdW  Elec       q    Type
REMARK                         _______ _______ _______ _____ _____    ______ ____
ROOT
ATOM      1  N   UNL     1       2.231   5.992  18.627  0.00  0.00    +0.000 N 
ATOM      2  C   UNL     1       1.852   6.784  19.689  0.00  0.00    +0.000 C 
ATOM      3  O   UNL     1       1.716   6.376  20.835  0.00  0.00    +0.000 OA
ATOM      4  H   UNL     1       2.479   6.431  17.751  0.00  0.00    +0.000 HD
ENDROOT
BRANCH   2   5
ATOM      5  C   UNL     1       1.700   8.236  19.397  0.00  0.00    +0.000 A 
ATOM      6  C   UNL     1       2.121   8.790  18.182  0.00  0.00    +0.000 A 
ATOM      7  C   UNL     1       1.927  10.152  17.935  0.00  0.00    +0.000 A 
ATOM      8  C   UNL     1       1.317  10.965  18.896  0.00  0.00    +0.000 A 
ATOM      9 CL   UNL     1       1.077  12.630  18.500  0.00  0.00    +0.000 Cl
ATOM     10  C   UNL     1       0.914  10.416  20.118  0.00  0.00    +0.000 A 
ATOM     11 CL   UNL     1       0.173  11.365  21.357  0.00  0.00    +0.000 Cl
ATOM     12  C   UNL     1       1.104   9.053  20.367  0.00  0.00    +0.000 A 
ENDBRANCH   2   5
BRANCH   1  18
ATOM     13  C   UNL     1       4.170   4.337  19.086  0.00  0.00    +0.000 C 
ATOM     14  C   UNL     1       4.268   2.812  19.383  0.00  0.00    +0.000 C 
ATOM     15  C   UNL     1       3.810   1.948  18.208  0.00  0.00    +0.000 C 
ATOM     16  C   UNL     1       2.380   2.280  17.792  0.00  0.00    +0.000 C 
ATOM     17  C   UNL     1       2.176   3.775  17.573  0.00  0.00    +0.000 C 
ATOM     18  C   UNL     1       2.636   4.597  18.789  0.00  0.00    +0.000 C 
BRANCH  13  19
ATOM     19  N   UNL     1       5.156   4.794  18.029  0.00  0.00    +0.000 NA
ATOM     20  C   UNL     1       6.539   4.563  18.499  0.00  0.00    +0.000 C 
BRANCH  19  21
ATOM     21  C   UNL     1       4.996   6.230  17.743  0.00  0.00    +0.000 C 
BRANCH  21  23
ATOM     22  C   UNL     1       5.364   5.856  15.287  0.00  0.00    +0.000 C 
ATOM     23  C   UNL     1       4.869   6.595  16.291  0.00  0.00    +0.000 C 
ENDBRANCH  21  23
ENDBRANCH  19  21
ENDBRANCH  13  19
ENDBRANCH   1  18
TORSDOF 5
ENDMDL
MODEL 7
REMARK VINA RESULT:      -6.6      4.595      7.546
REMARK  Name = 
REMARK  6 active torsions:
REMARK  status: ('A' for Active; 'I' for Inactive)
REMARK    1  A    between atoms: C_2  and  C_3
REMARK    2  A    between atoms: C_3  and  N_4
REMARK    3  A    between atoms: N_4  and  C_5
REMARK    4  A    between atoms: N_4  and  C_6
REMARK    5  A    between atoms: C_11  and  N_12
REMARK    6  A    between atoms: C_13  and  C_15
REMARK                            x       y       z     vdW  Elec       q    Type
REMARK                         _______ _______ _______ _____ _____    ______ ____
ROOT
ATOM      1  N   UNL     1       3.667   4.063  17.696  0.00  0.00    +0.000 N 
ATOM      2  C   UNL     1       5.033   4.224  17.767  0.00  0.00    +0.000 C 
ATOM      3  O   UNL     1       5.685   4.114  18.797  0.00  0.00    +0.000 OA
ATOM      4  H   UNL     1       3.225   4.008  16.788  0.00  0.00    +0.000 HD
ENDROOT
BRANCH   2   5
ATOM      5  C   UNL     1       5.729   4.455  16.471  0.00  0.00    +0.000 A 
ATOM      6  C   UNL     1       6.974   5.093  16.407  0.00  0.00    +0.000 A 
ATOM      7  C   UNL     1       7.608   5.259  15.172  0.00  0.00    +0.000 A 
ATOM      8  C   UNL     1       7.005   4.794  13.999  0.00  0.00    +0.000 A 
ATOM      9 CL   UNL     1       7.869   5.001  12.518  0.00  0.00    +0.000 Cl
ATOM     10  C   UNL     1       5.751   4.174  14.060  0.00  0.00    +0.000 A 
ATOM     11 CL   UNL     1       4.939   3.593  12.650  0.00  0.00    +0.000 Cl
ATOM     12  C   UNL     1       5.116   4.004  15.295  0.00  0.00    +0.000 A 
ENDBRANCH   2   5
BRANCH   1  18
ATOM     13  C   UNL     1       1.885   4.677  19.474  0.00  0.00    +0.000 C 
ATOM     14  C   UNL     1       1.054   3.878  20.520  0.00  0.00    +0.000 C 
ATOM     15  C   UNL     1       1.922   3.246  21.610  0.00  0.00    +0.000 C 
ATOM     16  C   UNL     1       2.985   2.326  21.016  0.00  0.00    +0.000 C 
ATOM     17  C   UNL     1       3.784   3.008  19.910  0.00  0.00    +0.000 C 
ATOM     18  C   UNL     1       2.867   3.611  18.834  0.00  0.00    +0.000 C 
BRANCH  13  19
ATOM     19  N   UNL     1       2.519   5.924  20.056  0.00  0.00    +0.000 NA
ATOM     20  C   UNL     1       1.503   6.711  20.787  0.00  0.00    +0.000 C 
BRANCH  19  21
ATOM     21  C   UNL     1       3.088   6.773  18.994  0.00  0.00    +0.000 C 
BRANCH  21  23
ATOM     22  C   UNL     1       2.214   8.774  17.753  0.00  0.00    +0.000 C 
ATOM     23  C   UNL     1       2.090   7.492  18.131  0.00  0.00    +0.000 C 
ENDBRANCH  21  23
ENDBRANCH  19  21
ENDBRANCH  13  19
ENDBRANCH   1  18
TORSDOF 5
ENDMDL
MODEL 8
REMARK VINA RESULT:      -6.6      4.814      7.467
REMARK  Name = 
REMARK  6 active torsions:
REMARK  status: ('A' for Active; 'I' for Inactive)
REMARK    1  A    between atoms: C_2  and  C_3
REMARK    2  A    between atoms: C_3  and  N_4
REMARK    3  A    between atoms: N_4  and  C_5
REMARK    4  A    between atoms: N_4  and  C_6
REMARK    5  A    between atoms: C_11  and  N_12
REMARK    6  A    between atoms: C_13  and  C_15
REMARK                            x       y       z     vdW  Elec       q    Type
REMARK                         _______ _______ _______ _____ _____    ______ ____
ROOT
ATOM      1  N   UNL     1       4.196   5.805  17.240  0.00  0.00    +0.000 N 
ATOM      2  C   UNL     1       5.485   5.337  17.109  0.00  0.00    +0.000 C 
ATOM      3  O   UNL     1       6.264   5.202  18.042  0.00  0.00    +0.000 OA
ATOM      4  H   UNL     1       3.564   5.733  16.454  0.00  0.00    +0.000 HD
ENDROOT
BRANCH   2   5
ATOM      5  C   UNL     1       5.880   4.893  15.743  0.00  0.00    +0.000 A 
ATOM      6  C   UNL     1       5.146   3.930  15.042  0.00  0.00    +0.000 A 
ATOM      7  C   UNL     1       5.533   3.567  13.748  0.00  0.00    +0.000 A 
ATOM      8  C   UNL     1       6.650   4.161  13.151  0.00  0.00    +0.000 A 
ATOM      9 CL   UNL     1       7.040   3.690  11.536  0.00  0.00    +0.000 Cl
ATOM     10  C   UNL     1       7.395   5.111  13.860  0.00  0.00    +0.000 A 
ATOM     11 CL   UNL     1       8.797   5.869  13.193  0.00  0.00    +0.000 Cl
ATOM     12  C   UNL     1       7.009   5.477  15.153  0.00  0.00    +0.000 A 
ENDBRANCH   2   5
BRANCH   1  18
ATOM     13  C   UNL     1       2.944   4.825  19.286  0.00  0.00    +0.000 C 
ATOM     14  C   UNL     1       2.539   5.364  20.690  0.00  0.00    +0.000 C 
ATOM     15  C   UNL     1       1.525   6.506  20.617  0.00  0.00    +0.000 C 
ATOM     16  C   UNL     1       2.046   7.665  19.774  0.00  0.00    +0.000 C 
ATOM     17  C   UNL     1       2.553   7.205  18.411  0.00  0.00    +0.000 C 
ATOM     18  C   UNL     1       3.581   6.068  18.541  0.00  0.00    +0.000 C 
BRANCH  13  19
ATOM     19  N   UNL     1       1.806   4.116  18.579  0.00  0.00    +0.000 NA
ATOM     20  C   UNL     1       0.955   3.420  19.568  0.00  0.00    +0.000 C 
BRANCH  19  21
ATOM     21  C   UNL     1       2.318   3.119  17.623  0.00  0.00    +0.000 C 
BRANCH  21  23
ATOM     22  C   UNL     1       3.624   1.191  18.562  0.00  0.00    +0.000 C 
ATOM     23  C   UNL     1       3.585   2.420  18.026  0.00  0.00    +0.000 C 
ENDBRANCH  21  23
ENDBRANCH  19  21
ENDBRANCH  13  19
ENDBRANCH   1  18
TORSDOF 5
ENDMDL
MODEL 9
REMARK VINA RESULT:      -6.6      3.291      7.042
REMARK  Name = 
REMARK  6 active torsions:
REMARK  status: ('A' for Active; 'I' for Inactive)
REMARK    1  A    between atoms: C_2  and  C_3
REMARK    2  A    between atoms: C_3  and  N_4
REMARK    3  A    between atoms: N_4  and  C_5
REMARK    4  A    between atoms: N_4  and  C_6
REMARK    5  A    between atoms: C_11  and  N_12
REMARK    6  A    between atoms: C_13  and  C_15
REMARK                            x       y       z     vdW  Elec       q    Type
REMARK                         _______ _______ _______ _____ _____    ______ ____
ROOT
ATOM      1  N   UNL     1       0.567   9.203  18.260  0.00  0.00    +0.000 N 
ATOM      2  C   UNL     1       1.898   9.165  17.906  0.00  0.00    +0.000 C 
ATOM      3  O   UNL     1       2.514  10.118  17.449  0.00  0.00    +0.000 OA
ATOM      4  H   UNL     1       0.174   8.429  18.778  0.00  0.00    +0.000 HD
ENDROOT
BRANCH   2   5
ATOM      5  C   UNL     1       2.613   7.892  18.200  0.00  0.00    +0.000 A 
ATOM      6  C   UNL     1       3.710   7.472  17.439  0.00  0.00    +0.000 A 
ATOM      7  C   UNL     1       4.374   6.287  17.771  0.00  0.00    +0.000 A 
ATOM      8  C   UNL     1       3.946   5.517  18.858  0.00  0.00    +0.000 A 
ATOM      9 CL   UNL     1       4.842   4.088  19.229  0.00  0.00    +0.000 Cl
ATOM     10  C   UNL     1       2.836   5.927  19.606  0.00  0.00    +0.000 A 
ATOM     11 CL   UNL     1       2.241   5.015  20.948  0.00  0.00    +0.000 Cl
ATOM     12  C   UNL     1       2.173   7.113  19.278  0.00  0.00    +0.000 A 
ENDBRANCH   2   5
BRANCH   1  18
ATOM     13  C   UNL     1       0.079  11.476  19.403  0.00  0.00    +0.000 C 
ATOM     14  C   UNL     1      -0.755  12.737  19.032  0.00  0.00    +0.000 C 
ATOM     15  C   UNL     1      -2.256  12.455  18.956  0.00  0.00    +0.000 C 
ATOM     16  C   UNL     1      -2.567  11.346  17.956  0.00  0.00    +0.000 C 
ATOM     17  C   UNL     1      -1.717  10.101  18.193  0.00  0.00    +0.000 C 
ATOM     18  C   UNL     1      -0.217  10.437  18.245  0.00  0.00    +0.000 C 
BRANCH  13  19
ATOM     19  N   UNL     1      -0.168  11.004  20.822  0.00  0.00    +0.000 NA
ATOM     20  C   UNL     1      -0.457  12.163  21.694  0.00  0.00    +0.000 C 
BRANCH  19  21
ATOM     21  C   UNL     1       1.010  10.301  21.358  0.00  0.00    +0.000 C 
BRANCH  21  23
ATOM     22  C   UNL     1      -0.413   8.270  21.754  0.00  0.00    +0.000 C 
ATOM     23  C   UNL     1       0.768   8.900  21.844  0.00  0.00    +0.000 C 
ENDBRANCH  21  23
ENDBRANCH  19  21
ENDBRANCH  13  19
ENDBRANCH   1  18
TORSDOF 5
ENDMDL
