MODEL 1
REMARK VINA RESULT:      -8.0      0.000      0.000
REMARK  Name = 
REMARK  3 active torsions:
REMARK  status: ('A' for Active; 'I' for Inactive)
REMARK    1  A    between atoms: S_2  and  C_4
REMARK    2  A    between atoms: S_2  and  N_10
REMARK    3  A    between atoms: C_12  and  C_13
REMARK                            x       y       z     vdW  Elec       q    Type
REMARK                         _______ _______ _______ _____ _____    ______ ____
ROOT
ATOM      1  N   UNL     1       4.679   4.238  17.202  0.00  0.00    +0.000 N 
ATOM      2  C   UNL     1       4.357   5.179  16.211  0.00  0.00    +0.000 A 
ATOM      3  C   UNL     1       5.629   5.429  15.756  0.00  0.00    +0.000 A 
ATOM      4  C   UNL     1       6.295   5.718  16.957  0.00  0.00    +0.000 A 
ATOM      5  C   UNL     1       7.373   6.566  17.218  0.00  0.00    +0.000 A 
ATOM      6  C   UNL     1       7.897   6.610  18.485  0.00  0.00    +0.000 A 
ATOM      7  C   UNL     1       7.418   5.706  19.440  0.00  0.00    +0.000 A 
ATOM      8  C   UNL     1       6.365   4.785  19.197  0.00  0.00    +0.000 A 
ATOM      9  C   UNL     1       5.736   4.835  17.928  0.00  0.00    +0.000 A 
ENDROOT
BRANCH   3  10
ATOM     10  C   UNL     1       6.180   4.907  14.539  0.00  0.00    +0.000 A 
ATOM     11  C   UNL     1       5.485   3.904  13.874  0.00  0.00    +0.000 A 
ATOM     12  C   UNL     1       5.971   3.480  12.663  0.00  0.00    +0.000 A 
ATOM     13  N   UNL     1       7.103   3.949  12.090  0.00  0.00    +0.000 NA
ATOM     14  C   UNL     1       7.789   4.889  12.779  0.00  0.00    +0.000 A 
ATOM     15  C   UNL     1       7.381   5.395  13.996  0.00  0.00    +0.000 A 
ENDBRANCH   3  10
BRANCH   1  17
ATOM     16  O   UNL     1       4.154   1.791  17.506  0.00  0.00    +0.000 OA
ATOM     17  S   UNL     1       3.460   3.066  17.472  0.00  0.00    +0.000 S 
ATOM     18  O   UNL     1       2.394   3.364  16.535  0.00  0.00    +0.000 OA
BRANCH  17  19
ATOM     19  C   UNL     1       2.858   3.404  19.189  0.00  0.00    +0.000 A 
ATOM     20  C   UNL     1       2.956   2.409  20.181  0.00  0.00    +0.000 A 
ATOM     21  C   UNL     1       2.585   2.668  21.514  0.00  0.00    +0.000 A 
ATOM     22  C   UNL     1       2.053   3.910  21.852  0.00  0.00    +0.000 A 
ATOM     23  C   UNL     1       1.892   4.878  20.861  0.00  0.00    +0.000 A 
ATOM     24  C   UNL     1       2.294   4.635  19.536  0.00  0.00    +0.000 A 
ENDBRANCH  17  19
ENDBRANCH   1  17
TORSDOF 3
ENDMDL
MODEL 2
REMARK VINA RESULT:      -7.9      2.648      6.217
REMARK  Name = 
REMARK  3 active torsions:
REMARK  status: ('A' for Active; 'I' for Inactive)
REMARK    1  A    between atoms: S_2  and  C_4
REMARK    2  A    between atoms: S_2  and  N_10
REMARK    3  A    between atoms: C_12  and  C_13
REMARK                            x       y       z     vdW  Elec       q    Type
REMARK                         _______ _______ _______ _____ _____    ______ ____
ROOT
ATOM      1  N   UNL     1       5.531   5.836  17.961  0.00  0.00    +0.000 N 
ATOM      2  C   UNL     1       5.485   5.362  19.281  0.00  0.00    +0.000 A 
ATOM      3  C   UNL     1       4.140   5.089  19.345  0.00  0.00    +0.000 A 
ATOM      4  C   UNL     1       3.595   6.305  18.906  0.00  0.00    +0.000 A 
ATOM      5  C   UNL     1       2.394   6.936  19.236  0.00  0.00    +0.000 A 
ATOM      6  C   UNL     1       2.052   8.099  18.596  0.00  0.00    +0.000 A 
ATOM      7  C   UNL     1       2.855   8.544  17.539  0.00  0.00    +0.000 A 
ATOM      8  C   UNL     1       4.052   7.896  17.131  0.00  0.00    +0.000 A 
ATOM      9  C   UNL     1       4.472   6.771  17.883  0.00  0.00    +0.000 A 
ENDROOT
BRANCH   3  10
ATOM     10  C   UNL     1       3.566   3.776  19.261  0.00  0.00    +0.000 A 
ATOM     11  C   UNL     1       2.516   3.457  20.113  0.00  0.00    +0.000 A 
ATOM     12  C   UNL     1       1.913   2.235  19.959  0.00  0.00    +0.000 A 
ATOM     13  N   UNL     1       2.297   1.304  19.056  0.00  0.00    +0.000 NA
ATOM     14  C   UNL     1       3.353   1.618  18.271  0.00  0.00    +0.000 A 
ATOM     15  C   UNL     1       4.021   2.823  18.334  0.00  0.00    +0.000 A 
ENDBRANCH   3  10
BRANCH   1  17
ATOM     16  O   UNL     1       7.627   4.437  17.891  0.00  0.00    +0.000 OA
ATOM     17  S   UNL     1       7.015   5.534  17.163  0.00  0.00    +0.000 S 
ATOM     18  O   UNL     1       7.654   6.825  16.989  0.00  0.00    +0.000 OA
BRANCH  17  19
ATOM     19  C   UNL     1       6.530   4.880  15.501  0.00  0.00    +0.000 A 
ATOM     20  C   UNL     1       7.408   5.006  14.408  0.00  0.00    +0.000 A 
ATOM     21  C   UNL     1       7.101   4.442  13.155  0.00  0.00    +0.000 A 
ATOM     22  C   UNL     1       5.878   3.799  12.971  0.00  0.00    +0.000 A 
ATOM     23  C   UNL     1       4.976   3.728  14.031  0.00  0.00    +0.000 A 
ATOM     24  C   UNL     1       5.295   4.259  15.294  0.00  0.00    +0.000 A 
ENDBRANCH  17  19
ENDBRANCH   1  17
TORSDOF 3
ENDMDL
MODEL 3
REMARK VINA RESULT:      -7.8      2.890      6.637
REMARK  Name = 
REMARK  3 active torsions:
REMARK  status: ('A' for Active; 'I' for Inactive)
REMARK    1  A    between atoms: S_2  and  C_4
REMARK    2  A    between atoms: S_2  and  N_10
REMARK    3  A    between atoms: C_12  and  C_13
REMARK                            x       y       z     vdW  Elec       q    Type
REMARK                         _______ _______ _______ _____ _____    ______ ____
ROOT
ATOM      1  N   UNL     1       4.451   5.153  18.415  0.00  0.00    +0.000 N 
ATOM      2  C   UNL     1       3.535   5.650  17.475  0.00  0.00    +0.000 A 
ATOM      3  C   UNL     1       2.499   5.922  18.335  0.00  0.00    +0.000 A 
ATOM      4  C   UNL     1       2.377   4.697  19.009  0.00  0.00    +0.000 A 
ATOM      5  C   UNL     1       1.260   4.070  19.562  0.00  0.00    +0.000 A 
ATOM      6  C   UNL     1       1.424   2.895  20.250  0.00  0.00    +0.000 A 
ATOM      7  C   UNL     1       2.724   2.434  20.486  0.00  0.00    +0.000 A 
ATOM      8  C   UNL     1       3.892   3.076  19.994  0.00  0.00    +0.000 A 
ATOM      9  C   UNL     1       3.710   4.215  19.171  0.00  0.00    +0.000 A 
ENDROOT
BRANCH   3  10
ATOM     10  C   UNL     1       2.144   7.231  18.801  0.00  0.00    +0.000 A 
ATOM     11  C   UNL     1       2.041   8.260  17.872  0.00  0.00    +0.000 A 
ATOM     12  C   UNL     1       1.609   9.484  18.315  0.00  0.00    +0.000 A 
ATOM     13  N   UNL     1       1.310   9.766  19.603  0.00  0.00    +0.000 NA
ATOM     14  C   UNL     1       1.465   8.763  20.497  0.00  0.00    +0.000 A 
ATOM     15  C   UNL     1       1.880   7.493  20.156  0.00  0.00    +0.000 A 
ENDBRANCH   3  10
BRANCH   1  17
ATOM     16  O   UNL     1       6.857   4.531  18.841  0.00  0.00    +0.000 OA
ATOM     17  S   UNL     1       6.090   5.444  18.013  0.00  0.00    +0.000 S 
ATOM     18  O   UNL     1       6.268   6.883  18.044  0.00  0.00    +0.000 OA
BRANCH  17  19
ATOM     19  C   UNL     1       6.253   4.860  16.265  0.00  0.00    +0.000 A 
ATOM     20  C   UNL     1       5.375   3.882  15.761  0.00  0.00    +0.000 A 
ATOM     21  C   UNL     1       5.422   3.483  14.412  0.00  0.00    +0.000 A 
ATOM     22  C   UNL     1       6.394   4.017  13.569  0.00  0.00    +0.000 A 
ATOM     23  C   UNL     1       7.309   4.938  14.078  0.00  0.00    +0.000 A 
ATOM     24  C   UNL     1       7.243   5.365  15.416  0.00  0.00    +0.000 A 
ENDBRANCH  17  19
ENDBRANCH   1  17
TORSDOF 3
ENDMDL
MODEL 4
REMARK VINA RESULT:      -7.7      2.778      6.111
REMARK  Name = 
REMARK  3 active torsions:
REMARK  status: ('A' for Active; 'I' for Inactive)
REMARK    1  A    between atoms: S_2  and  C_4
REMARK    2  A    between atoms: S_2  and  N_10
REMARK    3  A    between atoms: C_12  and  C_13
REMARK                            x       y       z     vdW  Elec       q    Type
REMARK                         _______ _______ _______ _____ _____    ______ ____
ROOT
ATOM      1  N   UNL     1       5.629   6.014  17.832  0.00  0.00    +0.000 N 
ATOM      2  C   UNL     1       5.694   5.447  19.115  0.00  0.00    +0.000 A 
ATOM      3  C   UNL     1       4.393   5.017  19.206  0.00  0.00    +0.000 A 
ATOM      4  C   UNL     1       3.695   6.190  18.877  0.00  0.00    +0.000 A 
ATOM      5  C   UNL     1       2.447   6.654  19.295  0.00  0.00    +0.000 A 
ATOM      6  C   UNL     1       1.948   7.811  18.755  0.00  0.00    +0.000 A 
ATOM      7  C   UNL     1       2.649   8.418  17.707  0.00  0.00    +0.000 A 
ATOM      8  C   UNL     1       3.893   7.943  17.210  0.00  0.00    +0.000 A 
ATOM      9  C   UNL     1       4.469   6.824  17.861  0.00  0.00    +0.000 A 
ENDROOT
BRANCH   3  10
ATOM     10  C   UNL     1       3.967   3.657  19.045  0.00  0.00    +0.000 A 
ATOM     11  C   UNL     1       3.050   3.364  18.043  0.00  0.00    +0.000 A 
ATOM     12  C   UNL     1       2.723   2.047  17.837  0.00  0.00    +0.000 A 
ATOM     13  N   UNL     1       3.207   1.019  18.569  0.00  0.00    +0.000 NA
ATOM     14  C   UNL     1       4.059   1.333  19.571  0.00  0.00    +0.000 A 
ATOM     15  C   UNL     1       4.465   2.621  19.854  0.00  0.00    +0.000 A 
ENDBRANCH   3  10
BRANCH   1  17
ATOM     16  O   UNL     1       7.953   5.043  17.722  0.00  0.00    +0.000 OA
ATOM     17  S   UNL     1       7.102   5.942  16.963  0.00  0.00    +0.000 S 
ATOM     18  O   UNL     1       7.465   7.313  16.661  0.00  0.00    +0.000 OA
BRANCH  17  19
ATOM     19  C   UNL     1       6.672   5.078  15.383  0.00  0.00    +0.000 A 
ATOM     20  C   UNL     1       5.481   4.331  15.288  0.00  0.00    +0.000 A 
ATOM     21  C   UNL     1       5.088   3.736  14.075  0.00  0.00    +0.000 A 
ATOM     22  C   UNL     1       5.918   3.832  12.959  0.00  0.00    +0.000 A 
ATOM     23  C   UNL     1       7.130   4.514  13.065  0.00  0.00    +0.000 A 
ATOM     24  C   UNL     1       7.509   5.140  14.266  0.00  0.00    +0.000 A 
ENDBRANCH  17  19
ENDBRANCH   1  17
TORSDOF 3
ENDMDL
MODEL 5
REMARK VINA RESULT:      -7.7      2.721      6.779
REMARK  Name = 
REMARK  3 active torsions:
REMARK  status: ('A' for Active; 'I' for Inactive)
REMARK    1  A    between atoms: S_2  and  C_4
REMARK    2  A    between atoms: S_2  and  N_10
REMARK    3  A    between atoms: C_12  and  C_13
REMARK                            x       y       z     vdW  Elec       q    Type
REMARK                         _______ _______ _______ _____ _____    ______ ____
ROOT
ATOM      1  N   UNL     1       4.500   4.931  17.801  0.00  0.00    +0.000 N 
ATOM      2  C   UNL     1       3.602   5.662  17.008  0.00  0.00    +0.000 A 
ATOM      3  C   UNL     1       2.560   5.726  17.901  0.00  0.00    +0.000 A 
ATOM      4  C   UNL     1       2.414   4.374  18.247  0.00  0.00    +0.000 A 
ATOM      5  C   UNL     1       1.282   3.646  18.617  0.00  0.00    +0.000 A 
ATOM      6  C   UNL     1       1.423   2.334  18.990  0.00  0.00    +0.000 A 
ATOM      7  C   UNL     1       2.713   1.807  19.113  0.00  0.00    +0.000 A 
ATOM      8  C   UNL     1       3.895   2.533  18.805  0.00  0.00    +0.000 A 
ATOM      9  C   UNL     1       3.738   3.845  18.292  0.00  0.00    +0.000 A 
ENDROOT
BRANCH   3  10
ATOM     10  C   UNL     1       2.218   6.883  18.678  0.00  0.00    +0.000 A 
ATOM     11  C   UNL     1       2.051   8.096  18.021  0.00  0.00    +0.000 A 
ATOM     12  C   UNL     1       1.631   9.173  18.759  0.00  0.00    +0.000 A 
ATOM     13  N   UNL     1       1.404   9.142  20.091  0.00  0.00    +0.000 NA
ATOM     14  C   UNL     1       1.621   7.963  20.718  0.00  0.00    +0.000 A 
ATOM     15  C   UNL     1       2.029   6.816  20.069  0.00  0.00    +0.000 A 
ENDBRANCH   3  10
BRANCH   1  17
ATOM     16  O   UNL     1       6.900   4.308  18.260  0.00  0.00    +0.000 OA
ATOM     17  S   UNL     1       6.147   5.286  17.496  0.00  0.00    +0.000 S 
ATOM     18  O   UNL     1       6.294   6.718  17.675  0.00  0.00    +0.000 OA
BRANCH  17  19
ATOM     19  C   UNL     1       6.390   4.881  15.706  0.00  0.00    +0.000 A 
ATOM     20  C   UNL     1       7.429   5.492  14.978  0.00  0.00    +0.000 A 
ATOM     21  C   UNL     1       7.689   5.138  13.641  0.00  0.00    +0.000 A 
ATOM     22  C   UNL     1       6.868   4.212  13.000  0.00  0.00    +0.000 A 
ATOM     23  C   UNL     1       5.797   3.652  13.696  0.00  0.00    +0.000 A 
ATOM     24  C   UNL     1       5.556   3.977  15.043  0.00  0.00    +0.000 A 
ENDBRANCH  17  19
ENDBRANCH   1  17
TORSDOF 3
ENDMDL
MODEL 6
REMARK VINA RESULT:      -7.6      1.051      1.222
REMARK  Name = 
REMARK  3 active torsions:
REMARK  status: ('A' for Active; 'I' for Inactive)
REMARK    1  A    between atoms: S_2  and  C_4
REMARK    2  A    between atoms: S_2  and  N_10
REMARK    3  A    between atoms: C_12  and  C_13
REMARK                            x       y       z     vdW  Elec       q    Type
REMARK                         _______ _______ _______ _____ _____    ______ ____
ROOT
ATOM      1  N   UNL     1       5.328   4.426  17.792  0.00  0.00    +0.000 N 
ATOM      2  C   UNL     1       4.611   5.113  16.800  0.00  0.00    +0.000 A 
ATOM      3  C   UNL     1       5.677   5.525  16.038  0.00  0.00    +0.000 A 
ATOM      4  C   UNL     1       6.489   6.129  17.009  0.00  0.00    +0.000 A 
ATOM      5  C   UNL     1       7.380   7.199  16.914  0.00  0.00    +0.000 A 
ATOM      6  C   UNL     1       8.126   7.549  18.011  0.00  0.00    +0.000 A 
ATOM      7  C   UNL     1       8.063   6.737  19.149  0.00  0.00    +0.000 A 
ATOM      8  C   UNL     1       7.215   5.603  19.266  0.00  0.00    +0.000 A 
ATOM      9  C   UNL     1       6.349   5.325  18.179  0.00  0.00    +0.000 A 
ENDROOT
BRANCH   3  10
ATOM     10  C   UNL     1       6.073   4.928  14.795  0.00  0.00    +0.000 A 
ATOM     11  C   UNL     1       5.209   4.024  14.189  0.00  0.00    +0.000 A 
ATOM     12  C   UNL     1       5.556   3.533  12.956  0.00  0.00    +0.000 A 
ATOM     13  N   UNL     1       6.701   3.842  12.307  0.00  0.00    +0.000 NA
ATOM     14  C   UNL     1       7.549   4.684  12.938  0.00  0.00    +0.000 A 
ATOM     15  C   UNL     1       7.292   5.246  14.171  0.00  0.00    +0.000 A 
ENDBRANCH   3  10
BRANCH   1  17
ATOM     16  O   UNL     1       5.344   2.593  19.522  0.00  0.00    +0.000 OA
ATOM     17  S   UNL     1       4.481   3.101  18.471  0.00  0.00    +0.000 S 
ATOM     18  O   UNL     1       4.028   2.293  17.355  0.00  0.00    +0.000 OA
BRANCH  17  19
ATOM     19  C   UNL     1       3.008   3.860  19.296  0.00  0.00    +0.000 A 
ATOM     20  C   UNL     1       1.793   3.152  19.362  0.00  0.00    +0.000 A 
ATOM     21  C   UNL     1       0.683   3.669  20.057  0.00  0.00    +0.000 A 
ATOM     22  C   UNL     1       0.764   4.932  20.641  0.00  0.00    +0.000 A 
ATOM     23  C   UNL     1       1.943   5.666  20.522  0.00  0.00    +0.000 A 
ATOM     24  C   UNL     1       3.065   5.138  19.859  0.00  0.00    +0.000 A 
ENDBRANCH  17  19
ENDBRANCH   1  17
TORSDOF 3
ENDMDL
MODEL 7
REMARK VINA RESULT:      -7.5      2.670      6.310
REMARK  Name = 
REMARK  3 active torsions:
REMARK  status: ('A' for Active; 'I' for Inactive)
REMARK    1  A    between atoms: S_2  and  C_4
REMARK    2  A    between atoms: S_2  and  N_10
REMARK    3  A    between atoms: C_12  and  C_13
REMARK                            x       y       z     vdW  Elec       q    Type
REMARK                         _______ _______ _______ _____ _____    ______ ____
ROOT
ATOM      1  N   UNL     1       3.842   4.412  17.989  0.00  0.00    +0.000 N 
ATOM      2  C   UNL     1       2.576   4.795  17.520  0.00  0.00    +0.000 A 
ATOM      3  C   UNL     1       2.083   5.317  18.690  0.00  0.00    +0.000 A 
ATOM      4  C   UNL     1       2.325   4.261  19.582  0.00  0.00    +0.000 A 
ATOM      5  C   UNL     1       1.628   3.852  20.720  0.00  0.00    +0.000 A 
ATOM      6  C   UNL     1       2.127   2.822  21.476  0.00  0.00    +0.000 A 
ATOM      7  C   UNL     1       3.387   2.304  21.154  0.00  0.00    +0.000 A 
ATOM      8  C   UNL     1       4.157   2.735  20.041  0.00  0.00    +0.000 A 
ATOM      9  C   UNL     1       3.578   3.705  19.186  0.00  0.00    +0.000 A 
ENDROOT
BRANCH   3  10
ATOM     10  C   UNL     1       1.975   6.718  18.981  0.00  0.00    +0.000 A 
ATOM     11  C   UNL     1       2.152   7.625  17.944  0.00  0.00    +0.000 A 
ATOM     12  C   UNL     1       1.952   8.955  18.214  0.00  0.00    +0.000 A 
ATOM     13  N   UNL     1       1.630   9.446  19.432  0.00  0.00    +0.000 NA
ATOM     14  C   UNL     1       1.513   8.549  20.437  0.00  0.00    +0.000 A 
ATOM     15  C   UNL     1       1.678   7.189  20.271  0.00  0.00    +0.000 A 
ENDBRANCH   3  10
BRANCH   1  17
ATOM     16  O   UNL     1       4.497   5.205  15.687  0.00  0.00    +0.000 OA
ATOM     17  S   UNL     1       5.074   4.476  16.802  0.00  0.00    +0.000 S 
ATOM     18  O   UNL     1       5.596   3.127  16.683  0.00  0.00    +0.000 OA
BRANCH  17  19
ATOM     19  C   UNL     1       6.381   5.558  17.541  0.00  0.00    +0.000 A 
ATOM     20  C   UNL     1       6.679   6.805  16.958  0.00  0.00    +0.000 A 
ATOM     21  C   UNL     1       7.606   7.684  17.548  0.00  0.00    +0.000 A 
ATOM     22  C   UNL     1       8.291   7.294  18.697  0.00  0.00    +0.000 A 
ATOM     23  C   UNL     1       8.049   6.033  19.242  0.00  0.00    +0.000 A 
ATOM     24  C   UNL     1       7.098   5.166  18.675  0.00  0.00    +0.000 A 
ENDBRANCH  17  19
ENDBRANCH   1  17
TORSDOF 3
ENDMDL
MODEL 8
REMARK VINA RESULT:      -7.4      2.873      6.642
REMARK  Name = 
REMARK  3 active torsions:
REMARK  status: ('A' for Active; 'I' for Inactive)
REMARK    1  A    between atoms: S_2  and  C_4
REMARK    2  A    between atoms: S_2  and  N_10
REMARK    3  A    between atoms: C_12  and  C_13
REMARK                            x       y       z     vdW  Elec       q    Type
REMARK                         _______ _______ _______ _____ _____    ______ ____
ROOT
ATOM      1  N   UNL     1       4.340   5.088  18.533  0.00  0.00    +0.000 N 
ATOM      2  C   UNL     1       3.442   5.529  17.549  0.00  0.00    +0.000 A 
ATOM      3  C   UNL     1       2.393   5.856  18.373  0.00  0.00    +0.000 A 
ATOM      4  C   UNL     1       2.254   4.676  19.119  0.00  0.00    +0.000 A 
ATOM      5  C   UNL     1       1.125   4.087  19.691  0.00  0.00    +0.000 A 
ATOM      6  C   UNL     1       1.274   2.956  20.453  0.00  0.00    +0.000 A 
ATOM      7  C   UNL     1       2.568   2.507  20.739  0.00  0.00    +0.000 A 
ATOM      8  C   UNL     1       3.746   3.113  20.228  0.00  0.00    +0.000 A 
ATOM      9  C   UNL     1       3.582   4.200  19.333  0.00  0.00    +0.000 A 
ENDROOT
BRANCH   3  10
ATOM     10  C   UNL     1       2.035   7.193  18.751  0.00  0.00    +0.000 A 
ATOM     11  C   UNL     1       1.778   7.455  20.091  0.00  0.00    +0.000 A 
ATOM     12  C   UNL     1       1.531   8.755  20.455  0.00  0.00    +0.000 A 
ATOM     13  N   UNL     1       1.485   9.792  19.590  0.00  0.00    +0.000 NA
ATOM     14  C   UNL     1       1.688   9.505  18.284  0.00  0.00    +0.000 A 
ATOM     15  C   UNL     1       1.959   8.237  17.814  0.00  0.00    +0.000 A 
ENDBRANCH   3  10
BRANCH   1  17
ATOM     16  O   UNL     1       6.727   4.381  18.931  0.00  0.00    +0.000 OA
ATOM     17  S   UNL     1       5.986   5.348  18.141  0.00  0.00    +0.000 S 
ATOM     18  O   UNL     1       6.205   6.779  18.230  0.00  0.00    +0.000 OA
BRANCH  17  19
ATOM     19  C   UNL     1       6.133   4.831  16.370  0.00  0.00    +0.000 A 
ATOM     20  C   UNL     1       7.017   5.507  15.508  0.00  0.00    +0.000 A 
ATOM     21  C   UNL     1       7.212   5.080  14.180  0.00  0.00    +0.000 A 
ATOM     22  C   UNL     1       6.473   4.007  13.687  0.00  0.00    +0.000 A 
ATOM     23  C   UNL     1       5.548   3.374  14.516  0.00  0.00    +0.000 A 
ATOM     24  C   UNL     1       5.376   3.775  15.853  0.00  0.00    +0.000 A 
ENDBRANCH  17  19
ENDBRANCH   1  17
TORSDOF 3
ENDMDL
MODEL 9
REMARK VINA RESULT:      -7.4      1.983      4.215
REMARK  Name = 
REMARK  3 active torsions:
REMARK  status: ('A' for Active; 'I' for Inactive)
REMARK    1  A    between atoms: S_2  and  C_4
REMARK    2  A    between atoms: S_2  and  N_10
REMARK    3  A    between atoms: C_12  and  C_13
REMARK                            x       y       z     vdW  Elec       q    Type
REMARK                         _______ _______ _______ _____ _____    ______ ____
ROOT
ATOM      1  N   UNL     1       4.310   3.472  17.469  0.00  0.00    +0.000 N 
ATOM      2  C   UNL     1       4.717   4.143  18.633  0.00  0.00    +0.000 A 
ATOM      3  C   UNL     1       4.763   5.416  18.119  0.00  0.00    +0.000 A 
ATOM      4  C   UNL     1       5.559   5.221  16.980  0.00  0.00    +0.000 A 
ATOM      5  C   UNL     1       6.454   6.079  16.337  0.00  0.00    +0.000 A 
ATOM      6  C   UNL     1       7.056   5.668  15.175  0.00  0.00    +0.000 A 
ATOM      7  C   UNL     1       6.654   4.456  14.605  0.00  0.00    +0.000 A 
ATOM      8  C   UNL     1       5.702   3.582  15.195  0.00  0.00    +0.000 A 
ATOM      9  C   UNL     1       5.182   3.947  16.462  0.00  0.00    +0.000 A 
ENDROOT
BRANCH   3  10
ATOM     10  C   UNL     1       3.770   6.427  18.346  0.00  0.00    +0.000 A 
ATOM     11  C   UNL     1       2.996   6.348  19.497  0.00  0.00    +0.000 A 
ATOM     12  C   UNL     1       2.117   7.370  19.750  0.00  0.00    +0.000 A 
ATOM     13  N   UNL     1       1.927   8.432  18.935  0.00  0.00    +0.000 NA
ATOM     14  C   UNL     1       2.655   8.461  17.796  0.00  0.00    +0.000 A 
ATOM     15  C   UNL     1       3.577   7.494  17.452  0.00  0.00    +0.000 A 
ENDBRANCH   3  10
BRANCH   1  17
ATOM     16  O   UNL     1       4.301   1.013  18.028  0.00  0.00    +0.000 OA
ATOM     17  S   UNL     1       3.354   2.082  17.765  0.00  0.00    +0.000 S 
ATOM     18  O   UNL     1       2.372   2.028  16.699  0.00  0.00    +0.000 OA
BRANCH  17  19
ATOM     19  C   UNL     1       2.485   2.442  19.359  0.00  0.00    +0.000 A 
ATOM     20  C   UNL     1       3.122   2.178  20.587  0.00  0.00    +0.000 A 
ATOM     21  C   UNL     1       2.519   2.521  21.811  0.00  0.00    +0.000 A 
ATOM     22  C   UNL     1       1.241   3.077  21.818  0.00  0.00    +0.000 A 
ATOM     23  C   UNL     1       0.577   3.280  20.608  0.00  0.00    +0.000 A 
ATOM     24  C   UNL     1       1.191   2.971  19.381  0.00  0.00    +0.000 A 
ENDBRANCH  17  19
ENDBRANCH   1  17
TORSDOF 3
ENDMDL
