MODEL 1
REMARK VINA RESULT:      -8.3      0.000      0.000
REMARK  Name = 
REMARK  13 active torsions:
REMARK  status: ('A' for Active; 'I' for Inactive)
REMARK    1  A    between atoms: C_1  and  O_2
REMARK    2  A    between atoms: O_2  and  C_3
REMARK    3  A    between atoms: C_5  and  C_6
REMARK    4  A    between atoms: C_7  and  C_8
REMARK    5  A    between atoms: N_10  and  C_11
REMARK    6  A    between atoms: C_11  and  C_12
REMARK    7  A    between atoms: C_12  and  C_13
REMARK    8  A    between atoms: C_13  and  C_14
REMARK    9  A    between atoms: C_14  and  N_15
REMARK   10  A    between atoms: N_15  and  C_16
REMARK   11  A    between atoms: C_20  and  C_21
REMARK   12  A    between atoms: C_23  and  C_24
REMARK   13  A    between atoms: C_30  and  O_31
REMARK                            x       y       z     vdW  Elec       q    Type
REMARK                         _______ _______ _______ _____ _____    ______ ____
ROOT
ATOM      1  C   UNL     1       6.269   6.904  17.223  0.00  0.00    +0.000 C 
ENDROOT
BRANCH   1   4
ATOM      2  C   UNL     1       8.129   8.337  17.968  0.00  0.00    +0.000 C 
ATOM      3  O   UNL     1       8.490   7.564  18.847  0.00  0.00    +0.000 OA
ATOM      4  N   UNL     1       7.061   8.113  17.131  0.00  0.00    +0.000 N 
ATOM      5  H   UNL     1       6.788   8.806  16.449  0.00  0.00    +0.000 HD
BRANCH   2   7
ATOM      6  C   UNL     1       8.929  10.565  18.651  0.00  0.00    +0.000 C 
ATOM      7  C   UNL     1       8.824   9.623  17.696  0.00  0.00    +0.000 C 
BRANCH   6  10
ATOM      8  C   UNL     1       9.794  14.256  19.015  0.00  0.00    +0.000 A 
ATOM      9  C   UNL     1       9.188  12.995  19.195  0.00  0.00    +0.000 A 
ATOM     10  C   UNL     1       9.592  11.870  18.456  0.00  0.00    +0.000 A 
ATOM     11  C   UNL     1      10.599  12.036  17.500  0.00  0.00    +0.000 A 
ATOM     12  C   UNL     1      11.206  13.276  17.305  0.00  0.00    +0.000 A 
ATOM     13  C   UNL     1      10.808  14.380  18.055  0.00  0.00    +0.000 A 
BRANCH   8  15
ATOM     14  C   UNL     1       9.898  15.415  21.105  0.00  0.00    +0.000 C 
ATOM     15  O   UNL     1       9.291  15.238  19.830  0.00  0.00    +0.000 OA
ENDBRANCH   8  15
BRANCH  13  16
ATOM     16  O   UNL     1      11.437  15.574  17.820  0.00  0.00    +0.000 OA
ATOM     17  H   UNL     1      12.393  15.448  17.880  0.00  0.00    +0.000 HD
ENDBRANCH  13  16
ENDBRANCH   6  10
ENDBRANCH   2   7
ENDBRANCH   1   4
BRANCH   1  18
ATOM     18  C   UNL     1       6.504   5.977  16.037  0.00  0.00    +0.000 C 
BRANCH  18  19
ATOM     19  C   UNL     1       6.847   4.568  16.508  0.00  0.00    +0.000 C 
BRANCH  19  20
ATOM     20  C   UNL     1       5.595   3.727  16.751  0.00  0.00    +0.000 C 
BRANCH  20  21
ATOM     21  N   UNL     1       5.333   3.525  18.180  0.00  0.00    +0.000 NA
ATOM     22  H   UNL     1       5.973   4.102  18.725  0.00  0.00    +0.000 HD
BRANCH  21  23
ATOM     23  C   UNL     1       3.945   3.802  18.594  0.00  0.00    +0.000 C 
ATOM     24  C   UNL     1       2.946   3.535  17.443  0.00  0.00    +0.000 C 
ATOM     25  C   UNL     1       1.515   3.866  17.880  0.00  0.00    +0.000 C 
ATOM     26  C   UNL     1       1.143   3.003  19.096  0.00  0.00    +0.000 C 
ATOM     27  C   UNL     1       2.095   3.295  20.278  0.00  0.00    +0.000 C 
ATOM     28  C   UNL     1       1.728   2.432  21.489  0.00  0.00    +0.000 C 
ATOM     29  C   UNL     1       2.014   4.793  20.634  0.00  0.00    +0.000 C 
ATOM     30  C   UNL     1       2.398   5.666  19.417  0.00  0.00    +0.000 C 
ATOM     31  C   UNL     1       2.306   7.149  19.788  0.00  0.00    +0.000 C 
ATOM     32  C   UNL     1       1.428   5.349  18.256  0.00  0.00    +0.000 C 
ATOM     33  C   UNL     1       3.840   5.306  18.974  0.00  0.00    +0.000 C 
ATOM     34  C   UNL     1       3.539   2.972  19.837  0.00  0.00    +0.000 C 
ENDBRANCH  21  23
ENDBRANCH  20  21
ENDBRANCH  19  20
ENDBRANCH  18  19
ENDBRANCH   1  18
TORSDOF 10
ENDMDL
MODEL 2
REMARK VINA RESULT:      -8.1      1.274      2.715
REMARK  Name = 
REMARK  13 active torsions:
REMARK  status: ('A' for Active; 'I' for Inactive)
REMARK    1  A    between atoms: C_1  and  O_2
REMARK    2  A    between atoms: O_2  and  C_3
REMARK    3  A    between atoms: C_5  and  C_6
REMARK    4  A    between atoms: C_7  and  C_8
REMARK    5  A    between atoms: N_10  and  C_11
REMARK    6  A    between atoms: C_11  and  C_12
REMARK    7  A    between atoms: C_12  and  C_13
REMARK    8  A    between atoms: C_13  and  C_14
REMARK    9  A    between atoms: C_14  and  N_15
REMARK   10  A    between atoms: N_15  and  C_16
REMARK   11  A    between atoms: C_20  and  C_21
REMARK   12  A    between atoms: C_23  and  C_24
REMARK   13  A    between atoms: C_30  and  O_31
REMARK                            x       y       z     vdW  Elec       q    Type
REMARK                         _______ _______ _______ _____ _____    ______ ____
ROOT
ATOM      1  C   UNL     1       6.353   6.432  16.724  0.00  0.00    +0.000 C 
ENDROOT
BRANCH   1   4
ATOM      2  C   UNL     1       7.846   7.901  18.020  0.00  0.00    +0.000 C 
ATOM      3  O   UNL     1       8.226   7.006  18.765  0.00  0.00    +0.000 OA
ATOM      4  N   UNL     1       6.936   7.729  17.004  0.00  0.00    +0.000 N 
ATOM      5  H   UNL     1       6.631   8.515  16.447  0.00  0.00    +0.000 HD
BRANCH   2   7
ATOM      6  C   UNL     1       9.252   9.638  19.060  0.00  0.00    +0.000 C 
ATOM      7  C   UNL     1       8.342   9.299  18.129  0.00  0.00    +0.000 C 
BRANCH   6  10
ATOM      8  C   UNL     1      10.683  13.079  18.273  0.00  0.00    +0.000 A 
ATOM      9  C   UNL     1      10.156  11.778  18.127  0.00  0.00    +0.000 A 
ATOM     10  C   UNL     1       9.783  11.004  19.239  0.00  0.00    +0.000 A 
ATOM     11  C   UNL     1       9.977  11.544  20.514  0.00  0.00    +0.000 A 
ATOM     12  C   UNL     1      10.500  12.826  20.678  0.00  0.00    +0.000 A 
ATOM     13  C   UNL     1      10.852  13.590  19.567  0.00  0.00    +0.000 A 
BRANCH   8  15
ATOM     14  C   UNL     1      12.333  13.699  16.657  0.00  0.00    +0.000 C 
ATOM     15  O   UNL     1      10.976  13.699  17.085  0.00  0.00    +0.000 OA
ENDBRANCH   8  15
BRANCH  13  16
ATOM     16  O   UNL     1      11.364  14.842  19.787  0.00  0.00    +0.000 OA
ATOM     17  H   UNL     1      11.539  15.268  18.937  0.00  0.00    +0.000 HD
ENDBRANCH  13  16
ENDBRANCH   6  10
ENDBRANCH   2   7
ENDBRANCH   1   4
BRANCH   1  18
ATOM     18  C   UNL     1       6.827   5.872  15.389  0.00  0.00    +0.000 C 
BRANCH  18  19
ATOM     19  C   UNL     1       6.101   4.573  15.056  0.00  0.00    +0.000 C 
BRANCH  19  20
ATOM     20  C   UNL     1       6.121   3.591  16.226  0.00  0.00    +0.000 C 
BRANCH  20  21
ATOM     21  N   UNL     1       4.825   2.931  16.415  0.00  0.00    +0.000 NA
ATOM     22  H   UNL     1       4.973   1.933  16.559  0.00  0.00    +0.000 HD
BRANCH  21  23
ATOM     23  C   UNL     1       4.016   3.474  17.521  0.00  0.00    +0.000 C 
ATOM     24  C   UNL     1       4.775   3.406  18.867  0.00  0.00    +0.000 C 
ATOM     25  C   UNL     1       3.903   3.938  20.009  0.00  0.00    +0.000 C 
ATOM     26  C   UNL     1       3.511   5.394  19.713  0.00  0.00    +0.000 C 
ATOM     27  C   UNL     1       2.702   5.479  18.399  0.00  0.00    +0.000 C 
ATOM     28  C   UNL     1       2.314   6.931  18.100  0.00  0.00    +0.000 C 
ATOM     29  C   UNL     1       1.443   4.595  18.522  0.00  0.00    +0.000 C 
ATOM     30  C   UNL     1       1.832   3.127  18.810  0.00  0.00    +0.000 C 
ATOM     31  C   UNL     1       0.571   2.268  18.934  0.00  0.00    +0.000 C 
ATOM     32  C   UNL     1       2.639   3.079  20.127  0.00  0.00    +0.000 C 
ATOM     33  C   UNL     1       2.731   2.609  17.657  0.00  0.00    +0.000 C 
ATOM     34  C   UNL     1       3.575   4.934  17.248  0.00  0.00    +0.000 C 
ENDBRANCH  21  23
ENDBRANCH  20  21
ENDBRANCH  19  20
ENDBRANCH  18  19
ENDBRANCH   1  18
TORSDOF 10
ENDMDL
MODEL 3
REMARK VINA RESULT:      -8.1      5.625      9.179
REMARK  Name = 
REMARK  13 active torsions:
REMARK  status: ('A' for Active; 'I' for Inactive)
REMARK    1  A    between atoms: C_1  and  O_2
REMARK    2  A    between atoms: O_2  and  C_3
REMARK    3  A    between atoms: C_5  and  C_6
REMARK    4  A    between atoms: C_7  and  C_8
REMARK    5  A    between atoms: N_10  and  C_11
REMARK    6  A    between atoms: C_11  and  C_12
REMARK    7  A    between atoms: C_12  and  C_13
REMARK    8  A    between atoms: C_13  and  C_14
REMARK    9  A    between atoms: C_14  and  N_15
REMARK   10  A    between atoms: N_15  and  C_16
REMARK   11  A    between atoms: C_20  and  C_21
REMARK   12  A    between atoms: C_23  and  C_24
REMARK   13  A    between atoms: C_30  and  O_31
REMARK                            x       y       z     vdW  Elec       q    Type
REMARK                         _______ _______ _______ _____ _____    ______ ____
ROOT
ATOM      1  C   UNL     1       2.336   7.364  19.635  0.00  0.00    +0.000 C 
ENDROOT
BRANCH   1   4
ATOM      2  C   UNL     1       1.369   9.152  18.243  0.00  0.00    +0.000 C 
ATOM      3  O   UNL     1       2.348   9.233  17.511  0.00  0.00    +0.000 OA
ATOM      4  N   UNL     1       1.266   8.283  19.304  0.00  0.00    +0.000 N 
ATOM      5  H   UNL     1       0.448   8.289  19.896  0.00  0.00    +0.000 HD
BRANCH   2   7
ATOM      6  C   UNL     1      -0.976   9.469  17.558  0.00  0.00    +0.000 C 
ATOM      7  C   UNL     1       0.158   9.993  18.058  0.00  0.00    +0.000 C 
BRANCH   6  10
ATOM      8  C   UNL     1      -4.012  11.678  18.201  0.00  0.00    +0.000 A 
ATOM      9  C   UNL     1      -2.818  10.949  18.386  0.00  0.00    +0.000 A 
ATOM     10  C   UNL     1      -2.216  10.240  17.334  0.00  0.00    +0.000 A 
ATOM     11  C   UNL     1      -2.850  10.244  16.087  0.00  0.00    +0.000 A 
ATOM     12  C   UNL     1      -4.032  10.956  15.886  0.00  0.00    +0.000 A 
ATOM     13  C   UNL     1      -4.612  11.668  16.934  0.00  0.00    +0.000 A 
BRANCH   8  15
ATOM     14  C   UNL     1      -3.471  12.783  20.252  0.00  0.00    +0.000 C 
ATOM     15  O   UNL     1      -4.451  12.325  19.328  0.00  0.00    +0.000 OA
ENDBRANCH   8  15
BRANCH  13  16
ATOM     16  O   UNL     1      -5.774  12.347  16.681  0.00  0.00    +0.000 OA
ATOM     17  H   UNL     1      -5.959  12.947  17.416  0.00  0.00    +0.000 HD
ENDBRANCH  13  16
ENDBRANCH   6  10
ENDBRANCH   2   7
ENDBRANCH   1   4
BRANCH   1  18
ATOM     18  C   UNL     1       1.921   6.372  20.714  0.00  0.00    +0.000 C 
BRANCH  18  19
ATOM     19  C   UNL     1       2.380   4.961  20.361  0.00  0.00    +0.000 C 
BRANCH  19  20
ATOM     20  C   UNL     1       2.208   4.660  18.873  0.00  0.00    +0.000 C 
BRANCH  20  21
ATOM     21  N   UNL     1       3.300   3.836  18.346  0.00  0.00    +0.000 NA
ATOM     22  H   UNL     1       2.922   3.150  17.695  0.00  0.00    +0.000 HD
BRANCH  21  23
ATOM     23  C   UNL     1       4.379   4.597  17.689  0.00  0.00    +0.000 C 
ATOM     24  C   UNL     1       3.907   6.011  17.277  0.00  0.00    +0.000 C 
ATOM     25  C   UNL     1       5.029   6.771  16.561  0.00  0.00    +0.000 C 
ATOM     26  C   UNL     1       6.243   6.886  17.498  0.00  0.00    +0.000 C 
ATOM     27  C   UNL     1       6.766   5.482  17.878  0.00  0.00    +0.000 C 
ATOM     28  C   UNL     1       7.973   5.595  18.816  0.00  0.00    +0.000 C 
ATOM     29  C   UNL     1       7.147   4.719  16.593  0.00  0.00    +0.000 C 
ATOM     30  C   UNL     1       5.927   4.591  15.652  0.00  0.00    +0.000 C 
ATOM     31  C   UNL     1       6.326   3.837  14.380  0.00  0.00    +0.000 C 
ATOM     32  C   UNL     1       5.430   6.010  15.293  0.00  0.00    +0.000 C 
ATOM     33  C   UNL     1       4.793   3.839  16.396  0.00  0.00    +0.000 C 
ATOM     34  C   UNL     1       5.634   4.711  18.591  0.00  0.00    +0.000 C 
ENDBRANCH  21  23
ENDBRANCH  20  21
ENDBRANCH  19  20
ENDBRANCH  18  19
ENDBRANCH   1  18
TORSDOF 10
ENDMDL
MODEL 4
REMARK VINA RESULT:      -8.1      1.202      1.381
REMARK  Name = 
REMARK  13 active torsions:
REMARK  status: ('A' for Active; 'I' for Inactive)
REMARK    1  A    between atoms: C_1  and  O_2
REMARK    2  A    between atoms: O_2  and  C_3
REMARK    3  A    between atoms: C_5  and  C_6
REMARK    4  A    between atoms: C_7  and  C_8
REMARK    5  A    between atoms: N_10  and  C_11
REMARK    6  A    between atoms: C_11  and  C_12
REMARK    7  A    between atoms: C_12  and  C_13
REMARK    8  A    between atoms: C_13  and  C_14
REMARK    9  A    between atoms: C_14  and  N_15
REMARK   10  A    between atoms: N_15  and  C_16
REMARK   11  A    between atoms: C_20  and  C_21
REMARK   12  A    between atoms: C_23  and  C_24
REMARK   13  A    between atoms: C_30  and  O_31
REMARK                            x       y       z     vdW  Elec       q    Type
REMARK                         _______ _______ _______ _____ _____    ______ ____
ROOT
ATOM      1  C   UNL     1       6.974   7.635  17.615  0.00  0.00    +0.000 C 
ENDROOT
BRANCH   1   4
ATOM      2  C   UNL     1       8.525   9.456  18.203  0.00  0.00    +0.000 C 
ATOM      3  O   UNL     1       8.822   8.973  19.288  0.00  0.00    +0.000 OA
ATOM      4  N   UNL     1       7.634   8.890  17.321  0.00  0.00    +0.000 N 
ATOM      5  H   UNL     1       7.400   9.356  16.456  0.00  0.00    +0.000 HD
BRANCH   2   7
ATOM      6  C   UNL     1       9.369  11.745  18.548  0.00  0.00    +0.000 C 
ATOM      7  C   UNL     1       9.110  10.729  17.705  0.00  0.00    +0.000 C 
BRANCH   6  10
ATOM      8  C   UNL     1       9.877  15.501  18.166  0.00  0.00    +0.000 A 
ATOM      9  C   UNL     1       9.363  14.249  18.565  0.00  0.00    +0.000 A 
ATOM     10  C   UNL     1       9.937  13.043  18.129  0.00  0.00    +0.000 A 
ATOM     11  C   UNL     1      11.024  13.108  17.252  0.00  0.00    +0.000 A 
ATOM     12  C   UNL     1      11.543  14.336  16.843  0.00  0.00    +0.000 A 
ATOM     13  C   UNL     1      10.975  15.526  17.294  0.00  0.00    +0.000 A 
BRANCH   8  15
ATOM     14  C   UNL     1       7.810  16.667  18.459  0.00  0.00    +0.000 C 
ATOM     15  O   UNL     1       9.209  16.574  18.699  0.00  0.00    +0.000 OA
ENDBRANCH   8  15
BRANCH  13  16
ATOM     16  O   UNL     1      11.523  16.703  16.859  0.00  0.00    +0.000 OA
ATOM     17  H   UNL     1      11.658  17.291  17.615  0.00  0.00    +0.000 HD
ENDBRANCH  13  16
ENDBRANCH   6  10
ENDBRANCH   2   7
ENDBRANCH   1   4
BRANCH   1  18
ATOM     18  C   UNL     1       7.916   6.638  18.279  0.00  0.00    +0.000 C 
BRANCH  18  19
ATOM     19  C   UNL     1       7.399   5.212  18.120  0.00  0.00    +0.000 C 
BRANCH  19  20
ATOM     20  C   UNL     1       6.461   4.815  19.258  0.00  0.00    +0.000 C 
BRANCH  20  21
ATOM     21  N   UNL     1       5.602   3.682  18.896  0.00  0.00    +0.000 NA
ATOM     22  H   UNL     1       5.824   2.886  19.492  0.00  0.00    +0.000 HD
BRANCH  21  23
ATOM     23  C   UNL     1       4.156   3.962  18.965  0.00  0.00    +0.000 C 
ATOM     24  C   UNL     1       3.450   3.630  17.630  0.00  0.00    +0.000 C 
ATOM     25  C   UNL     1       1.956   3.965  17.708  0.00  0.00    +0.000 C 
ATOM     26  C   UNL     1       1.313   3.156  18.846  0.00  0.00    +0.000 C 
ATOM     27  C   UNL     1       1.967   3.514  20.200  0.00  0.00    +0.000 C 
ATOM     28  C   UNL     1       1.331   2.705  21.334  0.00  0.00    +0.000 C 
ATOM     29  C   UNL     1       1.807   5.027  20.455  0.00  0.00    +0.000 C 
ATOM     30  C   UNL     1       2.461   5.846  19.318  0.00  0.00    +0.000 C 
ATOM     31  C   UNL     1       2.286   7.343  19.586  0.00  0.00    +0.000 C 
ATOM     32  C   UNL     1       1.785   5.464  17.982  0.00  0.00    +0.000 C 
ATOM     33  C   UNL     1       3.966   5.481  19.237  0.00  0.00    +0.000 C 
ATOM     34  C   UNL     1       3.474   3.187  20.119  0.00  0.00    +0.000 C 
ENDBRANCH  21  23
ENDBRANCH  20  21
ENDBRANCH  19  20
ENDBRANCH  18  19
ENDBRANCH   1  18
TORSDOF 10
ENDMDL
MODEL 5
REMARK VINA RESULT:      -8.1      1.793      2.165
REMARK  Name = 
REMARK  13 active torsions:
REMARK  status: ('A' for Active; 'I' for Inactive)
REMARK    1  A    between atoms: C_1  and  O_2
REMARK    2  A    between atoms: O_2  and  C_3
REMARK    3  A    between atoms: C_5  and  C_6
REMARK    4  A    between atoms: C_7  and  C_8
REMARK    5  A    between atoms: N_10  and  C_11
REMARK    6  A    between atoms: C_11  and  C_12
REMARK    7  A    between atoms: C_12  and  C_13
REMARK    8  A    between atoms: C_13  and  C_14
REMARK    9  A    between atoms: C_14  and  N_15
REMARK   10  A    between atoms: N_15  and  C_16
REMARK   11  A    between atoms: C_20  and  C_21
REMARK   12  A    between atoms: C_23  and  C_24
REMARK   13  A    between atoms: C_30  and  O_31
REMARK                            x       y       z     vdW  Elec       q    Type
REMARK                         _______ _______ _______ _____ _____    ______ ____
ROOT
ATOM      1  C   UNL     1       8.188   7.828  18.139  0.00  0.00    +0.000 C 
ENDROOT
BRANCH   1   4
ATOM      2  C   UNL     1       8.858  10.140  18.664  0.00  0.00    +0.000 C 
ATOM      3  O   UNL     1       9.686   9.804  19.501  0.00  0.00    +0.000 OA
ATOM      4  N   UNL     1       8.075   9.260  17.952  0.00  0.00    +0.000 N 
ATOM      5  H   UNL     1       7.381   9.600  17.302  0.00  0.00    +0.000 HD
BRANCH   2   7
ATOM      6  C   UNL     1       9.144  12.558  19.036  0.00  0.00    +0.000 C 
ATOM      7  C   UNL     1       8.607  11.561  18.311  0.00  0.00    +0.000 C 
BRANCH   6  10
ATOM      8  C   UNL     1       7.410  15.905  18.488  0.00  0.00    +0.000 A 
ATOM      9  C   UNL     1       7.639  14.541  18.769  0.00  0.00    +0.000 A 
ATOM     10  C   UNL     1       8.933  13.993  18.757  0.00  0.00    +0.000 A 
ATOM     11  C   UNL     1      10.002  14.832  18.425  0.00  0.00    +0.000 A 
ATOM     12  C   UNL     1       9.793  16.181  18.141  0.00  0.00    +0.000 A 
ATOM     13  C   UNL     1       8.507  16.716  18.170  0.00  0.00    +0.000 A 
BRANCH   8  15
ATOM     14  C   UNL     1       5.490  16.332  19.850  0.00  0.00    +0.000 C 
ATOM     15  O   UNL     1       6.091  16.275  18.561  0.00  0.00    +0.000 OA
ENDBRANCH   8  15
BRANCH  13  16
ATOM     16  O   UNL     1       8.361  18.047  17.880  0.00  0.00    +0.000 OA
ATOM     17  H   UNL     1       8.843  18.570  18.534  0.00  0.00    +0.000 HD
ENDBRANCH  13  16
ENDBRANCH   6  10
ENDBRANCH   2   7
ENDBRANCH   1   4
BRANCH   1  18
ATOM     18  C   UNL     1       7.169   7.064  17.302  0.00  0.00    +0.000 C 
BRANCH  18  19
ATOM     19  C   UNL     1       7.236   5.569  17.596  0.00  0.00    +0.000 C 
BRANCH  19  20
ATOM     20  C   UNL     1       6.573   5.218  18.927  0.00  0.00    +0.000 C 
BRANCH  20  21
ATOM     21  N   UNL     1       5.806   3.971  18.850  0.00  0.00    +0.000 NA
ATOM     22  H   UNL     1       6.105   3.343  19.595  0.00  0.00    +0.000 HD
BRANCH  21  23
ATOM     23  C   UNL     1       4.343   4.146  18.910  0.00  0.00    +0.000 C 
ATOM     24  C   UNL     1       3.677   3.831  17.551  0.00  0.00    +0.000 C 
ATOM     25  C   UNL     1       2.163   4.057  17.623  0.00  0.00    +0.000 C 
ATOM     26  C   UNL     1       1.565   3.152  18.712  0.00  0.00    +0.000 C 
ATOM     27  C   UNL     1       2.177   3.489  20.090  0.00  0.00    +0.000 C 
ATOM     28  C   UNL     1       1.585   2.585  21.176  0.00  0.00    +0.000 C 
ATOM     29  C   UNL     1       1.908   4.973  20.413  0.00  0.00    +0.000 C 
ATOM     30  C   UNL     1       2.516   5.889  19.327  0.00  0.00    +0.000 C 
ATOM     31  C   UNL     1       2.234   7.356  19.662  0.00  0.00    +0.000 C 
ATOM     32  C   UNL     1       1.884   5.525  17.964  0.00  0.00    +0.000 C 
ATOM     33  C   UNL     1       4.044   5.633  19.251  0.00  0.00    +0.000 C 
ATOM     34  C   UNL     1       3.704   3.271  20.017  0.00  0.00    +0.000 C 
ENDBRANCH  21  23
ENDBRANCH  20  21
ENDBRANCH  19  20
ENDBRANCH  18  19
ENDBRANCH   1  18
TORSDOF 10
ENDMDL
MODEL 6
REMARK VINA RESULT:      -8.0      1.233      2.388
REMARK  Name = 
REMARK  13 active torsions:
REMARK  status: ('A' for Active; 'I' for Inactive)
REMARK    1  A    between atoms: C_1  and  O_2
REMARK    2  A    between atoms: O_2  and  C_3
REMARK    3  A    between atoms: C_5  and  C_6
REMARK    4  A    between atoms: C_7  and  C_8
REMARK    5  A    between atoms: N_10  and  C_11
REMARK    6  A    between atoms: C_11  and  C_12
REMARK    7  A    between atoms: C_12  and  C_13
REMARK    8  A    between atoms: C_13  and  C_14
REMARK    9  A    between atoms: C_14  and  N_15
REMARK   10  A    between atoms: N_15  and  C_16
REMARK   11  A    between atoms: C_20  and  C_21
REMARK   12  A    between atoms: C_23  and  C_24
REMARK   13  A    between atoms: C_30  and  O_31
REMARK                            x       y       z     vdW  Elec       q    Type
REMARK                         _______ _______ _______ _____ _____    ______ ____
ROOT
ATOM      1  C   UNL     1       6.601   6.481  16.741  0.00  0.00    +0.000 C 
ENDROOT
BRANCH   1   4
ATOM      2  C   UNL     1       8.032   8.041  18.001  0.00  0.00    +0.000 C 
ATOM      3  O   UNL     1       8.454   7.180  18.761  0.00  0.00    +0.000 OA
ATOM      4  N   UNL     1       7.126   7.808  16.992  0.00  0.00    +0.000 N 
ATOM      5  H   UNL     1       6.785   8.568  16.422  0.00  0.00    +0.000 HD
BRANCH   2   7
ATOM      6  C   UNL     1       9.307   9.874  19.044  0.00  0.00    +0.000 C 
ATOM      7  C   UNL     1       8.464   9.462  18.080  0.00  0.00    +0.000 C 
BRANCH   6  10
ATOM      8  C   UNL     1       9.295  13.679  19.206  0.00  0.00    +0.000 A 
ATOM      9  C   UNL     1       8.871  12.339  19.081  0.00  0.00    +0.000 A 
ATOM     10  C   UNL     1       9.772  11.267  19.197  0.00  0.00    +0.000 A 
ATOM     11  C   UNL     1      11.123  11.560  19.408  0.00  0.00    +0.000 A 
ATOM     12  C   UNL     1      11.561  12.879  19.530  0.00  0.00    +0.000 A 
ATOM     13  C   UNL     1      10.655  13.933  19.428  0.00  0.00    +0.000 A 
BRANCH   8  15
ATOM     14  C   UNL     1       8.312  15.469  17.959  0.00  0.00    +0.000 C 
ATOM     15  O   UNL     1       8.283  14.598  19.084  0.00  0.00    +0.000 OA
ENDBRANCH   8  15
BRANCH  13  16
ATOM     16  O   UNL     1      11.140  15.208  19.553  0.00  0.00    +0.000 OA
ATOM     17  H   UNL     1      11.950  15.293  19.032  0.00  0.00    +0.000 HD
ENDBRANCH  13  16
ENDBRANCH   6  10
ENDBRANCH   2   7
ENDBRANCH   1   4
BRANCH   1  18
ATOM     18  C   UNL     1       7.483   5.694  15.779  0.00  0.00    +0.000 C 
BRANCH  18  19
ATOM     19  C   UNL     1       6.901   4.309  15.519  0.00  0.00    +0.000 C 
BRANCH  19  20
ATOM     20  C   UNL     1       5.386   4.281  15.709  0.00  0.00    +0.000 C 
BRANCH  20  21
ATOM     21  N   UNL     1       4.967   3.244  16.659  0.00  0.00    +0.000 NA
ATOM     22  H   UNL     1       5.792   2.823  17.083  0.00  0.00    +0.000 HD
BRANCH  21  23
ATOM     23  C   UNL     1       4.053   3.714  17.716  0.00  0.00    +0.000 C 
ATOM     24  C   UNL     1       4.715   3.644  19.111  0.00  0.00    +0.000 C 
ATOM     25  C   UNL     1       3.737   4.098  20.200  0.00  0.00    +0.000 C 
ATOM     26  C   UNL     1       3.292   5.541  19.913  0.00  0.00    +0.000 C 
ATOM     27  C   UNL     1       2.577   5.625  18.545  0.00  0.00    +0.000 C 
ATOM     28  C   UNL     1       2.138   7.064  18.256  0.00  0.00    +0.000 C 
ATOM     29  C   UNL     1       1.361   4.676  18.552  0.00  0.00    +0.000 C 
ATOM     30  C   UNL     1       1.803   3.222  18.830  0.00  0.00    +0.000 C 
ATOM     31  C   UNL     1       0.582   2.298  18.839  0.00  0.00    +0.000 C 
ATOM     32  C   UNL     1       2.513   3.175  20.202  0.00  0.00    +0.000 C 
ATOM     33  C   UNL     1       2.808   2.783  17.733  0.00  0.00    +0.000 C 
ATOM     34  C   UNL     1       3.558   5.158  17.448  0.00  0.00    +0.000 C 
ENDBRANCH  21  23
ENDBRANCH  20  21
ENDBRANCH  19  20
ENDBRANCH  18  19
ENDBRANCH   1  18
TORSDOF 10
ENDMDL
MODEL 7
REMARK VINA RESULT:      -8.0      5.226      7.956
REMARK  Name = 
REMARK  13 active torsions:
REMARK  status: ('A' for Active; 'I' for Inactive)
REMARK    1  A    between atoms: C_1  and  O_2
REMARK    2  A    between atoms: O_2  and  C_3
REMARK    3  A    between atoms: C_5  and  C_6
REMARK    4  A    between atoms: C_7  and  C_8
REMARK    5  A    between atoms: N_10  and  C_11
REMARK    6  A    between atoms: C_11  and  C_12
REMARK    7  A    between atoms: C_12  and  C_13
REMARK    8  A    between atoms: C_13  and  C_14
REMARK    9  A    between atoms: C_14  and  N_15
REMARK   10  A    between atoms: N_15  and  C_16
REMARK   11  A    between atoms: C_20  and  C_21
REMARK   12  A    between atoms: C_23  and  C_24
REMARK   13  A    between atoms: C_30  and  O_31
REMARK                            x       y       z     vdW  Elec       q    Type
REMARK                         _______ _______ _______ _____ _____    ______ ____
ROOT
ATOM      1  C   UNL     1       1.139   3.172  20.365  0.00  0.00    +0.000 C 
ENDROOT
BRANCH   1   4
ATOM      2  C   UNL     1       1.874   5.521  20.475  0.00  0.00    +0.000 C 
ATOM      3  O   UNL     1       3.057   5.237  20.614  0.00  0.00    +0.000 OA
ATOM      4  N   UNL     1       0.864   4.595  20.352  0.00  0.00    +0.000 N 
ATOM      5  H   UNL     1      -0.099   4.890  20.279  0.00  0.00    +0.000 HD
BRANCH   2   7
ATOM      6  C   UNL     1       0.910   7.537  21.513  0.00  0.00    +0.000 C 
ATOM      7  C   UNL     1       1.388   6.925  20.415  0.00  0.00    +0.000 C 
BRANCH   6  10
ATOM      8  C   UNL     1       0.015  11.063  20.383  0.00  0.00    +0.000 A 
ATOM      9  C   UNL     1       0.480   9.731  20.385  0.00  0.00    +0.000 A 
ATOM     10  C   UNL     1       0.399   8.923  21.531  0.00  0.00    +0.000 A 
ATOM     11  C   UNL     1      -0.131   9.484  22.698  0.00  0.00    +0.000 A 
ATOM     12  C   UNL     1      -0.591  10.800  22.716  0.00  0.00    +0.000 A 
ATOM     13  C   UNL     1      -0.520  11.587  21.568  0.00  0.00    +0.000 A 
BRANCH   8  15
ATOM     14  C   UNL     1      -1.013  11.872  18.380  0.00  0.00    +0.000 C 
ATOM     15  O   UNL     1       0.154  11.701  19.176  0.00  0.00    +0.000 OA
ENDBRANCH   8  15
BRANCH  13  16
ATOM     16  O   UNL     1      -0.985  12.873  21.643  0.00  0.00    +0.000 OA
ATOM     17  H   UNL     1      -0.919  13.183  22.557  0.00  0.00    +0.000 HD
ENDBRANCH  13  16
ENDBRANCH   6  10
ENDBRANCH   2   7
ENDBRANCH   1   4
BRANCH   1  18
ATOM     18  C   UNL     1       0.783   2.512  19.039  0.00  0.00    +0.000 C 
BRANCH  18  19
ATOM     19  C   UNL     1       1.881   2.742  18.006  0.00  0.00    +0.000 C 
BRANCH  19  20
ATOM     20  C   UNL     1       3.275   2.658  18.626  0.00  0.00    +0.000 C 
BRANCH  20  21
ATOM     21  N   UNL     1       4.329   2.585  17.609  0.00  0.00    +0.000 NA
ATOM     22  H   UNL     1       3.953   2.158  16.764  0.00  0.00    +0.000 HD
BRANCH  21  23
ATOM     23  C   UNL     1       4.948   3.881  17.274  0.00  0.00    +0.000 C 
ATOM     24  C   UNL     1       3.895   5.011  17.202  0.00  0.00    +0.000 C 
ATOM     25  C   UNL     1       4.551   6.341  16.815  0.00  0.00    +0.000 C 
ATOM     26  C   UNL     1       5.623   6.701  17.857  0.00  0.00    +0.000 C 
ATOM     27  C   UNL     1       6.717   5.610  17.905  0.00  0.00    +0.000 C 
ATOM     28  C   UNL     1       7.783   5.966  18.946  0.00  0.00    +0.000 C 
ATOM     29  C   UNL     1       7.350   5.466  16.506  0.00  0.00    +0.000 C 
ATOM     30  C   UNL     1       6.279   5.094  15.456  0.00  0.00    +0.000 C 
ATOM     31  C   UNL     1       6.925   4.961  14.075  0.00  0.00    +0.000 C 
ATOM     32  C   UNL     1       5.202   6.203  15.434  0.00  0.00    +0.000 C 
ATOM     33  C   UNL     1       5.609   3.758  15.873  0.00  0.00    +0.000 C 
ATOM     34  C   UNL     1       6.056   4.268  18.286  0.00  0.00    +0.000 C 
ENDBRANCH  21  23
ENDBRANCH  20  21
ENDBRANCH  19  20
ENDBRANCH  18  19
ENDBRANCH   1  18
TORSDOF 10
ENDMDL
MODEL 8
REMARK VINA RESULT:      -8.0      5.594      7.609
REMARK  Name = 
REMARK  13 active torsions:
REMARK  status: ('A' for Active; 'I' for Inactive)
REMARK    1  A    between atoms: C_1  and  O_2
REMARK    2  A    between atoms: O_2  and  C_3
REMARK    3  A    between atoms: C_5  and  C_6
REMARK    4  A    between atoms: C_7  and  C_8
REMARK    5  A    between atoms: N_10  and  C_11
REMARK    6  A    between atoms: C_11  and  C_12
REMARK    7  A    between atoms: C_12  and  C_13
REMARK    8  A    between atoms: C_13  and  C_14
REMARK    9  A    between atoms: C_14  and  N_15
REMARK   10  A    between atoms: N_15  and  C_16
REMARK   11  A    between atoms: C_20  and  C_21
REMARK   12  A    between atoms: C_23  and  C_24
REMARK   13  A    between atoms: C_30  and  O_31
REMARK                            x       y       z     vdW  Elec       q    Type
REMARK                         _______ _______ _______ _____ _____    ______ ____
ROOT
ATOM      1  C   UNL     1       1.213   2.961  20.827  0.00  0.00    +0.000 C 
ENDROOT
BRANCH   1   4
ATOM      2  C   UNL     1       2.002   5.276  20.528  0.00  0.00    +0.000 C 
ATOM      3  O   UNL     1       3.167   5.007  20.790  0.00  0.00    +0.000 OA
ATOM      4  N   UNL     1       0.977   4.358  20.524  0.00  0.00    +0.000 N 
ATOM      5  H   UNL     1       0.028   4.648  20.337  0.00  0.00    +0.000 HD
BRANCH   2   7
ATOM      6  C   UNL     1       1.442   7.604  21.109  0.00  0.00    +0.000 C 
ATOM      7  C   UNL     1       1.557   6.648  20.169  0.00  0.00    +0.000 C 
BRANCH   6  10
ATOM      8  C   UNL     1       0.055  11.112  21.632  0.00  0.00    +0.000 A 
ATOM      9  C   UNL     1       0.503   9.796  21.871  0.00  0.00    +0.000 A 
ATOM     10  C   UNL     1       0.996   8.985  20.835  0.00  0.00    +0.000 A 
ATOM     11  C   UNL     1       1.003   9.504  19.537  0.00  0.00    +0.000 A 
ATOM     12  C   UNL     1       0.560  10.801  19.281  0.00  0.00    +0.000 A 
ATOM     13  C   UNL     1       0.088  11.602  20.319  0.00  0.00    +0.000 A 
BRANCH   8  15
ATOM     14  C   UNL     1      -1.756  11.677  23.089  0.00  0.00    +0.000 C 
ATOM     15  O   UNL     1      -0.376  11.769  22.757  0.00  0.00    +0.000 OA
ENDBRANCH   8  15
BRANCH  13  16
ATOM     16  O   UNL     1      -0.337  12.867  20.009  0.00  0.00    +0.000 OA
ATOM     17  H   UNL     1      -0.363  13.400  20.815  0.00  0.00    +0.000 HD
ENDBRANCH  13  16
ENDBRANCH   6  10
ENDBRANCH   2   7
ENDBRANCH   1   4
BRANCH   1  18
ATOM     18  C   UNL     1       1.568   2.161  19.580  0.00  0.00    +0.000 C 
BRANCH  18  19
ATOM     19  C   UNL     1       3.044   1.776  19.584  0.00  0.00    +0.000 C 
BRANCH  19  20
ATOM     20  C   UNL     1       3.603   1.642  18.169  0.00  0.00    +0.000 C 
BRANCH  20  21
ATOM     21  N   UNL     1       3.219   2.770  17.314  0.00  0.00    +0.000 NA
ATOM     22  H   UNL     1       2.330   3.150  17.636  0.00  0.00    +0.000 HD
BRANCH  21  23
ATOM     23  C   UNL     1       4.220   3.850  17.238  0.00  0.00    +0.000 C 
ATOM     24  C   UNL     1       5.239   3.762  18.398  0.00  0.00    +0.000 C 
ATOM     25  C   UNL     1       6.246   4.915  18.323  0.00  0.00    +0.000 C 
ATOM     26  C   UNL     1       6.989   4.854  16.979  0.00  0.00    +0.000 C 
ATOM     27  C   UNL     1       5.995   4.997  15.805  0.00  0.00    +0.000 C 
ATOM     28  C   UNL     1       6.733   4.932  14.464  0.00  0.00    +0.000 C 
ATOM     29  C   UNL     1       5.236   6.333  15.944  0.00  0.00    +0.000 C 
ATOM     30  C   UNL     1       4.479   6.395  17.289  0.00  0.00    +0.000 C 
ATOM     31  C   UNL     1       3.739   7.730  17.411  0.00  0.00    +0.000 C 
ATOM     32  C   UNL     1       5.501   6.249  18.439  0.00  0.00    +0.000 C 
ATOM     33  C   UNL     1       3.479   5.211  17.359  0.00  0.00    +0.000 C 
ATOM     34  C   UNL     1       4.973   3.842  15.884  0.00  0.00    +0.000 C 
ENDBRANCH  21  23
ENDBRANCH  20  21
ENDBRANCH  19  20
ENDBRANCH  18  19
ENDBRANCH   1  18
TORSDOF 10
ENDMDL
MODEL 9
REMARK VINA RESULT:      -7.9      1.098      1.364
REMARK  Name = 
REMARK  13 active torsions:
REMARK  status: ('A' for Active; 'I' for Inactive)
REMARK    1  A    between atoms: C_1  and  O_2
REMARK    2  A    between atoms: O_2  and  C_3
REMARK    3  A    between atoms: C_5  and  C_6
REMARK    4  A    between atoms: C_7  and  C_8
REMARK    5  A    between atoms: N_10  and  C_11
REMARK    6  A    between atoms: C_11  and  C_12
REMARK    7  A    between atoms: C_12  and  C_13
REMARK    8  A    between atoms: C_13  and  C_14
REMARK    9  A    between atoms: C_14  and  N_15
REMARK   10  A    between atoms: N_15  and  C_16
REMARK   11  A    between atoms: C_20  and  C_21
REMARK   12  A    between atoms: C_23  and  C_24
REMARK   13  A    between atoms: C_30  and  O_31
REMARK                            x       y       z     vdW  Elec       q    Type
REMARK                         _______ _______ _______ _____ _____    ______ ____
ROOT
ATOM      1  C   UNL     1       6.273   6.499  17.296  0.00  0.00    +0.000 C 
ENDROOT
BRANCH   1   4
ATOM      2  C   UNL     1       7.945   8.197  17.919  0.00  0.00    +0.000 C 
ATOM      3  O   UNL     1       8.439   7.513  18.807  0.00  0.00    +0.000 OA
ATOM      4  N   UNL     1       6.888   7.800  17.134  0.00  0.00    +0.000 N 
ATOM      5  H   UNL     1       6.499   8.425  16.442  0.00  0.00    +0.000 HD
BRANCH   2   7
ATOM      6  C   UNL     1       9.217  10.241  18.444  0.00  0.00    +0.000 C 
ATOM      7  C   UNL     1       8.447   9.554  17.581  0.00  0.00    +0.000 C 
BRANCH   6  10
ATOM      8  C   UNL     1       9.390  14.027  18.063  0.00  0.00    +0.000 A 
ATOM      9  C   UNL     1       8.915  12.723  18.320  0.00  0.00    +0.000 A 
ATOM     10  C   UNL     1       9.744  11.596  18.187  0.00  0.00    +0.000 A 
ATOM     11  C   UNL     1      11.060  11.792  17.756  0.00  0.00    +0.000 A 
ATOM     12  C   UNL     1      11.545  13.073  17.494  0.00  0.00    +0.000 A 
ATOM     13  C   UNL     1      10.718  14.184  17.644  0.00  0.00    +0.000 A 
BRANCH   8  15
ATOM     14  C   UNL     1       8.530  15.765  19.464  0.00  0.00    +0.000 C 
ATOM     15  O   UNL     1       8.454  15.010  18.260  0.00  0.00    +0.000 OA
ENDBRANCH   8  15
BRANCH  13  16
ATOM     16  O   UNL     1      11.247  15.418  17.370  0.00  0.00    +0.000 OA
ATOM     17  H   UNL     1      10.528  16.050  17.238  0.00  0.00    +0.000 HD
ENDBRANCH  13  16
ENDBRANCH   6  10
ENDBRANCH   2   7
ENDBRANCH   1   4
BRANCH   1  18
ATOM     18  C   UNL     1       7.075   5.401  16.609  0.00  0.00    +0.000 C 
BRANCH  18  19
ATOM     19  C   UNL     1       6.293   4.806  15.442  0.00  0.00    +0.000 C 
BRANCH  19  20
ATOM     20  C   UNL     1       5.082   4.006  15.916  0.00  0.00    +0.000 C 
BRANCH  20  21
ATOM     21  N   UNL     1       4.128   4.835  16.660  0.00  0.00    +0.000 NA
ATOM     22  H   UNL     1       3.440   5.220  16.015  0.00  0.00    +0.000 HD
BRANCH  21  23
ATOM     23  C   UNL     1       3.437   4.137  17.760  0.00  0.00    +0.000 C 
ATOM     24  C   UNL     1       2.333   3.194  17.229  0.00  0.00    +0.000 C 
ATOM     25  C   UNL     1       1.601   2.509  18.388  0.00  0.00    +0.000 C 
ATOM     26  C   UNL     1       2.610   1.703  19.221  0.00  0.00    +0.000 C 
ATOM     27  C   UNL     1       3.693   2.636  19.809  0.00  0.00    +0.000 C 
ATOM     28  C   UNL     1       4.703   1.833  20.636  0.00  0.00    +0.000 C 
ATOM     29  C   UNL     1       3.014   3.714  20.678  0.00  0.00    +0.000 C 
ATOM     30  C   UNL     1       2.005   4.535  19.843  0.00  0.00    +0.000 C 
ATOM     31  C   UNL     1       1.338   5.594  20.724  0.00  0.00    +0.000 C 
ATOM     32  C   UNL     1       0.939   3.573  19.271  0.00  0.00    +0.000 C 
ATOM     33  C   UNL     1       2.756   5.204  18.663  0.00  0.00    +0.000 C 
ATOM     34  C   UNL     1       4.425   3.335  18.643  0.00  0.00    +0.000 C 
ENDBRANCH  21  23
ENDBRANCH  20  21
ENDBRANCH  19  20
ENDBRANCH  18  19
ENDBRANCH   1  18
TORSDOF 10
ENDMDL
