MODEL 1
REMARK VINA RESULT:      -7.5      0.000      0.000
REMARK  Name = 
REMARK  8 active torsions:
REMARK  status: ('A' for Active; 'I' for Inactive)
REMARK    1  A    between atoms: C_1  and  C_2
REMARK    2  A    between atoms: N_4  and  C_5
REMARK    3  A    between atoms: C_5  and  C_6
REMARK    4  A    between atoms: N_14  and  C_15
REMARK    5  A    between atoms: C_15  and  C_16
REMARK    6  A    between atoms: C_16  and  C_17
REMARK    7  A    between atoms: C_17  and  C_18
REMARK    8  A    between atoms: C_18  and  O_19
REMARK                            x       y       z     vdW  Elec       q    Type
REMARK                         _______ _______ _______ _____ _____    ______ ____
ROOT
ATOM      1  C   UNL     1       2.634   6.013  18.375  0.00  0.00    +0.000 A 
ATOM      2  N   UNL     1       2.649   7.182  17.753  0.00  0.00    +0.000 NA
ATOM      3  C   UNL     1       2.101   8.090  18.621  0.00  0.00    +0.000 A 
ATOM      4  C   UNL     1       1.786   9.443  18.419  0.00  0.00    +0.000 A 
ATOM      5  C   UNL     1       1.139  10.151  19.440  0.00  0.00    +0.000 A 
ATOM      6  C   UNL     1       0.838   9.531  20.650  0.00  0.00    +0.000 A 
ATOM      7  C   UNL     1       1.187   8.197  20.884  0.00  0.00    +0.000 A 
ATOM      8  C   UNL     1       1.805   7.493  19.838  0.00  0.00    +0.000 A 
ATOM      9  N   UNL     1       2.227   6.182  19.691  0.00  0.00    +0.000 N 
ENDROOT
BRANCH   1  10
ATOM     10  C   UNL     1       2.768   4.706  17.648  0.00  0.00    +0.000 C 
BRANCH  10  14
ATOM     11  C   UNL     1       6.146   3.971  14.293  0.00  0.00    +0.000 C 
ATOM     12  C   UNL     1       5.589   4.150  15.652  0.00  0.00    +0.000 A 
ATOM     13  N   UNL     1       4.266   4.094  15.858  0.00  0.00    +0.000 NA
ATOM     14  N   UNL     1       4.104   4.353  17.184  0.00  0.00    +0.000 N 
ATOM     15  C   UNL     1       5.309   4.572  17.808  0.00  0.00    +0.000 A 
ATOM     16  C   UNL     1       6.281   4.449  16.843  0.00  0.00    +0.000 A 
ATOM     17  C   UNL     1       7.729   4.708  17.083  0.00  0.00    +0.000 C 
ATOM     18  C   UNL     1       8.032   4.847  18.585  0.00  0.00    +0.000 C 
ATOM     19  C   UNL     1       6.937   5.632  19.333  0.00  0.00    +0.000 C 
ATOM     20  C   UNL     1       5.561   4.934  19.232  0.00  0.00    +0.000 C 
ENDBRANCH  10  14
ENDBRANCH   1  10
BRANCH   9  21
ATOM     21  C   UNL     1       2.192   5.199  20.764  0.00  0.00    +0.000 C 
BRANCH  21  22
ATOM     22  C   UNL     1       0.995   4.254  20.668  0.00  0.00    +0.000 C 
BRANCH  22  23
ATOM     23  C   UNL     1       1.350   2.800  20.974  0.00  0.00    +0.000 C 
BRANCH  23  24
ATOM     24  C   UNL     1       2.369   2.295  19.959  0.00  0.00    +0.000 C 
BRANCH  24  25
ATOM     25  O   UNL     1       1.725   1.536  18.949  0.00  0.00    +0.000 OA
ATOM     26  H   UNL     1       2.255   0.733  18.806  0.00  0.00    +0.000 HD
ENDBRANCH  24  25
ENDBRANCH  23  24
ENDBRANCH  22  23
ENDBRANCH  21  22
ENDBRANCH   9  21
TORSDOF 7
ENDMDL
MODEL 2
REMARK VINA RESULT:      -7.4      2.292      7.301
REMARK  Name = 
REMARK  8 active torsions:
REMARK  status: ('A' for Active; 'I' for Inactive)
REMARK    1  A    between atoms: C_1  and  C_2
REMARK    2  A    between atoms: N_4  and  C_5
REMARK    3  A    between atoms: C_5  and  C_6
REMARK    4  A    between atoms: N_14  and  C_15
REMARK    5  A    between atoms: C_15  and  C_16
REMARK    6  A    between atoms: C_16  and  C_17
REMARK    7  A    between atoms: C_17  and  C_18
REMARK    8  A    between atoms: C_18  and  O_19
REMARK                            x       y       z     vdW  Elec       q    Type
REMARK                         _______ _______ _______ _____ _____    ______ ____
ROOT
ATOM      1  C   UNL     1       2.463   6.558  19.451  0.00  0.00    +0.000 A 
ATOM      2  N   UNL     1       1.720   5.779  20.223  0.00  0.00    +0.000 NA
ATOM      3  C   UNL     1       1.728   4.537  19.643  0.00  0.00    +0.000 A 
ATOM      4  C   UNL     1       1.015   3.381  19.997  0.00  0.00    +0.000 A 
ATOM      5  C   UNL     1       1.119   2.243  19.187  0.00  0.00    +0.000 A 
ATOM      6  C   UNL     1       1.939   2.247  18.062  0.00  0.00    +0.000 A 
ATOM      7  C   UNL     1       2.692   3.376  17.722  0.00  0.00    +0.000 A 
ATOM      8  C   UNL     1       2.551   4.519  18.526  0.00  0.00    +0.000 A 
ATOM      9  N   UNL     1       3.076   5.798  18.464  0.00  0.00    +0.000 N 
ENDROOT
BRANCH   1  10
ATOM     10  C   UNL     1       2.390   8.056  19.501  0.00  0.00    +0.000 C 
BRANCH  10  14
ATOM     11  C   UNL     1       0.045   9.509  23.451  0.00  0.00    +0.000 C 
ATOM     12  C   UNL     1       0.316   9.355  22.005  0.00  0.00    +0.000 A 
ATOM     13  N   UNL     1       1.222   8.467  21.573  0.00  0.00    +0.000 NA
ATOM     14  N   UNL     1       1.259   8.628  20.222  0.00  0.00    +0.000 N 
ATOM     15  C   UNL     1       0.388   9.607  19.806  0.00  0.00    +0.000 A 
ATOM     16  C   UNL     1      -0.229  10.092  20.935  0.00  0.00    +0.000 A 
ATOM     17  C   UNL     1      -1.182  11.239  20.934  0.00  0.00    +0.000 C 
ATOM     18  C   UNL     1      -1.600  11.619  19.503  0.00  0.00    +0.000 C 
ATOM     19  C   UNL     1      -0.425  11.546  18.510  0.00  0.00    +0.000 C 
ATOM     20  C   UNL     1       0.166  10.119  18.424  0.00  0.00    +0.000 C 
ENDBRANCH  10  14
ENDBRANCH   1  10
BRANCH   9  21
ATOM     21  C   UNL     1       4.073   6.214  17.488  0.00  0.00    +0.000 C 
BRANCH  21  22
ATOM     22  C   UNL     1       5.416   5.509  17.669  0.00  0.00    +0.000 C 
BRANCH  22  23
ATOM     23  C   UNL     1       5.903   5.504  19.117  0.00  0.00    +0.000 C 
BRANCH  23  24
ATOM     24  C   UNL     1       7.421   5.638  19.150  0.00  0.00    +0.000 C 
BRANCH  24  25
ATOM     25  O   UNL     1       7.902   5.480  20.475  0.00  0.00    +0.000 OA
ATOM     26  H   UNL     1       8.234   6.344  20.769  0.00  0.00    +0.000 HD
ENDBRANCH  24  25
ENDBRANCH  23  24
ENDBRANCH  22  23
ENDBRANCH  21  22
ENDBRANCH   9  21
TORSDOF 7
ENDMDL
MODEL 3
REMARK VINA RESULT:      -7.2      2.387      7.339
REMARK  Name = 
REMARK  8 active torsions:
REMARK  status: ('A' for Active; 'I' for Inactive)
REMARK    1  A    between atoms: C_1  and  C_2
REMARK    2  A    between atoms: N_4  and  C_5
REMARK    3  A    between atoms: C_5  and  C_6
REMARK    4  A    between atoms: N_14  and  C_15
REMARK    5  A    between atoms: C_15  and  C_16
REMARK    6  A    between atoms: C_16  and  C_17
REMARK    7  A    between atoms: C_17  and  C_18
REMARK    8  A    between atoms: C_18  and  O_19
REMARK                            x       y       z     vdW  Elec       q    Type
REMARK                         _______ _______ _______ _____ _____    ______ ____
ROOT
ATOM      1  C   UNL     1       2.546   6.453  19.300  0.00  0.00    +0.000 A 
ATOM      2  N   UNL     1       1.618   5.659  19.812  0.00  0.00    +0.000 NA
ATOM      3  C   UNL     1       1.927   4.388  19.405  0.00  0.00    +0.000 A 
ATOM      4  C   UNL     1       1.211   3.193  19.581  0.00  0.00    +0.000 A 
ATOM      5  C   UNL     1       1.690   2.019  18.987  0.00  0.00    +0.000 A 
ATOM      6  C   UNL     1       2.876   2.027  18.257  0.00  0.00    +0.000 A 
ATOM      7  C   UNL     1       3.626   3.199  18.112  0.00  0.00    +0.000 A 
ATOM      8  C   UNL     1       3.114   4.374  18.686  0.00  0.00    +0.000 A 
ATOM      9  N   UNL     1       3.538   5.692  18.697  0.00  0.00    +0.000 N 
ENDROOT
BRANCH   1  10
ATOM     10  C   UNL     1       2.361   7.936  19.168  0.00  0.00    +0.000 C 
BRANCH  10  14
ATOM     11  C   UNL     1       0.353   9.392  23.298  0.00  0.00    +0.000 C 
ATOM     12  C   UNL     1       0.518   9.259  21.834  0.00  0.00    +0.000 A 
ATOM     13  N   UNL     1       1.357   8.347  21.324  0.00  0.00    +0.000 NA
ATOM     14  N   UNL     1       1.306   8.535  19.977  0.00  0.00    +0.000 N 
ATOM     15  C   UNL     1       0.447   9.554  19.640  0.00  0.00    +0.000 A 
ATOM     16  C   UNL     1      -0.072  10.038  20.818  0.00  0.00    +0.000 A 
ATOM     17  C   UNL     1      -0.978  11.218  20.905  0.00  0.00    +0.000 C 
ATOM     18  C   UNL     1      -1.479  11.643  19.514  0.00  0.00    +0.000 C 
ATOM     19  C   UNL     1      -0.379  11.548  18.440  0.00  0.00    +0.000 C 
ATOM     20  C   UNL     1       0.150  10.102  18.287  0.00  0.00    +0.000 C 
ENDBRANCH  10  14
ENDBRANCH   1  10
BRANCH   9  21
ATOM     21  C   UNL     1       4.803   6.136  18.128  0.00  0.00    +0.000 C 
BRANCH  21  22
ATOM     22  C   UNL     1       4.690   6.531  16.657  0.00  0.00    +0.000 C 
BRANCH  22  23
ATOM     23  C   UNL     1       5.234   5.467  15.705  0.00  0.00    +0.000 C 
BRANCH  23  24
ATOM     24  C   UNL     1       6.607   5.005  16.181  0.00  0.00    +0.000 C 
BRANCH  24  25
ATOM     25  O   UNL     1       7.629   5.741  15.529  0.00  0.00    +0.000 OA
ATOM     26  H   UNL     1       8.474   5.302  15.727  0.00  0.00    +0.000 HD
ENDBRANCH  24  25
ENDBRANCH  23  24
ENDBRANCH  22  23
ENDBRANCH  21  22
ENDBRANCH   9  21
TORSDOF 7
ENDMDL
MODEL 4
REMARK VINA RESULT:      -7.2      4.089      8.499
REMARK  Name = 
REMARK  8 active torsions:
REMARK  status: ('A' for Active; 'I' for Inactive)
REMARK    1  A    between atoms: C_1  and  C_2
REMARK    2  A    between atoms: N_4  and  C_5
REMARK    3  A    between atoms: C_5  and  C_6
REMARK    4  A    between atoms: N_14  and  C_15
REMARK    5  A    between atoms: C_15  and  C_16
REMARK    6  A    between atoms: C_16  and  C_17
REMARK    7  A    between atoms: C_17  and  C_18
REMARK    8  A    between atoms: C_18  and  O_19
REMARK                            x       y       z     vdW  Elec       q    Type
REMARK                         _______ _______ _______ _____ _____    ______ ____
ROOT
ATOM      1  C   UNL     1       1.303   9.696  18.652  0.00  0.00    +0.000 A 
ATOM      2  N   UNL     1       2.085   9.263  17.674  0.00  0.00    +0.000 NA
ATOM      3  C   UNL     1       2.613   8.073  18.099  0.00  0.00    +0.000 A 
ATOM      4  C   UNL     1       3.581   7.257  17.492  0.00  0.00    +0.000 A 
ATOM      5  C   UNL     1       4.033   6.118  18.171  0.00  0.00    +0.000 A 
ATOM      6  C   UNL     1       3.511   5.782  19.417  0.00  0.00    +0.000 A 
ATOM      7  C   UNL     1       2.513   6.559  20.014  0.00  0.00    +0.000 A 
ATOM      8  C   UNL     1       2.094   7.715  19.335  0.00  0.00    +0.000 A 
ATOM      9  N   UNL     1       1.197   8.725  19.637  0.00  0.00    +0.000 N 
ENDROOT
BRANCH   1  10
ATOM     10  C   UNL     1       0.860  11.126  18.763  0.00  0.00    +0.000 C 
BRANCH  10  14
ATOM     11  C   UNL     1      -2.826  13.579  20.663  0.00  0.00    +0.000 C 
ATOM     12  C   UNL     1      -2.151  12.542  19.852  0.00  0.00    +0.000 A 
ATOM     13  N   UNL     1      -0.842  12.301  20.007  0.00  0.00    +0.000 NA
ATOM     14  N   UNL     1      -0.545  11.349  19.081  0.00  0.00    +0.000 N 
ATOM     15  C   UNL     1      -1.653  10.992  18.349  0.00  0.00    +0.000 A 
ATOM     16  C   UNL     1      -2.700  11.748  18.825  0.00  0.00    +0.000 A 
ATOM     17  C   UNL     1      -4.068  11.738  18.234  0.00  0.00    +0.000 C 
ATOM     18  C   UNL     1      -4.236  10.586  17.228  0.00  0.00    +0.000 C 
ATOM     19  C   UNL     1      -2.980  10.379  16.359  0.00  0.00    +0.000 C 
ATOM     20  C   UNL     1      -1.741  10.029  17.216  0.00  0.00    +0.000 C 
ENDBRANCH  10  14
ENDBRANCH   1  10
BRANCH   9  21
ATOM     21  C   UNL     1       0.344   8.719  20.818  0.00  0.00    +0.000 C 
BRANCH  21  22
ATOM     22  C   UNL     1       0.992   9.394  22.025  0.00  0.00    +0.000 C 
BRANCH  22  23
ATOM     23  C   UNL     1       0.103   9.388  23.267  0.00  0.00    +0.000 C 
BRANCH  23  24
ATOM     24  C   UNL     1      -0.950  10.484  23.151  0.00  0.00    +0.000 C 
BRANCH  24  25
ATOM     25  O   UNL     1      -0.339  11.725  22.838  0.00  0.00    +0.000 OA
ATOM     26  H   UNL     1      -0.474  12.316  23.598  0.00  0.00    +0.000 HD
ENDBRANCH  24  25
ENDBRANCH  23  24
ENDBRANCH  22  23
ENDBRANCH  21  22
ENDBRANCH   9  21
TORSDOF 7
ENDMDL
MODEL 5
REMARK VINA RESULT:      -7.2      2.078      6.170
REMARK  Name = 
REMARK  8 active torsions:
REMARK  status: ('A' for Active; 'I' for Inactive)
REMARK    1  A    between atoms: C_1  and  C_2
REMARK    2  A    between atoms: N_4  and  C_5
REMARK    3  A    between atoms: C_5  and  C_6
REMARK    4  A    between atoms: N_14  and  C_15
REMARK    5  A    between atoms: C_15  and  C_16
REMARK    6  A    between atoms: C_16  and  C_17
REMARK    7  A    between atoms: C_17  and  C_18
REMARK    8  A    between atoms: C_18  and  O_19
REMARK                            x       y       z     vdW  Elec       q    Type
REMARK                         _______ _______ _______ _____ _____    ______ ____
ROOT
ATOM      1  C   UNL     1       3.165   6.968  17.879  0.00  0.00    +0.000 A 
ATOM      2  N   UNL     1       4.151   7.469  17.150  0.00  0.00    +0.000 NA
ATOM      3  C   UNL     1       5.306   6.899  17.615  0.00  0.00    +0.000 A 
ATOM      4  C   UNL     1       6.639   7.164  17.263  0.00  0.00    +0.000 A 
ATOM      5  C   UNL     1       7.668   6.508  17.952  0.00  0.00    +0.000 A 
ATOM      6  C   UNL     1       7.375   5.586  18.953  0.00  0.00    +0.000 A 
ATOM      7  C   UNL     1       6.051   5.276  19.284  0.00  0.00    +0.000 A 
ATOM      8  C   UNL     1       5.032   5.966  18.606  0.00  0.00    +0.000 A 
ATOM      9  N   UNL     1       3.652   5.965  18.706  0.00  0.00    +0.000 N 
ENDROOT
BRANCH   1  10
ATOM     10  C   UNL     1       1.812   7.613  17.967  0.00  0.00    +0.000 C 
BRANCH  10  14
ATOM     11  C   UNL     1       1.365  12.379  18.512  0.00  0.00    +0.000 C 
ATOM     12  C   UNL     1       1.415  10.958  18.921  0.00  0.00    +0.000 A 
ATOM     13  N   UNL     1       1.875  10.023  18.078  0.00  0.00    +0.000 NA
ATOM     14  N   UNL     1       1.728   8.844  18.743  0.00  0.00    +0.000 N 
ATOM     15  C   UNL     1       1.181   9.032  19.990  0.00  0.00    +0.000 A 
ATOM     16  C   UNL     1       0.969  10.384  20.128  0.00  0.00    +0.000 A 
ATOM     17  C   UNL     1       0.295  11.003  21.305  0.00  0.00    +0.000 C 
ATOM     18  C   UNL     1       0.130   9.992  22.453  0.00  0.00    +0.000 C 
ATOM     19  C   UNL     1      -0.259   8.590  21.947  0.00  0.00    +0.000 C 
ATOM     20  C   UNL     1       0.816   8.002  21.003  0.00  0.00    +0.000 C 
ENDBRANCH  10  14
ENDBRANCH   1  10
BRANCH   9  21
ATOM     21  C   UNL     1       2.907   5.061  19.571  0.00  0.00    +0.000 C 
BRANCH  21  22
ATOM     22  C   UNL     1       2.240   3.919  18.808  0.00  0.00    +0.000 C 
BRANCH  22  23
ATOM     23  C   UNL     1       3.059   2.629  18.816  0.00  0.00    +0.000 C 
BRANCH  23  24
ATOM     24  C   UNL     1       3.828   2.517  20.128  0.00  0.00    +0.000 C 
BRANCH  24  25
ATOM     25  O   UNL     1       5.065   1.854  19.919  0.00  0.00    +0.000 OA
ATOM     26  H   UNL     1       5.313   1.432  20.759  0.00  0.00    +0.000 HD
ENDBRANCH  24  25
ENDBRANCH  23  24
ENDBRANCH  22  23
ENDBRANCH  21  22
ENDBRANCH   9  21
TORSDOF 7
ENDMDL
MODEL 6
REMARK VINA RESULT:      -7.2      2.997      5.116
REMARK  Name = 
REMARK  8 active torsions:
REMARK  status: ('A' for Active; 'I' for Inactive)
REMARK    1  A    between atoms: C_1  and  C_2
REMARK    2  A    between atoms: N_4  and  C_5
REMARK    3  A    between atoms: C_5  and  C_6
REMARK    4  A    between atoms: N_14  and  C_15
REMARK    5  A    between atoms: C_15  and  C_16
REMARK    6  A    between atoms: C_16  and  C_17
REMARK    7  A    between atoms: C_17  and  C_18
REMARK    8  A    between atoms: C_18  and  O_19
REMARK                            x       y       z     vdW  Elec       q    Type
REMARK                         _______ _______ _______ _____ _____    ______ ____
ROOT
ATOM      1  C   UNL     1       1.480   8.600  19.350  0.00  0.00    +0.000 A 
ATOM      2  N   UNL     1       1.500   8.198  20.613  0.00  0.00    +0.000 NA
ATOM      3  C   UNL     1       0.686   9.055  21.306  0.00  0.00    +0.000 A 
ATOM      4  C   UNL     1       0.444   9.139  22.686  0.00  0.00    +0.000 A 
ATOM      5  C   UNL     1      -0.368  10.171  23.173  0.00  0.00    +0.000 A 
ATOM      6  C   UNL     1      -0.952  11.085  22.300  0.00  0.00    +0.000 A 
ATOM      7  C   UNL     1      -0.758  10.988  20.918  0.00  0.00    +0.000 A 
ATOM      8  C   UNL     1       0.085   9.967  20.449  0.00  0.00    +0.000 A 
ATOM      9  N   UNL     1       0.542   9.611  19.192  0.00  0.00    +0.000 N 
ENDROOT
BRANCH   1  10
ATOM     10  C   UNL     1       2.527   8.196  18.354  0.00  0.00    +0.000 C 
BRANCH  10  14
ATOM     11  C   UNL     1       1.428   3.505  18.274  0.00  0.00    +0.000 C 
ATOM     12  C   UNL     1       2.276   4.710  18.141  0.00  0.00    +0.000 A 
ATOM     13  N   UNL     1       1.862   5.891  18.621  0.00  0.00    +0.000 NA
ATOM     14  N   UNL     1       2.840   6.774  18.281  0.00  0.00    +0.000 N 
ATOM     15  C   UNL     1       3.860   6.159  17.594  0.00  0.00    +0.000 A 
ATOM     16  C   UNL     1       3.520   4.830  17.489  0.00  0.00    +0.000 A 
ATOM     17  C   UNL     1       4.315   3.827  16.726  0.00  0.00    +0.000 C 
ATOM     18  C   UNL     1       5.687   4.390  16.319  0.00  0.00    +0.000 C 
ATOM     19  C   UNL     1       5.607   5.863  15.874  0.00  0.00    +0.000 C 
ATOM     20  C   UNL     1       5.082   6.777  17.006  0.00  0.00    +0.000 C 
ENDBRANCH  10  14
ENDBRANCH   1  10
BRANCH   9  21
ATOM     21  C   UNL     1       0.095  10.249  17.961  0.00  0.00    +0.000 C 
BRANCH  21  22
ATOM     22  C   UNL     1      -1.272   9.752  17.494  0.00  0.00    +0.000 C 
BRANCH  22  23
ATOM     23  C   UNL     1      -2.287  10.877  17.302  0.00  0.00    +0.000 C 
BRANCH  23  24
ATOM     24  C   UNL     1      -2.741  10.919  15.847  0.00  0.00    +0.000 C 
BRANCH  24  25
ATOM     25  O   UNL     1      -2.841   9.604  15.324  0.00  0.00    +0.000 OA
ATOM     26  H   UNL     1      -3.210   9.040  16.024  0.00  0.00    +0.000 HD
ENDBRANCH  24  25
ENDBRANCH  23  24
ENDBRANCH  22  23
ENDBRANCH  21  22
ENDBRANCH   9  21
TORSDOF 7
ENDMDL
MODEL 7
REMARK VINA RESULT:      -7.2      1.944      6.163
REMARK  Name = 
REMARK  8 active torsions:
REMARK  status: ('A' for Active; 'I' for Inactive)
REMARK    1  A    between atoms: C_1  and  C_2
REMARK    2  A    between atoms: N_4  and  C_5
REMARK    3  A    between atoms: C_5  and  C_6
REMARK    4  A    between atoms: N_14  and  C_15
REMARK    5  A    between atoms: C_15  and  C_16
REMARK    6  A    between atoms: C_16  and  C_17
REMARK    7  A    between atoms: C_17  and  C_18
REMARK    8  A    between atoms: C_18  and  O_19
REMARK                            x       y       z     vdW  Elec       q    Type
REMARK                         _______ _______ _______ _____ _____    ______ ____
ROOT
ATOM      1  C   UNL     1       3.039   7.004  17.875  0.00  0.00    +0.000 A 
ATOM      2  N   UNL     1       4.044   7.441  17.131  0.00  0.00    +0.000 NA
ATOM      3  C   UNL     1       5.175   6.837  17.614  0.00  0.00    +0.000 A 
ATOM      4  C   UNL     1       6.517   7.034  17.254  0.00  0.00    +0.000 A 
ATOM      5  C   UNL     1       7.518   6.357  17.963  0.00  0.00    +0.000 A 
ATOM      6  C   UNL     1       7.187   5.478  18.991  0.00  0.00    +0.000 A 
ATOM      7  C   UNL     1       5.852   5.235  19.331  0.00  0.00    +0.000 A 
ATOM      8  C   UNL     1       4.863   5.946  18.632  0.00  0.00    +0.000 A 
ATOM      9  N   UNL     1       3.483   6.006  18.732  0.00  0.00    +0.000 N 
ENDROOT
BRANCH   1  10
ATOM     10  C   UNL     1       1.715   7.708  17.944  0.00  0.00    +0.000 C 
BRANCH  10  14
ATOM     11  C   UNL     1       1.399  12.473  18.578  0.00  0.00    +0.000 C 
ATOM     12  C   UNL     1       1.412  11.044  18.960  0.00  0.00    +0.000 A 
ATOM     13  N   UNL     1       1.844  10.113  18.099  0.00  0.00    +0.000 NA
ATOM     14  N   UNL     1       1.667   8.927  18.742  0.00  0.00    +0.000 N 
ATOM     15  C   UNL     1       1.128   9.106  19.994  0.00  0.00    +0.000 A 
ATOM     16  C   UNL     1       0.953  10.460  20.158  0.00  0.00    +0.000 A 
ATOM     17  C   UNL     1       0.301  11.076  21.348  0.00  0.00    +0.000 C 
ATOM     18  C   UNL     1       0.111  10.049  22.478  0.00  0.00    +0.000 C 
ATOM     19  C   UNL     1      -0.318   8.667  21.947  0.00  0.00    +0.000 C 
ATOM     20  C   UNL     1       0.738   8.068  20.989  0.00  0.00    +0.000 C 
ENDBRANCH  10  14
ENDBRANCH   1  10
BRANCH   9  21
ATOM     21  C   UNL     1       2.702   5.162  19.624  0.00  0.00    +0.000 C 
BRANCH  21  22
ATOM     22  C   UNL     1       1.886   4.105  18.882  0.00  0.00    +0.000 C 
BRANCH  22  23
ATOM     23  C   UNL     1       1.239   3.081  19.813  0.00  0.00    +0.000 C 
BRANCH  23  24
ATOM     24  C   UNL     1       1.487   3.476  21.264  0.00  0.00    +0.000 C 
BRANCH  24  25
ATOM     25  O   UNL     1       1.851   2.339  22.030  0.00  0.00    +0.000 OA
ATOM     26  H   UNL     1       1.962   2.632  22.951  0.00  0.00    +0.000 HD
ENDBRANCH  24  25
ENDBRANCH  23  24
ENDBRANCH  22  23
ENDBRANCH  21  22
ENDBRANCH   9  21
TORSDOF 7
ENDMDL
MODEL 8
REMARK VINA RESULT:      -7.1      1.915      6.527
REMARK  Name = 
REMARK  8 active torsions:
REMARK  status: ('A' for Active; 'I' for Inactive)
REMARK    1  A    between atoms: C_1  and  C_2
REMARK    2  A    between atoms: N_4  and  C_5
REMARK    3  A    between atoms: C_5  and  C_6
REMARK    4  A    between atoms: N_14  and  C_15
REMARK    5  A    between atoms: C_15  and  C_16
REMARK    6  A    between atoms: C_16  and  C_17
REMARK    7  A    between atoms: C_17  and  C_18
REMARK    8  A    between atoms: C_18  and  O_19
REMARK                            x       y       z     vdW  Elec       q    Type
REMARK                         _______ _______ _______ _____ _____    ______ ____
ROOT
ATOM      1  C   UNL     1       2.524   6.983  19.021  0.00  0.00    +0.000 A 
ATOM      2  N   UNL     1       3.364   7.612  18.213  0.00  0.00    +0.000 NA
ATOM      3  C   UNL     1       3.943   6.649  17.430  0.00  0.00    +0.000 A 
ATOM      4  C   UNL     1       4.977   6.765  16.487  0.00  0.00    +0.000 A 
ATOM      5  C   UNL     1       5.467   5.608  15.869  0.00  0.00    +0.000 A 
ATOM      6  C   UNL     1       4.920   4.362  16.163  0.00  0.00    +0.000 A 
ATOM      7  C   UNL     1       3.859   4.234  17.065  0.00  0.00    +0.000 A 
ATOM      8  C   UNL     1       3.400   5.400  17.699  0.00  0.00    +0.000 A 
ATOM      9  N   UNL     1       2.437   5.644  18.663  0.00  0.00    +0.000 N 
ENDROOT
BRANCH   1  10
ATOM     10  C   UNL     1       1.997   7.600  20.284  0.00  0.00    +0.000 C 
BRANCH  10  14
ATOM     11  C   UNL     1      -0.812  10.727  17.930  0.00  0.00    +0.000 C 
ATOM     12  C   UNL     1      -0.089  10.141  19.079  0.00  0.00    +0.000 A 
ATOM     13  N   UNL     1       0.838   9.192  18.888  0.00  0.00    +0.000 NA
ATOM     14  N   UNL     1       1.251   8.844  20.137  0.00  0.00    +0.000 N 
ATOM     15  C   UNL     1       0.592   9.563  21.106  0.00  0.00    +0.000 A 
ATOM     16  C   UNL     1      -0.277  10.404  20.451  0.00  0.00    +0.000 A 
ATOM     17  C   UNL     1      -1.256  11.291  21.142  0.00  0.00    +0.000 C 
ATOM     18  C   UNL     1      -0.979  11.361  22.654  0.00  0.00    +0.000 C 
ATOM     19  C   UNL     1      -0.576   9.994  23.239  0.00  0.00    +0.000 C 
ATOM     20  C   UNL     1       0.716   9.449  22.587  0.00  0.00    +0.000 C 
ENDBRANCH  10  14
ENDBRANCH   1  10
BRANCH   9  21
ATOM     21  C   UNL     1       1.544   4.621  19.188  0.00  0.00    +0.000 C 
BRANCH  21  22
ATOM     22  C   UNL     1       1.997   4.068  20.537  0.00  0.00    +0.000 C 
BRANCH  22  23
ATOM     23  C   UNL     1       1.946   2.543  20.611  0.00  0.00    +0.000 C 
BRANCH  23  24
ATOM     24  C   UNL     1       2.903   1.946  19.587  0.00  0.00    +0.000 C 
BRANCH  24  25
ATOM     25  O   UNL     1       2.179   1.313  18.544  0.00  0.00    +0.000 OA
ATOM     26  H   UNL     1       2.660   1.477  17.715  0.00  0.00    +0.000 HD
ENDBRANCH  24  25
ENDBRANCH  23  24
ENDBRANCH  22  23
ENDBRANCH  21  22
ENDBRANCH   9  21
TORSDOF 7
ENDMDL
MODEL 9
REMARK VINA RESULT:      -7.0      1.915      6.419
REMARK  Name = 
REMARK  8 active torsions:
REMARK  status: ('A' for Active; 'I' for Inactive)
REMARK    1  A    between atoms: C_1  and  C_2
REMARK    2  A    between atoms: N_4  and  C_5
REMARK    3  A    between atoms: C_5  and  C_6
REMARK    4  A    between atoms: N_14  and  C_15
REMARK    5  A    between atoms: C_15  and  C_16
REMARK    6  A    between atoms: C_16  and  C_17
REMARK    7  A    between atoms: C_17  and  C_18
REMARK    8  A    between atoms: C_18  and  O_19
REMARK                            x       y       z     vdW  Elec       q    Type
REMARK                         _______ _______ _______ _____ _____    ______ ____
ROOT
ATOM      1  C   UNL     1       2.846   6.670  18.665  0.00  0.00    +0.000 A 
ATOM      2  N   UNL     1       3.809   7.331  18.040  0.00  0.00    +0.000 NA
ATOM      3  C   UNL     1       4.419   6.430  17.207  0.00  0.00    +0.000 A 
ATOM      4  C   UNL     1       5.560   6.584  16.403  0.00  0.00    +0.000 A 
ATOM      5  C   UNL     1       6.052   5.477  15.700  0.00  0.00    +0.000 A 
ATOM      6  C   UNL     1       5.404   4.247  15.772  0.00  0.00    +0.000 A 
ATOM      7  C   UNL     1       4.240   4.088  16.531  0.00  0.00    +0.000 A 
ATOM      8  C   UNL     1       3.778   5.200  17.255  0.00  0.00    +0.000 A 
ATOM      9  N   UNL     1       2.725   5.394  18.133  0.00  0.00    +0.000 N 
ENDROOT
BRANCH   1  10
ATOM     10  C   UNL     1       2.213   7.168  19.932  0.00  0.00    +0.000 C 
BRANCH  10  14
ATOM     11  C   UNL     1      -0.571  10.470  17.797  0.00  0.00    +0.000 C 
ATOM     12  C   UNL     1       0.183   9.825  18.894  0.00  0.00    +0.000 A 
ATOM     13  N   UNL     1       1.056   8.842  18.634  0.00  0.00    +0.000 NA
ATOM     14  N   UNL     1       1.516   8.446  19.852  0.00  0.00    +0.000 N 
ATOM     15  C   UNL     1       0.940   9.168  20.870  0.00  0.00    +0.000 A 
ATOM     16  C   UNL     1       0.076  10.061  20.279  0.00  0.00    +0.000 A 
ATOM     17  C   UNL     1      -0.826  10.972  21.040  0.00  0.00    +0.000 C 
ATOM     18  C   UNL     1      -0.470  10.993  22.536  0.00  0.00    +0.000 C 
ATOM     19  C   UNL     1      -0.098   9.596  23.069  0.00  0.00    +0.000 C 
ATOM     20  C   UNL     1       1.134   9.012  22.339  0.00  0.00    +0.000 C 
ENDBRANCH  10  14
ENDBRANCH   1  10
BRANCH   9  21
ATOM     21  C   UNL     1       1.720   4.381  18.423  0.00  0.00    +0.000 C 
BRANCH  21  22
ATOM     22  C   UNL     1       2.326   3.029  18.795  0.00  0.00    +0.000 C 
BRANCH  22  23
ATOM     23  C   UNL     1       1.580   2.327  19.928  0.00  0.00    +0.000 C 
BRANCH  23  24
ATOM     24  C   UNL     1       1.439   3.273  21.115  0.00  0.00    +0.000 C 
BRANCH  24  25
ATOM     25  O   UNL     1       1.511   2.551  22.334  0.00  0.00    +0.000 OA
ATOM     26  H   UNL     1       1.790   1.645  22.119  0.00  0.00    +0.000 HD
ENDBRANCH  24  25
ENDBRANCH  23  24
ENDBRANCH  22  23
ENDBRANCH  21  22
ENDBRANCH   9  21
TORSDOF 7
ENDMDL
