MODEL 1
REMARK VINA RESULT:      -6.5      0.000      0.000
REMARK  Name = 
REMARK  3 active torsions:
REMARK  status: ('A' for Active; 'I' for Inactive)
REMARK    1  A    between atoms: C_4  and  C_5
REMARK    2  A    between atoms: N_13  and  C_14
REMARK    3  A    between atoms: C_18  and  O_19
REMARK                            x       y       z     vdW  Elec       q    Type
REMARK                         _______ _______ _______ _____ _____    ______ ____
ROOT
ATOM      1  O   UNL     1       2.131   9.281  17.194  0.00  0.00    +0.000 OA
ATOM      2  C   UNL     1       1.885   8.854  18.317  0.00  0.00    +0.000 C 
ATOM      3  C   UNL     1       2.395   7.540  18.804  0.00  0.00    +0.000 C 
ATOM      4  C   UNL     1       3.172   6.755  18.047  0.00  0.00    +0.000 C 
ATOM      5  S   UNL     1       1.843   7.240  20.405  0.00  0.00    +0.000 S 
ATOM      6  C   UNL     1       0.985   8.775  20.506  0.00  0.00    +0.000 C 
ATOM      7  S   UNL     1       0.072   9.157  21.855  0.00  0.00    +0.000 S 
ATOM      8  N   UNL     1       1.145   9.476  19.322  0.00  0.00    +0.000 N 
ENDROOT
BRANCH   8   9
ATOM      9  C   UNL     1       0.591  10.764  19.087  0.00  0.00    +0.000 A 
ATOM     10  C   UNL     1       1.296  11.915  19.463  0.00  0.00    +0.000 A 
ATOM     11  C   UNL     1       0.751  13.181  19.240  0.00  0.00    +0.000 A 
ATOM     12  C   UNL     1      -0.517  13.308  18.675  0.00  0.00    +0.000 A 
ATOM     13  C   UNL     1      -1.221  12.163  18.317  0.00  0.00    +0.000 A 
ATOM     14  C   UNL     1      -0.673  10.896  18.501  0.00  0.00    +0.000 A 
BRANCH  13  15
ATOM     15  O   UNL     1      -2.476  12.239  17.788  0.00  0.00    +0.000 OA
ATOM     16  H   UNL     1      -2.807  11.338  17.636  0.00  0.00    +0.000 HD
ENDBRANCH  13  15
ENDBRANCH   8   9
BRANCH   4  17
ATOM     17  C   UNL     1       3.612   5.468  18.465  0.00  0.00    +0.000 A 
ATOM     18  C   UNL     1       4.761   5.109  19.147  0.00  0.00    +0.000 A 
ATOM     19  C   UNL     1       4.858   3.701  19.363  0.00  0.00    +0.000 A 
ATOM     20  C   UNL     1       3.779   3.026  18.841  0.00  0.00    +0.000 A 
ATOM     21  S   UNL     1       2.662   4.082  18.096  0.00  0.00    +0.000 S 
ENDBRANCH   4  17
TORSDOF 3
ENDMDL
MODEL 2
REMARK VINA RESULT:      -6.2      1.096      1.536
REMARK  Name = 
REMARK  3 active torsions:
REMARK  status: ('A' for Active; 'I' for Inactive)
REMARK    1  A    between atoms: C_4  and  C_5
REMARK    2  A    between atoms: N_13  and  C_14
REMARK    3  A    between atoms: C_18  and  O_19
REMARK                            x       y       z     vdW  Elec       q    Type
REMARK                         _______ _______ _______ _____ _____    ______ ____
ROOT
ATOM      1  O   UNL     1       2.117   9.374  17.192  0.00  0.00    +0.000 OA
ATOM      2  C   UNL     1       1.874   8.950  18.317  0.00  0.00    +0.000 C 
ATOM      3  C   UNL     1       2.371   7.630  18.801  0.00  0.00    +0.000 C 
ATOM      4  C   UNL     1       3.134   6.836  18.039  0.00  0.00    +0.000 C 
ATOM      5  S   UNL     1       1.827   7.338  20.406  0.00  0.00    +0.000 S 
ATOM      6  C   UNL     1       0.988   8.883  20.512  0.00  0.00    +0.000 C 
ATOM      7  S   UNL     1       0.089   9.277  21.867  0.00  0.00    +0.000 S 
ATOM      8  N   UNL     1       1.148   9.582  19.327  0.00  0.00    +0.000 N 
ENDROOT
BRANCH   8   9
ATOM      9  C   UNL     1       0.607  10.876  19.095  0.00  0.00    +0.000 A 
ATOM     10  C   UNL     1      -0.684  11.017  18.570  0.00  0.00    +0.000 A 
ATOM     11  C   UNL     1      -1.215  12.287  18.334  0.00  0.00    +0.000 A 
ATOM     12  C   UNL     1      -0.448  13.424  18.583  0.00  0.00    +0.000 A 
ATOM     13  C   UNL     1       0.840  13.280  19.088  0.00  0.00    +0.000 A 
ATOM     14  C   UNL     1       1.367  12.021  19.363  0.00  0.00    +0.000 A 
BRANCH  13  15
ATOM     15  O   UNL     1       1.636  14.363  19.319  0.00  0.00    +0.000 OA
ATOM     16  H   UNL     1       2.272  14.445  18.589  0.00  0.00    +0.000 HD
ENDBRANCH  13  15
ENDBRANCH   8   9
BRANCH   4  17
ATOM     17  C   UNL     1       3.562   5.545  18.455  0.00  0.00    +0.000 A 
ATOM     18  C   UNL     1       4.711   5.173  19.129  0.00  0.00    +0.000 A 
ATOM     19  C   UNL     1       4.793   3.764  19.346  0.00  0.00    +0.000 A 
ATOM     20  C   UNL     1       3.703   3.100  18.831  0.00  0.00    +0.000 A 
ATOM     21  S   UNL     1       2.593   4.169  18.093  0.00  0.00    +0.000 S 
ENDBRANCH   4  17
TORSDOF 3
ENDMDL
MODEL 3
REMARK VINA RESULT:      -6.0      5.529      7.133
REMARK  Name = 
REMARK  3 active torsions:
REMARK  status: ('A' for Active; 'I' for Inactive)
REMARK    1  A    between atoms: C_4  and  C_5
REMARK    2  A    between atoms: N_13  and  C_14
REMARK    3  A    between atoms: C_18  and  O_19
REMARK                            x       y       z     vdW  Elec       q    Type
REMARK                         _______ _______ _______ _____ _____    ______ ____
ROOT
ATOM      1  O   UNL     1       4.435   2.548  17.397  0.00  0.00    +0.000 OA
ATOM      2  C   UNL     1       4.385   3.747  17.149  0.00  0.00    +0.000 C 
ATOM      3  C   UNL     1       5.118   4.361  16.005  0.00  0.00    +0.000 C 
ATOM      4  C   UNL     1       5.862   3.630  15.164  0.00  0.00    +0.000 C 
ATOM      5  S   UNL     1       4.850   6.059  15.963  0.00  0.00    +0.000 S 
ATOM      6  C   UNL     1       3.786   6.028  17.367  0.00  0.00    +0.000 C 
ATOM      7  S   UNL     1       3.168   7.447  18.002  0.00  0.00    +0.000 S 
ATOM      8  N   UNL     1       3.659   4.728  17.826  0.00  0.00    +0.000 N 
ENDROOT
BRANCH   8   9
ATOM      9  C   UNL     1       2.852   4.359  18.937  0.00  0.00    +0.000 A 
ATOM     10  C   UNL     1       3.263   4.669  20.240  0.00  0.00    +0.000 A 
ATOM     11  C   UNL     1       2.476   4.301  21.334  0.00  0.00    +0.000 A 
ATOM     12  C   UNL     1       1.294   3.587  21.139  0.00  0.00    +0.000 A 
ATOM     13  C   UNL     1       0.898   3.267  19.844  0.00  0.00    +0.000 A 
ATOM     14  C   UNL     1       1.655   3.661  18.743  0.00  0.00    +0.000 A 
BRANCH  13  15
ATOM     15  O   UNL     1      -0.235   2.545  19.608  0.00  0.00    +0.000 OA
ATOM     16  H   UNL     1       0.003   1.606  19.534  0.00  0.00    +0.000 HD
ENDBRANCH  13  15
ENDBRANCH   8   9
BRANCH   4  17
ATOM     17  C   UNL     1       6.623   4.203  14.109  0.00  0.00    +0.000 A 
ATOM     18  C   UNL     1       7.602   5.179  14.158  0.00  0.00    +0.000 A 
ATOM     19  C   UNL     1       8.121   5.508  12.870  0.00  0.00    +0.000 A 
ATOM     20  C   UNL     1       7.524   4.772  11.872  0.00  0.00    +0.000 A 
ATOM     21  S   UNL     1       6.348   3.696  12.487  0.00  0.00    +0.000 S 
ENDBRANCH   4  17
TORSDOF 3
ENDMDL
MODEL 4
REMARK VINA RESULT:      -5.9      5.850      7.545
REMARK  Name = 
REMARK  3 active torsions:
REMARK  status: ('A' for Active; 'I' for Inactive)
REMARK    1  A    between atoms: C_4  and  C_5
REMARK    2  A    between atoms: N_13  and  C_14
REMARK    3  A    between atoms: C_18  and  O_19
REMARK                            x       y       z     vdW  Elec       q    Type
REMARK                         _______ _______ _______ _____ _____    ______ ____
ROOT
ATOM      1  O   UNL     1       4.186   2.155  17.215  0.00  0.00    +0.000 OA
ATOM      2  C   UNL     1       4.220   3.377  17.118  0.00  0.00    +0.000 C 
ATOM      3  C   UNL     1       4.987   4.075  16.047  0.00  0.00    +0.000 C 
ATOM      4  C   UNL     1       5.669   3.405  15.110  0.00  0.00    +0.000 C 
ATOM      5  S   UNL     1       4.840   5.780  16.220  0.00  0.00    +0.000 S 
ATOM      6  C   UNL     1       3.787   5.649  17.626  0.00  0.00    +0.000 C 
ATOM      7  S   UNL     1       3.277   7.017  18.443  0.00  0.00    +0.000 S 
ATOM      8  N   UNL     1       3.571   4.314  17.923  0.00  0.00    +0.000 N 
ENDROOT
BRANCH   8   9
ATOM      9  C   UNL     1       2.749   3.866  18.993  0.00  0.00    +0.000 A 
ATOM     10  C   UNL     1       1.369   4.109  18.971  0.00  0.00    +0.000 A 
ATOM     11  C   UNL     1       0.560   3.677  20.025  0.00  0.00    +0.000 A 
ATOM     12  C   UNL     1       1.126   3.033  21.124  0.00  0.00    +0.000 A 
ATOM     13  C   UNL     1       2.498   2.807  21.149  0.00  0.00    +0.000 A 
ATOM     14  C   UNL     1       3.310   3.200  20.089  0.00  0.00    +0.000 A 
BRANCH  13  15
ATOM     15  O   UNL     1       3.098   2.207  22.217  0.00  0.00    +0.000 OA
ATOM     16  H   UNL     1       3.685   2.851  22.648  0.00  0.00    +0.000 HD
ENDBRANCH  13  15
ENDBRANCH   8   9
BRANCH   4  17
ATOM     17  C   UNL     1       6.462   4.050  14.121  0.00  0.00    +0.000 A 
ATOM     18  C   UNL     1       7.414   5.044  14.266  0.00  0.00    +0.000 A 
ATOM     19  C   UNL     1       7.980   5.452  13.020  0.00  0.00    +0.000 A 
ATOM     20  C   UNL     1       7.445   4.758  11.960  0.00  0.00    +0.000 A 
ATOM     21  S   UNL     1       6.270   3.625  12.465  0.00  0.00    +0.000 S 
ENDBRANCH   4  17
TORSDOF 3
ENDMDL
MODEL 5
REMARK VINA RESULT:      -5.8      2.948      7.904
REMARK  Name = 
REMARK  3 active torsions:
REMARK  status: ('A' for Active; 'I' for Inactive)
REMARK    1  A    between atoms: C_4  and  C_5
REMARK    2  A    between atoms: N_13  and  C_14
REMARK    3  A    between atoms: C_18  and  O_19
REMARK                            x       y       z     vdW  Elec       q    Type
REMARK                         _______ _______ _______ _____ _____    ______ ____
ROOT
ATOM      1  O   UNL     1       1.277   5.334  20.578  0.00  0.00    +0.000 OA
ATOM      2  C   UNL     1       1.919   6.011  19.782  0.00  0.00    +0.000 C 
ATOM      3  C   UNL     1       1.798   7.496  19.713  0.00  0.00    +0.000 C 
ATOM      4  C   UNL     1       0.993   8.182  20.534  0.00  0.00    +0.000 C 
ATOM      5  S   UNL     1       2.815   8.122  18.475  0.00  0.00    +0.000 S 
ATOM      6  C   UNL     1       3.434   6.532  18.039  0.00  0.00    +0.000 C 
ATOM      7  S   UNL     1       4.488   6.348  16.752  0.00  0.00    +0.000 S 
ATOM      8  N   UNL     1       2.857   5.568  18.849  0.00  0.00    +0.000 N 
ENDROOT
BRANCH   8   9
ATOM      9  C   UNL     1       3.159   4.182  18.765  0.00  0.00    +0.000 A 
ATOM     10  C   UNL     1       2.482   3.367  17.848  0.00  0.00    +0.000 A 
ATOM     11  C   UNL     1       2.771   2.003  17.769  0.00  0.00    +0.000 A 
ATOM     12  C   UNL     1       3.709   1.434  18.629  0.00  0.00    +0.000 A 
ATOM     13  C   UNL     1       4.368   2.244  19.549  0.00  0.00    +0.000 A 
ATOM     14  C   UNL     1       4.115   3.612  19.613  0.00  0.00    +0.000 A 
BRANCH  13  15
ATOM     15  O   UNL     1       5.272   1.725  20.429  0.00  0.00    +0.000 OA
ATOM     16  H   UNL     1       4.961   1.895  21.334  0.00  0.00    +0.000 HD
ENDBRANCH  13  15
ENDBRANCH   8   9
BRANCH   4  17
ATOM     17  C   UNL     1       0.811   9.589  20.441  0.00  0.00    +0.000 A 
ATOM     18  C   UNL     1       1.255  10.593  21.284  0.00  0.00    +0.000 A 
ATOM     19  C   UNL     1       0.844  11.893  20.860  0.00  0.00    +0.000 A 
ATOM     20  C   UNL     1       0.099  11.844  19.704  0.00  0.00    +0.000 A 
ATOM     21  S   UNL     1      -0.103  10.245  19.138  0.00  0.00    +0.000 S 
ENDBRANCH   4  17
TORSDOF 3
ENDMDL
MODEL 6
REMARK VINA RESULT:      -5.8      3.095      7.552
REMARK  Name = 
REMARK  3 active torsions:
REMARK  status: ('A' for Active; 'I' for Inactive)
REMARK    1  A    between atoms: C_4  and  C_5
REMARK    2  A    between atoms: N_13  and  C_14
REMARK    3  A    between atoms: C_18  and  O_19
REMARK                            x       y       z     vdW  Elec       q    Type
REMARK                         _______ _______ _______ _____ _____    ______ ____
ROOT
ATOM      1  O   UNL     1       3.876   7.789  17.460  0.00  0.00    +0.000 OA
ATOM      2  C   UNL     1       3.443   6.984  18.277  0.00  0.00    +0.000 C 
ATOM      3  C   UNL     1       2.434   7.356  19.311  0.00  0.00    +0.000 C 
ATOM      4  C   UNL     1       1.924   8.592  19.393  0.00  0.00    +0.000 C 
ATOM      5  S   UNL     1       2.068   6.001  20.305  0.00  0.00    +0.000 S 
ATOM      6  C   UNL     1       3.154   4.931  19.422  0.00  0.00    +0.000 C 
ATOM      7  S   UNL     1       3.392   3.353  19.923  0.00  0.00    +0.000 S 
ATOM      8  N   UNL     1       3.761   5.631  18.393  0.00  0.00    +0.000 N 
ENDROOT
BRANCH   8   9
ATOM      9  C   UNL     1       4.683   5.049  17.480  0.00  0.00    +0.000 A 
ATOM     10  C   UNL     1       4.240   4.573  16.239  0.00  0.00    +0.000 A 
ATOM     11  C   UNL     1       5.142   3.994  15.343  0.00  0.00    +0.000 A 
ATOM     12  C   UNL     1       6.484   3.853  15.693  0.00  0.00    +0.000 A 
ATOM     13  C   UNL     1       6.917   4.313  16.933  0.00  0.00    +0.000 A 
ATOM     14  C   UNL     1       6.035   4.925  17.820  0.00  0.00    +0.000 A 
BRANCH  13  15
ATOM     15  O   UNL     1       8.214   4.169  17.328  0.00  0.00    +0.000 OA
ATOM     16  H   UNL     1       8.237   4.069  18.295  0.00  0.00    +0.000 HD
ENDBRANCH  13  15
ENDBRANCH   8   9
BRANCH   4  17
ATOM     17  C   UNL     1       1.014   8.986  20.412  0.00  0.00    +0.000 A 
ATOM     18  C   UNL     1       0.974   8.623  21.747  0.00  0.00    +0.000 A 
ATOM     19  C   UNL     1      -0.118   9.216  22.449  0.00  0.00    +0.000 A 
ATOM     20  C   UNL     1      -0.882  10.016  21.630  0.00  0.00    +0.000 A 
ATOM     21  S   UNL     1      -0.285  10.048  20.029  0.00  0.00    +0.000 S 
ENDBRANCH   4  17
TORSDOF 3
ENDMDL
MODEL 7
REMARK VINA RESULT:      -5.7      3.162      7.991
REMARK  Name = 
REMARK  3 active torsions:
REMARK  status: ('A' for Active; 'I' for Inactive)
REMARK    1  A    between atoms: C_4  and  C_5
REMARK    2  A    between atoms: N_13  and  C_14
REMARK    3  A    between atoms: C_18  and  O_19
REMARK                            x       y       z     vdW  Elec       q    Type
REMARK                         _______ _______ _______ _____ _____    ______ ____
ROOT
ATOM      1  O   UNL     1       0.954   4.784  20.889  0.00  0.00    +0.000 OA
ATOM      2  C   UNL     1       1.549   5.627  20.227  0.00  0.00    +0.000 C 
ATOM      3  C   UNL     1       1.306   7.090  20.388  0.00  0.00    +0.000 C 
ATOM      4  C   UNL     1       0.435   7.571  21.284  0.00  0.00    +0.000 C 
ATOM      5  S   UNL     1       2.284   7.983  19.290  0.00  0.00    +0.000 S 
ATOM      6  C   UNL     1       3.040   6.537  18.628  0.00  0.00    +0.000 C 
ATOM      7  S   UNL     1       4.123   6.643  17.357  0.00  0.00    +0.000 S 
ATOM      8  N   UNL     1       2.534   5.414  19.262  0.00  0.00    +0.000 N 
ENDROOT
BRANCH   8   9
ATOM      9  C   UNL     1       2.951   4.087  18.971  0.00  0.00    +0.000 A 
ATOM     10  C   UNL     1       2.338   3.366  17.938  0.00  0.00    +0.000 A 
ATOM     11  C   UNL     1       2.741   2.059  17.654  0.00  0.00    +0.000 A 
ATOM     12  C   UNL     1       3.731   1.449  18.422  0.00  0.00    +0.000 A 
ATOM     13  C   UNL     1       4.327   2.162  19.457  0.00  0.00    +0.000 A 
ATOM     14  C   UNL     1       3.959   3.479  19.727  0.00  0.00    +0.000 A 
BRANCH  13  15
ATOM     15  O   UNL     1       5.279   1.596  20.253  0.00  0.00    +0.000 OA
ATOM     16  H   UNL     1       6.054   1.380  19.708  0.00  0.00    +0.000 HD
ENDBRANCH  13  15
ENDBRANCH   8   9
BRANCH   4  17
ATOM     17  C   UNL     1       0.138   8.957  21.406  0.00  0.00    +0.000 A 
ATOM     18  C   UNL     1       0.030   9.924  20.423  0.00  0.00    +0.000 A 
ATOM     19  C   UNL     1      -0.260  11.219  20.952  0.00  0.00    +0.000 A 
ATOM     20  C   UNL     1      -0.366  11.202  22.324  0.00  0.00    +0.000 A 
ATOM     21  S   UNL     1      -0.117   9.638  22.966  0.00  0.00    +0.000 S 
ENDBRANCH   4  17
TORSDOF 3
ENDMDL
MODEL 8
REMARK VINA RESULT:      -5.7      2.379      7.349
REMARK  Name = 
REMARK  3 active torsions:
REMARK  status: ('A' for Active; 'I' for Inactive)
REMARK    1  A    between atoms: C_4  and  C_5
REMARK    2  A    between atoms: N_13  and  C_14
REMARK    3  A    between atoms: C_18  and  O_19
REMARK                            x       y       z     vdW  Elec       q    Type
REMARK                         _______ _______ _______ _____ _____    ______ ____
ROOT
ATOM      1  O   UNL     1       3.063   8.140  17.281  0.00  0.00    +0.000 OA
ATOM      2  C   UNL     1       2.577   7.757  18.339  0.00  0.00    +0.000 C 
ATOM      3  C   UNL     1       1.710   8.627  19.185  0.00  0.00    +0.000 C 
ATOM      4  C   UNL     1       1.394   9.878  18.826  0.00  0.00    +0.000 C 
ATOM      5  S   UNL     1       1.223   7.788  20.604  0.00  0.00    +0.000 S 
ATOM      6  C   UNL     1       2.074   6.315  20.149  0.00  0.00    +0.000 C 
ATOM      7  S   UNL     1       2.115   4.997  21.179  0.00  0.00    +0.000 S 
ATOM      8  N   UNL     1       2.701   6.498  18.928  0.00  0.00    +0.000 N 
ENDROOT
BRANCH   8   9
ATOM      9  C   UNL     1       3.460   5.491  18.270  0.00  0.00    +0.000 A 
ATOM     10  C   UNL     1       2.825   4.565  17.432  0.00  0.00    +0.000 A 
ATOM     11  C   UNL     1       3.567   3.570  16.791  0.00  0.00    +0.000 A 
ATOM     12  C   UNL     1       4.940   3.468  17.011  0.00  0.00    +0.000 A 
ATOM     13  C   UNL     1       5.564   4.379  17.857  0.00  0.00    +0.000 A 
ATOM     14  C   UNL     1       4.842   5.398  18.473  0.00  0.00    +0.000 A 
BRANCH  13  15
ATOM     15  O   UNL     1       6.899   4.299  18.123  0.00  0.00    +0.000 OA
ATOM     16  H   UNL     1       7.141   5.021  18.728  0.00  0.00    +0.000 HD
ENDBRANCH  13  15
ENDBRANCH   8   9
BRANCH   4  17
ATOM     17  C   UNL     1       0.627  10.748  19.649  0.00  0.00    +0.000 A 
ATOM     18  C   UNL     1       1.032  11.548  20.703  0.00  0.00    +0.000 A 
ATOM     19  C   UNL     1      -0.050  12.264  21.300  0.00  0.00    +0.000 A 
ATOM     20  C   UNL     1      -1.249  11.991  20.684  0.00  0.00    +0.000 A 
ATOM     21  S   UNL     1      -1.071  10.880  19.399  0.00  0.00    +0.000 S 
ENDBRANCH   4  17
TORSDOF 3
ENDMDL
MODEL 9
REMARK VINA RESULT:      -5.7      2.832      3.733
REMARK  Name = 
REMARK  3 active torsions:
REMARK  status: ('A' for Active; 'I' for Inactive)
REMARK    1  A    between atoms: C_4  and  C_5
REMARK    2  A    between atoms: N_13  and  C_14
REMARK    3  A    between atoms: C_18  and  O_19
REMARK                            x       y       z     vdW  Elec       q    Type
REMARK                         _______ _______ _______ _____ _____    ______ ____
ROOT
ATOM      1  O   UNL     1       2.908   9.112  17.617  0.00  0.00    +0.000 OA
ATOM      2  C   UNL     1       2.939   8.002  18.137  0.00  0.00    +0.000 C 
ATOM      3  C   UNL     1       3.806   6.901  17.627  0.00  0.00    +0.000 C 
ATOM      4  C   UNL     1       4.622   7.068  16.578  0.00  0.00    +0.000 C 
ATOM      5  S   UNL     1       3.585   5.480  18.570  0.00  0.00    +0.000 S 
ATOM      6  C   UNL     1       2.420   6.249  19.643  0.00  0.00    +0.000 C 
ATOM      7  S   UNL     1       1.656   5.373  20.846  0.00  0.00    +0.000 S 
ATOM      8  N   UNL     1       2.234   7.567  19.260  0.00  0.00    +0.000 N 
ENDROOT
BRANCH   8   9
ATOM      9  C   UNL     1       1.367   8.470  19.934  0.00  0.00    +0.000 A 
ATOM     10  C   UNL     1       0.443   9.235  19.210  0.00  0.00    +0.000 A 
ATOM     11  C   UNL     1      -0.404  10.128  19.869  0.00  0.00    +0.000 A 
ATOM     12  C   UNL     1      -0.310  10.294  21.250  0.00  0.00    +0.000 A 
ATOM     13  C   UNL     1       0.620   9.545  21.964  0.00  0.00    +0.000 A 
ATOM     14  C   UNL     1       1.445   8.624  21.323  0.00  0.00    +0.000 A 
BRANCH  13  15
ATOM     15  O   UNL     1       0.766   9.696  23.312  0.00  0.00    +0.000 OA
ATOM     16  H   UNL     1       1.106  10.589  23.491  0.00  0.00    +0.000 HD
ENDBRANCH  13  15
ENDBRANCH   8   9
BRANCH   4  17
ATOM     17  C   UNL     1       5.405   6.014  16.033  0.00  0.00    +0.000 A 
ATOM     18  C   UNL     1       5.132   5.173  14.969  0.00  0.00    +0.000 A 
ATOM     19  C   UNL     1       6.167   4.215  14.742  0.00  0.00    +0.000 A 
ATOM     20  C   UNL     1       7.201   4.353  15.639  0.00  0.00    +0.000 A 
ATOM     21  S   UNL     1       6.924   5.626  16.744  0.00  0.00    +0.000 S 
ENDBRANCH   4  17
TORSDOF 3
ENDMDL
