MODEL 1
REMARK VINA RESULT:      -8.9      0.000      0.000
REMARK  Name = 
REMARK  10 active torsions:
REMARK  status: ('A' for Active; 'I' for Inactive)
REMARK    1  A    between atoms: C_1  and  O_2
REMARK    2  A    between atoms: O_2  and  C_3
REMARK    3  A    between atoms: C_9  and  C_10
REMARK    4  A    between atoms: C_16  and  C_17
REMARK    5  A    between atoms: N_24  and  C_25
REMARK    6  A    between atoms: C_25  and  C_26
REMARK    7  A    between atoms: N_28  and  C_29
REMARK    8  A    between atoms: N_28  and  C_30
REMARK    9  A    between atoms: C_30  and  C_31
REMARK   10  A    between atoms: C_31  and  O_32
REMARK                            x       y       z     vdW  Elec       q    Type
REMARK                         _______ _______ _______ _____ _____    ______ ____
ROOT
ATOM      1  C   UNL     1       4.438   4.436  18.003  0.00  0.00    +0.000 A 
ATOM      2  C   UNL     1       4.457   3.291  18.824  0.00  0.00    +0.000 A 
ATOM      3  C   UNL     1       3.632   3.222  19.936  0.00  0.00    +0.000 A 
ATOM      4  N   UNL     1       2.803   4.194  20.382  0.00  0.00    +0.000 NA
ATOM      5  C   UNL     1       2.844   5.296  19.600  0.00  0.00    +0.000 A 
ATOM      6  N   UNL     1       2.100   6.436  19.848  0.00  0.00    +0.000 N 
ATOM      7  C   UNL     1       2.332   7.382  18.878  0.00  0.00    +0.000 A 
ATOM      8  C   UNL     1       3.170   6.784  17.945  0.00  0.00    +0.000 A 
ATOM      9  C   UNL     1       3.546   5.474  18.423  0.00  0.00    +0.000 A 
ATOM     10  H   UNL     1       1.528   6.534  20.668  0.00  0.00    +0.000 HD
ENDROOT
BRANCH   7  11
ATOM     11  C   UNL     1       1.827   8.706  19.081  0.00  0.00    +0.000 C 
ATOM     12  C   UNL     1       1.053   8.988  20.182  0.00  0.00    +0.000 C 
ATOM     13  C   UNL     1       0.223  10.310  20.354  0.00  0.00    +0.000 C 
ATOM     14  C   UNL     1       0.723  11.801  20.729  0.00  0.00    +0.000 C 
ATOM     15  C   UNL     1       1.545  12.318  19.519  0.00  0.00    +0.000 C 
ATOM     16  C   UNL     1       1.299  11.157  18.556  0.00  0.00    +0.000 C 
ATOM     17  C   UNL     1       2.079   9.885  18.051  0.00  0.00    +0.000 C 
ATOM     18  N   UNL     1      -0.066  10.617  18.934  0.00  0.00    +0.000 NA
BRANCH  18  19
ATOM     19  C   UNL     1      -1.434  11.184  18.928  0.00  0.00    +0.000 C 
BRANCH  19  20
ATOM     20  C   UNL     1      -2.623  10.651  18.145  0.00  0.00    +0.000 C 
ATOM     21  O   UNL     1      -2.502   9.804  17.262  0.00  0.00    +0.000 OA
ATOM     22  N   UNL     1      -3.840  11.363  18.329  0.00  0.00    +0.000 N 
ATOM     23  C   UNL     1      -4.158  12.315  19.402  0.00  0.00    +0.000 C 
BRANCH  22  24
ATOM     24  C   UNL     1      -4.924  11.179  17.355  0.00  0.00    +0.000 C 
BRANCH  24  25
ATOM     25  C   UNL     1      -6.317  11.227  17.976  0.00  0.00    +0.000 C 
BRANCH  25  26
ATOM     26  O   UNL     1      -7.144  12.179  17.310  0.00  0.00    +0.000 OA
ATOM     27  H   UNL     1      -6.668  12.413  16.493  0.00  0.00    +0.000 HD
ENDBRANCH  25  26
ENDBRANCH  24  25
ENDBRANCH  22  24
ENDBRANCH  19  20
ENDBRANCH  18  19
ENDBRANCH   7  11
BRANCH   1  34
ATOM     28  C   UNL     1       6.666   5.024  16.862  0.00  0.00    +0.000 A 
ATOM     29  C   UNL     1       7.463   5.049  15.701  0.00  0.00    +0.000 A 
ATOM     30  C   UNL     1       6.935   4.655  14.474  0.00  0.00    +0.000 A 
ATOM     31  C   UNL     1       5.609   4.268  14.402  0.00  0.00    +0.000 A 
ATOM     32  F   UNL     1       5.094   3.889  13.225  0.00  0.00    +0.000 F 
ATOM     33  C   UNL     1       4.809   4.246  15.538  0.00  0.00    +0.000 A 
ATOM     34  C   UNL     1       5.318   4.567  16.813  0.00  0.00    +0.000 A 
BRANCH  28  36
ATOM     35  C   UNL     1       7.732   6.676  18.201  0.00  0.00    +0.000 C 
ATOM     36  O   UNL     1       7.178   5.368  18.090  0.00  0.00    +0.000 OA
ENDBRANCH  28  36
ENDBRANCH   1  34
TORSDOF 8
ENDMDL
MODEL 2
REMARK VINA RESULT:      -8.5      1.100      1.222
REMARK  Name = 
REMARK  10 active torsions:
REMARK  status: ('A' for Active; 'I' for Inactive)
REMARK    1  A    between atoms: C_1  and  O_2
REMARK    2  A    between atoms: O_2  and  C_3
REMARK    3  A    between atoms: C_9  and  C_10
REMARK    4  A    between atoms: C_16  and  C_17
REMARK    5  A    between atoms: N_24  and  C_25
REMARK    6  A    between atoms: C_25  and  C_26
REMARK    7  A    between atoms: N_28  and  C_29
REMARK    8  A    between atoms: N_28  and  C_30
REMARK    9  A    between atoms: C_30  and  C_31
REMARK   10  A    between atoms: C_31  and  O_32
REMARK                            x       y       z     vdW  Elec       q    Type
REMARK                         _______ _______ _______ _____ _____    ______ ____
ROOT
ATOM      1  C   UNL     1       4.159   4.287  18.690  0.00  0.00    +0.000 A 
ATOM      2  C   UNL     1       4.073   3.140  19.505  0.00  0.00    +0.000 A 
ATOM      3  C   UNL     1       3.170   3.103  20.556  0.00  0.00    +0.000 A 
ATOM      4  N   UNL     1       2.354   4.108  20.948  0.00  0.00    +0.000 NA
ATOM      5  C   UNL     1       2.494   5.208  20.176  0.00  0.00    +0.000 A 
ATOM      6  N   UNL     1       1.783   6.378  20.378  0.00  0.00    +0.000 N 
ATOM      7  C   UNL     1       2.121   7.316  19.431  0.00  0.00    +0.000 A 
ATOM      8  C   UNL     1       2.997   6.685  18.556  0.00  0.00    +0.000 A 
ATOM      9  C   UNL     1       3.284   5.360  19.053  0.00  0.00    +0.000 A 
ATOM     10  H   UNL     1       1.160   6.498  21.156  0.00  0.00    +0.000 HD
ENDROOT
BRANCH   7  11
ATOM     11  C   UNL     1       1.659   8.659  19.606  0.00  0.00    +0.000 C 
ATOM     12  C   UNL     1       1.299   9.108  20.854  0.00  0.00    +0.000 C 
ATOM     13  C   UNL     1       0.521  10.447  21.112  0.00  0.00    +0.000 C 
ATOM     14  C   UNL     1       1.052  11.974  21.074  0.00  0.00    +0.000 C 
ATOM     15  C   UNL     1       1.384  12.298  19.593  0.00  0.00    +0.000 C 
ATOM     16  C   UNL     1       0.873  11.008  18.952  0.00  0.00    +0.000 C 
ATOM     17  C   UNL     1       1.488   9.669  18.395  0.00  0.00    +0.000 C 
ATOM     18  N   UNL     1      -0.253  10.542  19.853  0.00  0.00    +0.000 NA
BRANCH  18  19
ATOM     19  C   UNL     1      -1.563  11.111  20.241  0.00  0.00    +0.000 C 
BRANCH  19  20
ATOM     20  C   UNL     1      -2.485  11.931  19.353  0.00  0.00    +0.000 C 
ATOM     21  O   UNL     1      -2.732  13.115  19.578  0.00  0.00    +0.000 OA
ATOM     22  N   UNL     1      -3.227  11.187  18.395  0.00  0.00    +0.000 N 
ATOM     23  C   UNL     1      -2.973   9.810  17.950  0.00  0.00    +0.000 C 
BRANCH  22  24
ATOM     24  C   UNL     1      -4.399  11.810  17.766  0.00  0.00    +0.000 C 
BRANCH  24  25
ATOM     25  C   UNL     1      -5.676  11.677  18.590  0.00  0.00    +0.000 C 
BRANCH  25  26
ATOM     26  O   UNL     1      -6.733  11.115  17.813  0.00  0.00    +0.000 OA
ATOM     27  H   UNL     1      -7.311  11.863  17.578  0.00  0.00    +0.000 HD
ENDBRANCH  25  26
ENDBRANCH  24  25
ENDBRANCH  22  24
ENDBRANCH  19  20
ENDBRANCH  18  19
ENDBRANCH   7  11
BRANCH   1  34
ATOM     28  C   UNL     1       6.516   4.648  17.726  0.00  0.00    +0.000 A 
ATOM     29  C   UNL     1       7.383   4.648  16.616  0.00  0.00    +0.000 A 
ATOM     30  C   UNL     1       6.890   4.421  15.334  0.00  0.00    +0.000 A 
ATOM     31  C   UNL     1       5.532   4.226  15.158  0.00  0.00    +0.000 A 
ATOM     32  F   UNL     1       5.049   4.007  13.927  0.00  0.00    +0.000 F 
ATOM     33  C   UNL     1       4.663   4.229  16.242  0.00  0.00    +0.000 A 
ATOM     34  C   UNL     1       5.125   4.383  17.565  0.00  0.00    +0.000 A 
BRANCH  28  36
ATOM     35  C   UNL     1       8.026   5.788  19.166  0.00  0.00    +0.000 C 
ATOM     36  O   UNL     1       6.986   4.828  19.004  0.00  0.00    +0.000 OA
ENDBRANCH  28  36
ENDBRANCH   1  34
TORSDOF 8
ENDMDL
MODEL 3
REMARK VINA RESULT:      -8.5      2.888      4.256
REMARK  Name = 
REMARK  10 active torsions:
REMARK  status: ('A' for Active; 'I' for Inactive)
REMARK    1  A    between atoms: C_1  and  O_2
REMARK    2  A    between atoms: O_2  and  C_3
REMARK    3  A    between atoms: C_9  and  C_10
REMARK    4  A    between atoms: C_16  and  C_17
REMARK    5  A    between atoms: N_24  and  C_25
REMARK    6  A    between atoms: C_25  and  C_26
REMARK    7  A    between atoms: N_28  and  C_29
REMARK    8  A    between atoms: N_28  and  C_30
REMARK    9  A    between atoms: C_30  and  C_31
REMARK   10  A    between atoms: C_31  and  O_32
REMARK                            x       y       z     vdW  Elec       q    Type
REMARK                         _______ _______ _______ _____ _____    ______ ____
ROOT
ATOM      1  C   UNL     1       4.063   4.437  18.903  0.00  0.00    +0.000 A 
ATOM      2  C   UNL     1       4.082   3.201  19.580  0.00  0.00    +0.000 A 
ATOM      3  C   UNL     1       3.210   2.974  20.633  0.00  0.00    +0.000 A 
ATOM      4  N   UNL     1       2.330   3.861  21.151  0.00  0.00    +0.000 NA
ATOM      5  C   UNL     1       2.369   5.051  20.510  0.00  0.00    +0.000 A 
ATOM      6  N   UNL     1       1.577   6.131  20.858  0.00  0.00    +0.000 N 
ATOM      7  C   UNL     1       1.821   7.194  20.022  0.00  0.00    +0.000 A 
ATOM      8  C   UNL     1       2.722   6.738  19.066  0.00  0.00    +0.000 A 
ATOM      9  C   UNL     1       3.118   5.390  19.401  0.00  0.00    +0.000 A 
ATOM     10  H   UNL     1       0.966   6.112  21.653  0.00  0.00    +0.000 HD
ENDROOT
BRANCH   7  11
ATOM     11  C   UNL     1       1.264   8.469  20.358  0.00  0.00    +0.000 C 
ATOM     12  C   UNL     1       0.742   9.274  19.374  0.00  0.00    +0.000 C 
ATOM     13  C   UNL     1       0.372  10.786  19.583  0.00  0.00    +0.000 C 
ATOM     14  C   UNL     1      -0.897  11.443  20.340  0.00  0.00    +0.000 C 
ATOM     15  C   UNL     1      -0.726  11.138  21.852  0.00  0.00    +0.000 C 
ATOM     16  C   UNL     1       0.659  10.494  21.806  0.00  0.00    +0.000 C 
ATOM     17  C   UNL     1       1.262   9.039  21.838  0.00  0.00    +0.000 C 
ATOM     18  N   UNL     1       1.356  11.148  20.629  0.00  0.00    +0.000 NA
BRANCH  18  19
ATOM     19  C   UNL     1       1.764  12.537  20.318  0.00  0.00    +0.000 C 
BRANCH  19  20
ATOM     20  C   UNL     1       2.252  13.050  18.973  0.00  0.00    +0.000 C 
ATOM     21  O   UNL     1       2.788  12.315  18.145  0.00  0.00    +0.000 OA
ATOM     22  N   UNL     1       2.269  14.465  18.832  0.00  0.00    +0.000 N 
ATOM     23  C   UNL     1       1.583  15.450  19.678  0.00  0.00    +0.000 C 
BRANCH  22  24
ATOM     24  C   UNL     1       3.063  15.060  17.749  0.00  0.00    +0.000 C 
BRANCH  24  25
ATOM     25  C   UNL     1       4.530  15.268  18.110  0.00  0.00    +0.000 C 
BRANCH  25  26
ATOM     26  O   UNL     1       5.326  14.161  17.689  0.00  0.00    +0.000 OA
ATOM     27  H   UNL     1       5.111  14.029  16.748  0.00  0.00    +0.000 HD
ENDBRANCH  25  26
ENDBRANCH  24  25
ENDBRANCH  22  24
ENDBRANCH  19  20
ENDBRANCH  18  19
ENDBRANCH   7  11
BRANCH   1  34
ATOM     28  C   UNL     1       6.256   5.374  17.941  0.00  0.00    +0.000 A 
ATOM     29  C   UNL     1       7.116   5.555  16.840  0.00  0.00    +0.000 A 
ATOM     30  C   UNL     1       6.731   5.141  15.568  0.00  0.00    +0.000 A 
ATOM     31  C   UNL     1       5.480   4.578  15.390  0.00  0.00    +0.000 A 
ATOM     32  F   UNL     1       5.102   4.179  14.168  0.00  0.00    +0.000 F 
ATOM     33  C   UNL     1       4.618   4.399  16.466  0.00  0.00    +0.000 A 
ATOM     34  C   UNL     1       4.992   4.736  17.783  0.00  0.00    +0.000 A 
BRANCH  28  36
ATOM     35  C   UNL     1       8.032   5.764  19.474  0.00  0.00    +0.000 C 
ATOM     36  O   UNL     1       6.632   5.736  19.211  0.00  0.00    +0.000 OA
ENDBRANCH  28  36
ENDBRANCH   1  34
TORSDOF 8
ENDMDL
MODEL 4
REMARK VINA RESULT:      -8.3      3.007      4.703
REMARK  Name = 
REMARK  10 active torsions:
REMARK  status: ('A' for Active; 'I' for Inactive)
REMARK    1  A    between atoms: C_1  and  O_2
REMARK    2  A    between atoms: O_2  and  C_3
REMARK    3  A    between atoms: C_9  and  C_10
REMARK    4  A    between atoms: C_16  and  C_17
REMARK    5  A    between atoms: N_24  and  C_25
REMARK    6  A    between atoms: C_25  and  C_26
REMARK    7  A    between atoms: N_28  and  C_29
REMARK    8  A    between atoms: N_28  and  C_30
REMARK    9  A    between atoms: C_30  and  C_31
REMARK   10  A    between atoms: C_31  and  O_32
REMARK                            x       y       z     vdW  Elec       q    Type
REMARK                         _______ _______ _______ _____ _____    ______ ____
ROOT
ATOM      1  C   UNL     1       4.044   4.278  19.064  0.00  0.00    +0.000 A 
ATOM      2  C   UNL     1       4.003   3.102  19.839  0.00  0.00    +0.000 A 
ATOM      3  C   UNL     1       3.089   2.987  20.875  0.00  0.00    +0.000 A 
ATOM      4  N   UNL     1       2.220   3.938  21.288  0.00  0.00    +0.000 NA
ATOM      5  C   UNL     1       2.317   5.069  20.554  0.00  0.00    +0.000 A 
ATOM      6  N   UNL     1       1.547   6.196  20.784  0.00  0.00    +0.000 N 
ATOM      7  C   UNL     1       1.852   7.179  19.874  0.00  0.00    +0.000 A 
ATOM      8  C   UNL     1       2.770   6.621  18.991  0.00  0.00    +0.000 A 
ATOM      9  C   UNL     1       3.113   5.295  19.448  0.00  0.00    +0.000 A 
ATOM     10  H   UNL     1       0.909   6.260  21.556  0.00  0.00    +0.000 HD
ENDROOT
BRANCH   7  11
ATOM     11  C   UNL     1       1.323   8.493  20.085  0.00  0.00    +0.000 C 
ATOM     12  C   UNL     1       0.790   9.198  19.033  0.00  0.00    +0.000 C 
ATOM     13  C   UNL     1       0.449  10.730  19.089  0.00  0.00    +0.000 C 
ATOM     14  C   UNL     1      -0.790  11.486  19.800  0.00  0.00    +0.000 C 
ATOM     15  C   UNL     1      -0.587  11.340  21.332  0.00  0.00    +0.000 C 
ATOM     16  C   UNL     1       0.786  10.670  21.323  0.00  0.00    +0.000 C 
ATOM     17  C   UNL     1       1.366   9.216  21.495  0.00  0.00    +0.000 C 
ATOM     18  N   UNL     1       1.464  11.183  20.068  0.00  0.00    +0.000 NA
BRANCH  18  19
ATOM     19  C   UNL     1       1.886  12.524  19.601  0.00  0.00    +0.000 C 
BRANCH  19  20
ATOM     20  C   UNL     1       2.507  13.617  20.454  0.00  0.00    +0.000 C 
ATOM     21  O   UNL     1       2.253  13.741  21.651  0.00  0.00    +0.000 OA
ATOM     22  N   UNL     1       3.204  14.627  19.735  0.00  0.00    +0.000 N 
ATOM     23  C   UNL     1       3.666  14.567  18.342  0.00  0.00    +0.000 C 
BRANCH  22  24
ATOM     24  C   UNL     1       3.502  15.898  20.407  0.00  0.00    +0.000 C 
BRANCH  24  25
ATOM     25  C   UNL     1       4.922  16.400  20.163  0.00  0.00    +0.000 C 
BRANCH  25  26
ATOM     26  O   UNL     1       4.921  17.763  19.742  0.00  0.00    +0.000 OA
ATOM     27  H   UNL     1       5.859  18.006  19.643  0.00  0.00    +0.000 HD
ENDBRANCH  25  26
ENDBRANCH  24  25
ENDBRANCH  22  24
ENDBRANCH  19  20
ENDBRANCH  18  19
ENDBRANCH   7  11
BRANCH   1  34
ATOM     28  C   UNL     1       6.384   4.819  18.145  0.00  0.00    +0.000 A 
ATOM     29  C   UNL     1       7.268   4.896  17.051  0.00  0.00    +0.000 A 
ATOM     30  C   UNL     1       6.813   4.651  15.758  0.00  0.00    +0.000 A 
ATOM     31  C   UNL     1       5.476   4.361  15.556  0.00  0.00    +0.000 A 
ATOM     32  F   UNL     1       5.031   4.126  14.314  0.00  0.00    +0.000 F 
ATOM     33  C   UNL     1       4.591   4.288  16.625  0.00  0.00    +0.000 A 
ATOM     34  C   UNL     1       5.019   4.458  17.957  0.00  0.00    +0.000 A 
BRANCH  28  36
ATOM     35  C   UNL     1       8.020   5.767  19.588  0.00  0.00    +0.000 C 
ATOM     36  O   UNL     1       6.820   5.016  19.433  0.00  0.00    +0.000 OA
ENDBRANCH  28  36
ENDBRANCH   1  34
TORSDOF 8
ENDMDL
MODEL 5
REMARK VINA RESULT:      -8.3      2.848      3.753
REMARK  Name = 
REMARK  10 active torsions:
REMARK  status: ('A' for Active; 'I' for Inactive)
REMARK    1  A    between atoms: C_1  and  O_2
REMARK    2  A    between atoms: O_2  and  C_3
REMARK    3  A    between atoms: C_9  and  C_10
REMARK    4  A    between atoms: C_16  and  C_17
REMARK    5  A    between atoms: N_24  and  C_25
REMARK    6  A    between atoms: C_25  and  C_26
REMARK    7  A    between atoms: N_28  and  C_29
REMARK    8  A    between atoms: N_28  and  C_30
REMARK    9  A    between atoms: C_30  and  C_31
REMARK   10  A    between atoms: C_31  and  O_32
REMARK                            x       y       z     vdW  Elec       q    Type
REMARK                         _______ _______ _______ _____ _____    ______ ____
ROOT
ATOM      1  C   UNL     1       4.208   4.252  18.799  0.00  0.00    +0.000 A 
ATOM      2  C   UNL     1       4.215   3.094  19.602  0.00  0.00    +0.000 A 
ATOM      3  C   UNL     1       3.333   2.984  20.666  0.00  0.00    +0.000 A 
ATOM      4  N   UNL     1       2.454   3.925  21.080  0.00  0.00    +0.000 NA
ATOM      5  C   UNL     1       2.505   5.040  20.317  0.00  0.00    +0.000 A 
ATOM      6  N   UNL     1       1.717   6.155  20.542  0.00  0.00    +0.000 N 
ATOM      7  C   UNL     1       1.974   7.123  19.600  0.00  0.00    +0.000 A 
ATOM      8  C   UNL     1       2.879   6.564  18.706  0.00  0.00    +0.000 A 
ATOM      9  C   UNL     1       3.265   5.257  19.185  0.00  0.00    +0.000 A 
ATOM     10  H   UNL     1       1.099   6.224  21.330  0.00  0.00    +0.000 HD
ENDROOT
BRANCH   7  11
ATOM     11  C   UNL     1       1.421   8.429  19.795  0.00  0.00    +0.000 C 
ATOM     12  C   UNL     1       1.083   9.203  18.711  0.00  0.00    +0.000 C 
ATOM     13  C   UNL     1       0.743  10.734  18.800  0.00  0.00    +0.000 C 
ATOM     14  C   UNL     1      -0.599  11.464  19.329  0.00  0.00    +0.000 C 
ATOM     15  C   UNL     1      -0.667  11.225  20.861  0.00  0.00    +0.000 C 
ATOM     16  C   UNL     1       0.684  10.537  21.051  0.00  0.00    +0.000 C 
ATOM     17  C   UNL     1       1.219   9.067  21.233  0.00  0.00    +0.000 C 
ATOM     18  N   UNL     1       1.573  11.114  19.966  0.00  0.00    +0.000 NA
BRANCH  18  19
ATOM     19  C   UNL     1       2.075  12.473  19.663  0.00  0.00    +0.000 C 
BRANCH  19  20
ATOM     20  C   UNL     1       2.280  13.599  20.662  0.00  0.00    +0.000 C 
ATOM     21  O   UNL     1       3.078  13.513  21.594  0.00  0.00    +0.000 OA
ATOM     22  N   UNL     1       1.325  14.651  20.596  0.00  0.00    +0.000 N 
ATOM     23  C   UNL     1       0.392  14.937  19.498  0.00  0.00    +0.000 C 
BRANCH  22  24
ATOM     24  C   UNL     1       1.204  15.570  21.735  0.00  0.00    +0.000 C 
BRANCH  24  25
ATOM     25  C   UNL     1      -0.134  15.469  22.462  0.00  0.00    +0.000 C 
BRANCH  25  26
ATOM     26  O   UNL     1      -0.293  14.189  23.070  0.00  0.00    +0.000 OA
ATOM     27  H   UNL     1      -1.253  14.022  23.080  0.00  0.00    +0.000 HD
ENDBRANCH  25  26
ENDBRANCH  24  25
ENDBRANCH  22  24
ENDBRANCH  19  20
ENDBRANCH  18  19
ENDBRANCH   7  11
BRANCH   1  34
ATOM     28  C   UNL     1       6.524   4.766  17.805  0.00  0.00    +0.000 A 
ATOM     29  C   UNL     1       7.371   4.839  16.682  0.00  0.00    +0.000 A 
ATOM     30  C   UNL     1       6.870   4.612  15.404  0.00  0.00    +0.000 A 
ATOM     31  C   UNL     1       5.522   4.344  15.244  0.00  0.00    +0.000 A 
ATOM     32  F   UNL     1       5.031   4.125  14.016  0.00  0.00    +0.000 F 
ATOM     33  C   UNL     1       4.673   4.275  16.342  0.00  0.00    +0.000 A 
ATOM     34  C   UNL     1       5.148   4.427  17.661  0.00  0.00    +0.000 A 
BRANCH  28  36
ATOM     35  C   UNL     1       8.039   5.912  19.235  0.00  0.00    +0.000 C 
ATOM     36  O   UNL     1       7.005   4.945  19.079  0.00  0.00    +0.000 OA
ENDBRANCH  28  36
ENDBRANCH   1  34
TORSDOF 8
ENDMDL
MODEL 6
REMARK VINA RESULT:      -8.1      1.759      1.967
REMARK  Name = 
REMARK  10 active torsions:
REMARK  status: ('A' for Active; 'I' for Inactive)
REMARK    1  A    between atoms: C_1  and  O_2
REMARK    2  A    between atoms: O_2  and  C_3
REMARK    3  A    between atoms: C_9  and  C_10
REMARK    4  A    between atoms: C_16  and  C_17
REMARK    5  A    between atoms: N_24  and  C_25
REMARK    6  A    between atoms: C_25  and  C_26
REMARK    7  A    between atoms: N_28  and  C_29
REMARK    8  A    between atoms: N_28  and  C_30
REMARK    9  A    between atoms: C_30  and  C_31
REMARK   10  A    between atoms: C_31  and  O_32
REMARK                            x       y       z     vdW  Elec       q    Type
REMARK                         _______ _______ _______ _____ _____    ______ ____
ROOT
ATOM      1  C   UNL     1       4.316   4.211  18.494  0.00  0.00    +0.000 A 
ATOM      2  C   UNL     1       4.270   3.038  19.274  0.00  0.00    +0.000 A 
ATOM      3  C   UNL     1       3.387   2.949  20.339  0.00  0.00    +0.000 A 
ATOM      4  N   UNL     1       2.555   3.922  20.775  0.00  0.00    +0.000 NA
ATOM      5  C   UNL     1       2.658   5.049  20.035  0.00  0.00    +0.000 A 
ATOM      6  N   UNL     1       1.924   6.195  20.285  0.00  0.00    +0.000 N 
ATOM      7  C   UNL     1       2.224   7.168  19.362  0.00  0.00    +0.000 A 
ATOM      8  C   UNL     1       3.099   6.585  18.453  0.00  0.00    +0.000 A 
ATOM      9  C   UNL     1       3.423   5.252  18.904  0.00  0.00    +0.000 A 
ATOM     10  H   UNL     1       1.312   6.277  21.077  0.00  0.00    +0.000 HD
ENDROOT
BRANCH   7  11
ATOM     11  C   UNL     1       1.734   8.495  19.585  0.00  0.00    +0.000 C 
ATOM     12  C   UNL     1       1.209   8.839  20.807  0.00  0.00    +0.000 C 
ATOM     13  C   UNL     1       0.395  10.156  21.071  0.00  0.00    +0.000 C 
ATOM     14  C   UNL     1       0.918  11.678  21.233  0.00  0.00    +0.000 C 
ATOM     15  C   UNL     1       1.443  12.123  19.842  0.00  0.00    +0.000 C 
ATOM     16  C   UNL     1       1.029  10.895  19.032  0.00  0.00    +0.000 C 
ATOM     17  C   UNL     1       1.721   9.604  18.452  0.00  0.00    +0.000 C 
ATOM     18  N   UNL     1      -0.204  10.360  19.733  0.00  0.00    +0.000 NA
BRANCH  18  19
ATOM     19  C   UNL     1      -1.558  10.903  19.989  0.00  0.00    +0.000 C 
BRANCH  19  20
ATOM     20  C   UNL     1      -2.023  12.324  19.716  0.00  0.00    +0.000 C 
ATOM     21  O   UNL     1      -1.825  12.884  18.639  0.00  0.00    +0.000 OA
ATOM     22  N   UNL     1      -2.480  13.042  20.854  0.00  0.00    +0.000 N 
ATOM     23  C   UNL     1      -2.859  12.489  22.161  0.00  0.00    +0.000 C 
BRANCH  22  24
ATOM     24  C   UNL     1      -2.585  14.505  20.774  0.00  0.00    +0.000 C 
BRANCH  24  25
ATOM     25  C   UNL     1      -3.957  15.042  21.171  0.00  0.00    +0.000 C 
BRANCH  25  26
ATOM     26  O   UNL     1      -4.740  15.352  20.020  0.00  0.00    +0.000 OA
ATOM     27  H   UNL     1      -4.340  16.155  19.640  0.00  0.00    +0.000 HD
ENDBRANCH  25  26
ENDBRANCH  24  25
ENDBRANCH  22  24
ENDBRANCH  19  20
ENDBRANCH  18  19
ENDBRANCH   7  11
BRANCH   1  34
ATOM     28  C   UNL     1       6.650   4.637  17.501  0.00  0.00    +0.000 A 
ATOM     29  C   UNL     1       7.497   4.692  16.377  0.00  0.00    +0.000 A 
ATOM     30  C   UNL     1       6.982   4.512  15.096  0.00  0.00    +0.000 A 
ATOM     31  C   UNL     1       5.622   4.309  14.937  0.00  0.00    +0.000 A 
ATOM     32  F   UNL     1       5.119   4.136  13.707  0.00  0.00    +0.000 F 
ATOM     33  C   UNL     1       4.774   4.259  16.037  0.00  0.00    +0.000 A 
ATOM     34  C   UNL     1       5.260   4.364  17.356  0.00  0.00    +0.000 A 
BRANCH  28  36
ATOM     35  C   UNL     1       7.861   5.968  19.057  0.00  0.00    +0.000 C 
ATOM     36  O   UNL     1       7.143   4.769  18.777  0.00  0.00    +0.000 OA
ENDBRANCH  28  36
ENDBRANCH   1  34
TORSDOF 8
ENDMDL
MODEL 7
REMARK VINA RESULT:      -8.0      2.880      3.988
REMARK  Name = 
REMARK  10 active torsions:
REMARK  status: ('A' for Active; 'I' for Inactive)
REMARK    1  A    between atoms: C_1  and  O_2
REMARK    2  A    between atoms: O_2  and  C_3
REMARK    3  A    between atoms: C_9  and  C_10
REMARK    4  A    between atoms: C_16  and  C_17
REMARK    5  A    between atoms: N_24  and  C_25
REMARK    6  A    between atoms: C_25  and  C_26
REMARK    7  A    between atoms: N_28  and  C_29
REMARK    8  A    between atoms: N_28  and  C_30
REMARK    9  A    between atoms: C_30  and  C_31
REMARK   10  A    between atoms: C_31  and  O_32
REMARK                            x       y       z     vdW  Elec       q    Type
REMARK                         _______ _______ _______ _____ _____    ______ ____
ROOT
ATOM      1  C   UNL     1       4.293   4.273  18.724  0.00  0.00    +0.000 A 
ATOM      2  C   UNL     1       4.321   3.139  19.560  0.00  0.00    +0.000 A 
ATOM      3  C   UNL     1       3.453   3.050  20.637  0.00  0.00    +0.000 A 
ATOM      4  N   UNL     1       2.568   3.994  21.034  0.00  0.00    +0.000 NA
ATOM      5  C   UNL     1       2.599   5.087  20.240  0.00  0.00    +0.000 A 
ATOM      6  N   UNL     1       1.800   6.199  20.442  0.00  0.00    +0.000 N 
ATOM      7  C   UNL     1       2.036   7.142  19.470  0.00  0.00    +0.000 A 
ATOM      8  C   UNL     1       2.937   6.568  18.581  0.00  0.00    +0.000 A 
ATOM      9  C   UNL     1       3.343   5.279  19.092  0.00  0.00    +0.000 A 
ATOM     10  H   UNL     1       1.191   6.284  21.234  0.00  0.00    +0.000 HD
ENDROOT
BRANCH   7  11
ATOM     11  C   UNL     1       1.471   8.447  19.634  0.00  0.00    +0.000 C 
ATOM     12  C   UNL     1       1.106   9.183  18.532  0.00  0.00    +0.000 C 
ATOM     13  C   UNL     1       0.749  10.712  18.579  0.00  0.00    +0.000 C 
ATOM     14  C   UNL     1      -0.592  11.443  19.108  0.00  0.00    +0.000 C 
ATOM     15  C   UNL     1      -0.632  11.251  20.648  0.00  0.00    +0.000 C 
ATOM     16  C   UNL     1       0.731  10.585  20.836  0.00  0.00    +0.000 C 
ATOM     17  C   UNL     1       1.286   9.127  21.054  0.00  0.00    +0.000 C 
ATOM     18  N   UNL     1       1.594  11.137  19.719  0.00  0.00    +0.000 NA
BRANCH  18  19
ATOM     19  C   UNL     1       2.075  12.492  19.365  0.00  0.00    +0.000 C 
BRANCH  19  20
ATOM     20  C   UNL     1       2.278  13.653  20.325  0.00  0.00    +0.000 C 
ATOM     21  O   UNL     1       2.103  13.541  21.537  0.00  0.00    +0.000 OA
ATOM     22  N   UNL     1       2.445  14.925  19.713  0.00  0.00    +0.000 N 
ATOM     23  C   UNL     1       2.768  15.199  18.306  0.00  0.00    +0.000 C 
BRANCH  22  24
ATOM     24  C   UNL     1       2.267  16.133  20.530  0.00  0.00    +0.000 C 
BRANCH  24  25
ATOM     25  C   UNL     1       0.848  16.691  20.493  0.00  0.00    +0.000 C 
BRANCH  25  26
ATOM     26  O   UNL     1       0.764  17.826  19.633  0.00  0.00    +0.000 OA
ATOM     27  H   UNL     1       0.000  18.340  19.953  0.00  0.00    +0.000 HD
ENDBRANCH  25  26
ENDBRANCH  24  25
ENDBRANCH  22  24
ENDBRANCH  19  20
ENDBRANCH  18  19
ENDBRANCH   7  11
BRANCH   1  34
ATOM     28  C   UNL     1       6.610   4.700  17.693  0.00  0.00    +0.000 A 
ATOM     29  C   UNL     1       7.438   4.755  16.555  0.00  0.00    +0.000 A 
ATOM     30  C   UNL     1       6.902   4.572  15.283  0.00  0.00    +0.000 A 
ATOM     31  C   UNL     1       5.541   4.367  15.146  0.00  0.00    +0.000 A 
ATOM     32  F   UNL     1       5.018   4.191  13.925  0.00  0.00    +0.000 F 
ATOM     33  C   UNL     1       4.711   4.317  16.260  0.00  0.00    +0.000 A 
ATOM     34  C   UNL     1       5.218   4.425  17.571  0.00  0.00    +0.000 A 
BRANCH  28  36
ATOM     35  C   UNL     1       7.871   6.021  19.217  0.00  0.00    +0.000 C 
ATOM     36  O   UNL     1       7.123   4.836  18.960  0.00  0.00    +0.000 OA
ENDBRANCH  28  36
ENDBRANCH   1  34
TORSDOF 8
ENDMDL
MODEL 8
REMARK VINA RESULT:      -8.0      3.395      9.831
REMARK  Name = 
REMARK  10 active torsions:
REMARK  status: ('A' for Active; 'I' for Inactive)
REMARK    1  A    between atoms: C_1  and  O_2
REMARK    2  A    between atoms: O_2  and  C_3
REMARK    3  A    between atoms: C_9  and  C_10
REMARK    4  A    between atoms: C_16  and  C_17
REMARK    5  A    between atoms: N_24  and  C_25
REMARK    6  A    between atoms: C_25  and  C_26
REMARK    7  A    between atoms: N_28  and  C_29
REMARK    8  A    between atoms: N_28  and  C_30
REMARK    9  A    between atoms: C_30  and  C_31
REMARK   10  A    between atoms: C_31  and  O_32
REMARK                            x       y       z     vdW  Elec       q    Type
REMARK                         _______ _______ _______ _____ _____    ______ ____
ROOT
ATOM      1  C   UNL     1       0.148  12.239  21.390  0.00  0.00    +0.000 A 
ATOM      2  C   UNL     1      -0.786  12.532  22.405  0.00  0.00    +0.000 A 
ATOM      3  C   UNL     1      -1.282  11.513  23.204  0.00  0.00    +0.000 A 
ATOM      4  N   UNL     1      -1.004  10.195  23.088  0.00  0.00    +0.000 NA
ATOM      5  C   UNL     1      -0.143   9.943  22.077  0.00  0.00    +0.000 A 
ATOM      6  N   UNL     1       0.289   8.672  21.741  0.00  0.00    +0.000 N 
ATOM      7  C   UNL     1       1.171   8.727  20.688  0.00  0.00    +0.000 A 
ATOM      8  C   UNL     1       1.369  10.075  20.417  0.00  0.00    +0.000 A 
ATOM      9  C   UNL     1       0.495  10.857  21.260  0.00  0.00    +0.000 A 
ATOM     10  H   UNL     1      -0.064   7.849  22.195  0.00  0.00    +0.000 HD
ENDROOT
BRANCH   7  11
ATOM     11  C   UNL     1       1.555   7.501  20.055  0.00  0.00    +0.000 C 
ATOM     12  C   UNL     1       1.533   6.323  20.762  0.00  0.00    +0.000 C 
ATOM     13  C   UNL     1       2.195   4.990  20.263  0.00  0.00    +0.000 C 
ATOM     14  C   UNL     1       1.689   3.944  19.138  0.00  0.00    +0.000 C 
ATOM     15  C   UNL     1       1.801   4.667  17.769  0.00  0.00    +0.000 C 
ATOM     16  C   UNL     1       2.484   5.952  18.239  0.00  0.00    +0.000 C 
ATOM     17  C   UNL     1       2.065   7.437  18.554  0.00  0.00    +0.000 C 
ATOM     18  N   UNL     1       3.301   5.542  19.448  0.00  0.00    +0.000 NA
BRANCH  18  19
ATOM     19  C   UNL     1       4.439   4.617  19.655  0.00  0.00    +0.000 C 
BRANCH  19  20
ATOM     20  C   UNL     1       5.833   4.761  19.067  0.00  0.00    +0.000 C 
ATOM     21  O   UNL     1       6.743   5.330  19.667  0.00  0.00    +0.000 OA
ATOM     22  N   UNL     1       5.951   4.417  17.692  0.00  0.00    +0.000 N 
ATOM     23  C   UNL     1       4.996   3.647  16.884  0.00  0.00    +0.000 C 
BRANCH  22  24
ATOM     24  C   UNL     1       7.130   4.874  16.946  0.00  0.00    +0.000 C 
BRANCH  24  25
ATOM     25  C   UNL     1       6.796   5.480  15.587  0.00  0.00    +0.000 C 
BRANCH  25  26
ATOM     26  O   UNL     1       7.875   5.315  14.669  0.00  0.00    +0.000 OA
ATOM     27  H   UNL     1       7.465   5.045  13.828  0.00  0.00    +0.000 HD
ENDBRANCH  25  26
ENDBRANCH  24  25
ENDBRANCH  22  24
ENDBRANCH  19  20
ENDBRANCH  18  19
ENDBRANCH   7  11
BRANCH   1  34
ATOM     28  C   UNL     1      -0.002  13.825  19.371  0.00  0.00    +0.000 A 
ATOM     29  C   UNL     1       0.550  14.877  18.613  0.00  0.00    +0.000 A 
ATOM     30  C   UNL     1       1.802  15.394  18.931  0.00  0.00    +0.000 A 
ATOM     31  C   UNL     1       2.515  14.842  19.981  0.00  0.00    +0.000 A 
ATOM     32  F   UNL     1       3.722  15.335  20.291  0.00  0.00    +0.000 F 
ATOM     33  C   UNL     1       1.987  13.800  20.733  0.00  0.00    +0.000 A 
ATOM     34  C   UNL     1       0.693  13.292  20.495  0.00  0.00    +0.000 A 
BRANCH  28  36
ATOM     35  C   UNL     1      -1.317  12.226  18.201  0.00  0.00    +0.000 C 
ATOM     36  O   UNL     1      -1.254  13.327  19.102  0.00  0.00    +0.000 OA
ENDBRANCH  28  36
ENDBRANCH   1  34
TORSDOF 8
ENDMDL
MODEL 9
REMARK VINA RESULT:      -7.9      2.472      3.437
REMARK  Name = 
REMARK  10 active torsions:
REMARK  status: ('A' for Active; 'I' for Inactive)
REMARK    1  A    between atoms: C_1  and  O_2
REMARK    2  A    between atoms: O_2  and  C_3
REMARK    3  A    between atoms: C_9  and  C_10
REMARK    4  A    between atoms: C_16  and  C_17
REMARK    5  A    between atoms: N_24  and  C_25
REMARK    6  A    between atoms: C_25  and  C_26
REMARK    7  A    between atoms: N_28  and  C_29
REMARK    8  A    between atoms: N_28  and  C_30
REMARK    9  A    between atoms: C_30  and  C_31
REMARK   10  A    between atoms: C_31  and  O_32
REMARK                            x       y       z     vdW  Elec       q    Type
REMARK                         _______ _______ _______ _____ _____    ______ ____
ROOT
ATOM      1  C   UNL     1       4.110   4.565  18.597  0.00  0.00    +0.000 A 
ATOM      2  C   UNL     1       4.129   3.405  19.396  0.00  0.00    +0.000 A 
ATOM      3  C   UNL     1       3.252   3.284  20.463  0.00  0.00    +0.000 A 
ATOM      4  N   UNL     1       2.368   4.217  20.884  0.00  0.00    +0.000 NA
ATOM      5  C   UNL     1       2.407   5.335  20.126  0.00  0.00    +0.000 A 
ATOM      6  N   UNL     1       1.611   6.443  20.358  0.00  0.00    +0.000 N 
ATOM      7  C   UNL     1       1.857   7.416  19.419  0.00  0.00    +0.000 A 
ATOM      8  C   UNL     1       2.763   6.868  18.518  0.00  0.00    +0.000 A 
ATOM      9  C   UNL     1       3.161   5.562  18.990  0.00  0.00    +0.000 A 
ATOM     10  H   UNL     1       0.996   6.503  21.148  0.00  0.00    +0.000 HD
ENDROOT
BRANCH   7  11
ATOM     11  C   UNL     1       1.295   8.717  19.621  0.00  0.00    +0.000 C 
ATOM     12  C   UNL     1       1.318   9.643  18.605  0.00  0.00    +0.000 C 
ATOM     13  C   UNL     1       0.995  11.167  18.803  0.00  0.00    +0.000 C 
ATOM     14  C   UNL     1      -0.431  11.903  19.001  0.00  0.00    +0.000 C 
ATOM     15  C   UNL     1      -0.968  11.473  20.392  0.00  0.00    +0.000 C 
ATOM     16  C   UNL     1       0.247  10.686  20.880  0.00  0.00    +0.000 C 
ATOM     17  C   UNL     1       0.675   9.176  21.006  0.00  0.00    +0.000 C 
ATOM     18  N   UNL     1       1.435  11.343  20.206  0.00  0.00    +0.000 NA
BRANCH  18  19
ATOM     19  C   UNL     1       2.031  12.697  20.262  0.00  0.00    +0.000 C 
BRANCH  19  20
ATOM     20  C   UNL     1       1.447  13.907  20.972  0.00  0.00    +0.000 C 
ATOM     21  O   UNL     1       1.046  13.856  22.134  0.00  0.00    +0.000 OA
ATOM     22  N   UNL     1       1.171  15.026  20.140  0.00  0.00    +0.000 N 
ATOM     23  C   UNL     1       1.675  15.268  18.781  0.00  0.00    +0.000 C 
BRANCH  22  24
ATOM     24  C   UNL     1       0.274  16.077  20.639  0.00  0.00    +0.000 C 
BRANCH  24  25
ATOM     25  C   UNL     1      -1.042  16.169  19.873  0.00  0.00    +0.000 C 
BRANCH  25  26
ATOM     26  O   UNL     1      -1.834  14.999  20.068  0.00  0.00    +0.000 OA
ATOM     27  H   UNL     1      -1.385  14.293  19.569  0.00  0.00    +0.000 HD
ENDBRANCH  25  26
ENDBRANCH  24  25
ENDBRANCH  22  24
ENDBRANCH  19  20
ENDBRANCH  18  19
ENDBRANCH   7  11
BRANCH   1  34
ATOM     28  C   UNL     1       6.348   5.313  17.573  0.00  0.00    +0.000 A 
ATOM     29  C   UNL     1       7.205   5.387  16.458  0.00  0.00    +0.000 A 
ATOM     30  C   UNL     1       6.779   4.940  15.210  0.00  0.00    +0.000 A 
ATOM     31  C   UNL     1       5.493   4.452  15.069  0.00  0.00    +0.000 A 
ATOM     32  F   UNL     1       5.076   4.022  13.871  0.00  0.00    +0.000 F 
ATOM     33  C   UNL     1       4.634   4.379  16.159  0.00  0.00    +0.000 A 
ATOM     34  C   UNL     1       5.044   4.751  17.456  0.00  0.00    +0.000 A 
BRANCH  28  36
ATOM     35  C   UNL     1       8.009   6.390  18.890  0.00  0.00    +0.000 C 
ATOM     36  O   UNL     1       6.761   5.708  18.822  0.00  0.00    +0.000 OA
ENDBRANCH  28  36
ENDBRANCH   1  34
TORSDOF 8
ENDMDL
