MODEL 1
REMARK VINA RESULT:      -7.7      0.000      0.000
REMARK  Name = 
REMARK  8 active torsions:
REMARK  status: ('A' for Active; 'I' for Inactive)
REMARK    1  A    between atoms: C_1  and  N_2
REMARK    2  A    between atoms: N_2  and  C_3
REMARK    3  A    between atoms: N_2  and  C_4
REMARK    4  A    between atoms: N_2  and  C_5
REMARK    5  A    between atoms: C_5  and  C_6
REMARK    6  A    between atoms: C_9  and  N_10
REMARK    7  A    between atoms: C_15  and  C_16
REMARK    8  A    between atoms: C_19  and  N_20
REMARK                            x       y       z     vdW  Elec       q    Type
REMARK                         _______ _______ _______ _____ _____    ______ ____
ROOT
ATOM      1  C   UNL     1       4.367   5.118  17.221  0.00  0.00    +0.000 A 
ATOM      2  C   UNL     1       4.039   3.895  17.808  0.00  0.00    +0.000 A 
ATOM      3  F   UNL     1       4.496   2.769  17.236  0.00  0.00    +0.000 F 
ATOM      4  C   UNL     1       3.194   3.797  18.925  0.00  0.00    +0.000 A 
ATOM      5  C   UNL     1       2.649   4.993  19.442  0.00  0.00    +0.000 A 
ATOM      6  C   UNL     1       1.733   4.977  20.603  0.00  0.00    +0.000 A 
ATOM      7  O   UNL     1       1.464   3.951  21.206  0.00  0.00    +0.000 OA
ATOM      8  C   UNL     1       1.182   6.270  21.033  0.00  0.00    +0.000 A 
ATOM      9  C   UNL     1       1.566   7.376  20.398  0.00  0.00    +0.000 A 
ATOM     10  O   UNL     1       2.461   7.414  19.344  0.00  0.00    +0.000 OA
ATOM     11  C   UNL     1       2.986   6.227  18.892  0.00  0.00    +0.000 A 
ATOM     12  C   UNL     1       3.853   6.278  17.796  0.00  0.00    +0.000 A 
ATOM     13  F   UNL     1       4.146   7.460  17.234  0.00  0.00    +0.000 F 
ENDROOT
BRANCH   9  14
ATOM     14  C   UNL     1       1.042   8.687  20.791  0.00  0.00    +0.000 A 
ATOM     15  C   UNL     1       0.966   9.730  19.861  0.00  0.00    +0.000 A 
ATOM     16  C   UNL     1       0.338  10.937  20.197  0.00  0.00    +0.000 A 
ATOM     17  C   UNL     1      -0.169  11.142  21.482  0.00  0.00    +0.000 A 
ATOM     18  C   UNL     1      -0.062  10.095  22.407  0.00  0.00    +0.000 A 
ATOM     19  F   UNL     1      -0.582  10.242  23.637  0.00  0.00    +0.000 F 
ATOM     20  C   UNL     1       0.551   8.886  22.083  0.00  0.00    +0.000 A 
BRANCH  17  21
ATOM     21  N   UNL     1      -0.985  12.252  21.746  0.00  0.00    +0.000 N 
ATOM     22  H   UNL     1      -0.540  13.156  21.628  0.00  0.00    +0.000 HD
ATOM     23  H   UNL     1      -1.498  12.171  22.623  0.00  0.00    +0.000 HD
ENDBRANCH  17  21
ENDBRANCH   9  14
BRANCH   4  24
ATOM     24  N   UNL     1       2.711   2.529  19.294  0.00  0.00    +0.000 N 
ATOM     25  H   UNL     1       2.518   1.892  18.526  0.00  0.00    +0.000 HD
ATOM     26  H   UNL     1       3.268   2.087  20.040  0.00  0.00    +0.000 HD
ENDBRANCH   4  24
BRANCH   1  27
ATOM     27  C   UNL     1       5.173   5.154  15.956  0.00  0.00    +0.000 C 
BRANCH  27  29
ATOM     28  C   UNL     1       7.380   5.009  14.798  0.00  0.00    +0.000 C 
ATOM     29  N   UNL     1       6.703   5.345  16.125  0.00  0.00    +0.000 N 
ATOM     30  C   UNL     1       7.257   4.410  17.193  0.00  0.00    +0.000 C 
ATOM     31  C   UNL     1       7.043   6.789  16.482  0.00  0.00    +0.000 C 
ENDBRANCH  27  29
ENDBRANCH   1  27
TORSDOF 5
ENDMDL
MODEL 2
REMARK VINA RESULT:      -7.5      0.946      1.323
REMARK  Name = 
REMARK  8 active torsions:
REMARK  status: ('A' for Active; 'I' for Inactive)
REMARK    1  A    between atoms: C_1  and  N_2
REMARK    2  A    between atoms: N_2  and  C_3
REMARK    3  A    between atoms: N_2  and  C_4
REMARK    4  A    between atoms: N_2  and  C_5
REMARK    5  A    between atoms: C_5  and  C_6
REMARK    6  A    between atoms: C_9  and  N_10
REMARK    7  A    between atoms: C_15  and  C_16
REMARK    8  A    between atoms: C_19  and  N_20
REMARK                            x       y       z     vdW  Elec       q    Type
REMARK                         _______ _______ _______ _____ _____    ______ ____
ROOT
ATOM      1  C   UNL     1       4.388   5.169  17.254  0.00  0.00    +0.000 A 
ATOM      2  C   UNL     1       4.126   3.952  17.884  0.00  0.00    +0.000 A 
ATOM      3  F   UNL     1       4.628   2.831  17.343  0.00  0.00    +0.000 F 
ATOM      4  C   UNL     1       3.298   3.852  19.014  0.00  0.00    +0.000 A 
ATOM      5  C   UNL     1       2.703   5.037  19.499  0.00  0.00    +0.000 A 
ATOM      6  C   UNL     1       1.802   5.016  20.672  0.00  0.00    +0.000 A 
ATOM      7  O   UNL     1       1.588   3.999  21.310  0.00  0.00    +0.000 OA
ATOM      8  C   UNL     1       1.194   6.295  21.066  0.00  0.00    +0.000 A 
ATOM      9  C   UNL     1       1.518   7.397  20.391  0.00  0.00    +0.000 A 
ATOM     10  O   UNL     1       2.400   7.441  19.325  0.00  0.00    +0.000 OA
ATOM     11  C   UNL     1       2.975   6.267  18.905  0.00  0.00    +0.000 A 
ATOM     12  C   UNL     1       3.827   6.322  17.797  0.00  0.00    +0.000 A 
ATOM     13  F   UNL     1       4.057   7.497  17.194  0.00  0.00    +0.000 F 
ENDROOT
BRANCH   9  14
ATOM     14  C   UNL     1       0.938   8.694  20.747  0.00  0.00    +0.000 A 
ATOM     15  C   UNL     1       0.429   8.917  22.032  0.00  0.00    +0.000 A 
ATOM     16  C   UNL     1       0.004  10.196  22.415  0.00  0.00    +0.000 A 
ATOM     17  C   UNL     1       0.022  11.255  21.506  0.00  0.00    +0.000 A 
ATOM     18  C   UNL     1       0.511  11.007  20.216  0.00  0.00    +0.000 A 
ATOM     19  F   UNL     1       0.587  12.015  19.332  0.00  0.00    +0.000 F 
ATOM     20  C   UNL     1       0.948   9.743  19.825  0.00  0.00    +0.000 A 
BRANCH  17  21
ATOM     21  N   UNL     1      -0.193  12.568  21.951  0.00  0.00    +0.000 N 
ATOM     22  H   UNL     1      -0.042  13.292  21.258  0.00  0.00    +0.000 HD
ATOM     23  H   UNL     1       0.261  12.766  22.841  0.00  0.00    +0.000 HD
ENDBRANCH  17  21
ENDBRANCH   9  14
BRANCH   4  24
ATOM     24  N   UNL     1       2.879   2.575  19.430  0.00  0.00    +0.000 N 
ATOM     25  H   UNL     1       2.637   2.491  20.414  0.00  0.00    +0.000 HD
ATOM     26  H   UNL     1       2.163   2.166  18.814  0.00  0.00    +0.000 HD
ENDBRANCH   4  24
BRANCH   1  27
ATOM     27  C   UNL     1       5.178   5.202  15.978  0.00  0.00    +0.000 C 
BRANCH  27  29
ATOM     28  C   UNL     1       7.366   5.056  14.785  0.00  0.00    +0.000 C 
ATOM     29  N   UNL     1       6.712   5.376  16.127  0.00  0.00    +0.000 N 
ATOM     30  C   UNL     1       7.273   4.419  17.172  0.00  0.00    +0.000 C 
ATOM     31  C   UNL     1       7.070   6.811  16.503  0.00  0.00    +0.000 C 
ENDBRANCH  27  29
ENDBRANCH   1  27
TORSDOF 5
ENDMDL
MODEL 3
REMARK VINA RESULT:      -7.2      2.662      7.715
REMARK  Name = 
REMARK  8 active torsions:
REMARK  status: ('A' for Active; 'I' for Inactive)
REMARK    1  A    between atoms: C_1  and  N_2
REMARK    2  A    between atoms: N_2  and  C_3
REMARK    3  A    between atoms: N_2  and  C_4
REMARK    4  A    between atoms: N_2  and  C_5
REMARK    5  A    between atoms: C_5  and  C_6
REMARK    6  A    between atoms: C_9  and  N_10
REMARK    7  A    between atoms: C_15  and  C_16
REMARK    8  A    between atoms: C_19  and  N_20
REMARK                            x       y       z     vdW  Elec       q    Type
REMARK                         _______ _______ _______ _____ _____    ______ ____
ROOT
ATOM      1  C   UNL     1       0.684  12.180  19.230  0.00  0.00    +0.000 A 
ATOM      2  C   UNL     1      -0.194  12.180  20.314  0.00  0.00    +0.000 A 
ATOM      3  F   UNL     1      -0.769  13.340  20.670  0.00  0.00    +0.000 F 
ATOM      4  C   UNL     1      -0.439  11.033  21.086  0.00  0.00    +0.000 A 
ATOM      5  C   UNL     1       0.259   9.853  20.747  0.00  0.00    +0.000 A 
ATOM      6  C   UNL     1       0.075   8.606  21.522  0.00  0.00    +0.000 A 
ATOM      7  O   UNL     1      -0.730   8.520  22.434  0.00  0.00    +0.000 OA
ATOM      8  C   UNL     1       0.885   7.448  21.119  0.00  0.00    +0.000 A 
ATOM      9  C   UNL     1       1.693   7.562  20.065  0.00  0.00    +0.000 A 
ATOM     10  O   UNL     1       1.837   8.706  19.299  0.00  0.00    +0.000 OA
ATOM     11  C   UNL     1       1.117   9.821  19.651  0.00  0.00    +0.000 A 
ATOM     12  C   UNL     1       1.310  10.982  18.895  0.00  0.00    +0.000 A 
ATOM     13  F   UNL     1       2.169  10.969  17.865  0.00  0.00    +0.000 F 
ENDROOT
BRANCH   9  14
ATOM     14  C   UNL     1       2.519   6.435  19.628  0.00  0.00    +0.000 A 
ATOM     15  C   UNL     1       3.431   6.587  18.576  0.00  0.00    +0.000 A 
ATOM     16  C   UNL     1       4.319   5.553  18.251  0.00  0.00    +0.000 A 
ATOM     17  C   UNL     1       4.269   4.332  18.928  0.00  0.00    +0.000 A 
ATOM     18  C   UNL     1       3.334   4.190  19.961  0.00  0.00    +0.000 A 
ATOM     19  F   UNL     1       3.293   3.046  20.664  0.00  0.00    +0.000 F 
ATOM     20  C   UNL     1       2.452   5.214  20.302  0.00  0.00    +0.000 A 
BRANCH  17  21
ATOM     21  N   UNL     1       5.294   3.390  18.752  0.00  0.00    +0.000 N 
ATOM     22  H   UNL     1       5.064   2.442  19.029  0.00  0.00    +0.000 HD
ATOM     23  H   UNL     1       6.192   3.705  19.114  0.00  0.00    +0.000 HD
ENDBRANCH  17  21
ENDBRANCH   9  14
BRANCH   4  24
ATOM     24  N   UNL     1      -1.129  11.175  22.303  0.00  0.00    +0.000 N 
ATOM     25  H   UNL     1      -1.968  10.609  22.402  0.00  0.00    +0.000 HD
ATOM     26  H   UNL     1      -0.512  11.108  23.126  0.00  0.00    +0.000 HD
ENDBRANCH   4  24
BRANCH   1  27
ATOM     27  C   UNL     1       1.003  13.463  18.518  0.00  0.00    +0.000 C 
BRANCH  27  29
ATOM     28  C   UNL     1       1.820  15.749  19.099  0.00  0.00    +0.000 C 
ATOM     29  N   UNL     1       2.205  14.271  19.072  0.00  0.00    +0.000 N 
ATOM     30  C   UNL     1       3.429  14.114  18.178  0.00  0.00    +0.000 C 
ATOM     31  C   UNL     1       2.551  13.842  20.494  0.00  0.00    +0.000 C 
ENDBRANCH  27  29
ENDBRANCH   1  27
TORSDOF 5
ENDMDL
MODEL 4
REMARK VINA RESULT:      -7.1      2.561      7.842
REMARK  Name = 
REMARK  8 active torsions:
REMARK  status: ('A' for Active; 'I' for Inactive)
REMARK    1  A    between atoms: C_1  and  N_2
REMARK    2  A    between atoms: N_2  and  C_3
REMARK    3  A    between atoms: N_2  and  C_4
REMARK    4  A    between atoms: N_2  and  C_5
REMARK    5  A    between atoms: C_5  and  C_6
REMARK    6  A    between atoms: C_9  and  N_10
REMARK    7  A    between atoms: C_15  and  C_16
REMARK    8  A    between atoms: C_19  and  N_20
REMARK                            x       y       z     vdW  Elec       q    Type
REMARK                         _______ _______ _______ _____ _____    ______ ____
ROOT
ATOM      1  C   UNL     1       0.707  12.193  19.249  0.00  0.00    +0.000 A 
ATOM      2  C   UNL     1      -0.164  12.152  20.338  0.00  0.00    +0.000 A 
ATOM      3  F   UNL     1      -0.752  13.293  20.730  0.00  0.00    +0.000 F 
ATOM      4  C   UNL     1      -0.389  10.979  21.079  0.00  0.00    +0.000 A 
ATOM      5  C   UNL     1       0.323   9.819  20.703  0.00  0.00    +0.000 A 
ATOM      6  C   UNL     1       0.161   8.549  21.443  0.00  0.00    +0.000 A 
ATOM      7  O   UNL     1      -0.637   8.426  22.357  0.00  0.00    +0.000 OA
ATOM      8  C   UNL     1       0.983   7.413  21.002  0.00  0.00    +0.000 A 
ATOM      9  C   UNL     1       1.782   7.568  19.947  0.00  0.00    +0.000 A 
ATOM     10  O   UNL     1       1.906   8.734  19.213  0.00  0.00    +0.000 OA
ATOM     11  C   UNL     1       1.174   9.830  19.600  0.00  0.00    +0.000 A 
ATOM     12  C   UNL     1       1.346  11.014  18.876  0.00  0.00    +0.000 A 
ATOM     13  F   UNL     1       2.198  11.042  17.841  0.00  0.00    +0.000 F 
ENDROOT
BRANCH   9  14
ATOM     14  C   UNL     1       2.621   6.465  19.473  0.00  0.00    +0.000 A 
ATOM     15  C   UNL     1       2.710   5.273  20.203  0.00  0.00    +0.000 A 
ATOM     16  C   UNL     1       3.398   4.170  19.680  0.00  0.00    +0.000 A 
ATOM     17  C   UNL     1       4.057   4.258  18.452  0.00  0.00    +0.000 A 
ATOM     18  C   UNL     1       3.977   5.466  17.747  0.00  0.00    +0.000 A 
ATOM     19  F   UNL     1       4.560   5.569  16.541  0.00  0.00    +0.000 F 
ATOM     20  C   UNL     1       3.288   6.568  18.250  0.00  0.00    +0.000 A 
BRANCH  17  21
ATOM     21  N   UNL     1       4.551   3.099  17.835  0.00  0.00    +0.000 N 
ATOM     22  H   UNL     1       5.529   3.131  17.570  0.00  0.00    +0.000 HD
ATOM     23  H   UNL     1       3.947   2.754  17.091  0.00  0.00    +0.000 HD
ENDBRANCH  17  21
ENDBRANCH   9  14
BRANCH   4  24
ATOM     24  N   UNL     1      -1.072  11.078  22.304  0.00  0.00    +0.000 N 
ATOM     25  H   UNL     1      -0.539  10.811  23.127  0.00  0.00    +0.000 HD
ATOM     26  H   UNL     1      -1.554  11.981  22.425  0.00  0.00    +0.000 HD
ENDBRANCH   4  24
BRANCH   1  27
ATOM     27  C   UNL     1       1.004  13.500  18.572  0.00  0.00    +0.000 C 
BRANCH  27  29
ATOM     28  C   UNL     1       1.791  15.773  19.240  0.00  0.00    +0.000 C 
ATOM     29  N   UNL     1       2.203  14.306  19.136  0.00  0.00    +0.000 N 
ATOM     30  C   UNL     1       3.409  14.214  18.210  0.00  0.00    +0.000 C 
ATOM     31  C   UNL     1       2.589  13.818  20.529  0.00  0.00    +0.000 C 
ENDBRANCH  27  29
ENDBRANCH   1  27
TORSDOF 5
ENDMDL
MODEL 5
REMARK VINA RESULT:      -7.0      2.324      4.168
REMARK  Name = 
REMARK  8 active torsions:
REMARK  status: ('A' for Active; 'I' for Inactive)
REMARK    1  A    between atoms: C_1  and  N_2
REMARK    2  A    between atoms: N_2  and  C_3
REMARK    3  A    between atoms: N_2  and  C_4
REMARK    4  A    between atoms: N_2  and  C_5
REMARK    5  A    between atoms: C_5  and  C_6
REMARK    6  A    between atoms: C_9  and  N_10
REMARK    7  A    between atoms: C_15  and  C_16
REMARK    8  A    between atoms: C_19  and  N_20
REMARK                            x       y       z     vdW  Elec       q    Type
REMARK                         _______ _______ _______ _____ _____    ______ ____
ROOT
ATOM      1  C   UNL     1       3.114   5.123  19.377  0.00  0.00    +0.000 A 
ATOM      2  C   UNL     1       3.706   5.649  18.229  0.00  0.00    +0.000 A 
ATOM      3  F   UNL     1       4.618   4.906  17.582  0.00  0.00    +0.000 F 
ATOM      4  C   UNL     1       3.437   6.949  17.770  0.00  0.00    +0.000 A 
ATOM      5  C   UNL     1       2.549   7.742  18.530  0.00  0.00    +0.000 A 
ATOM      6  C   UNL     1       2.228   9.129  18.130  0.00  0.00    +0.000 A 
ATOM      7  O   UNL     1       2.654   9.624  17.099  0.00  0.00    +0.000 OA
ATOM      8  C   UNL     1       1.331   9.886  19.015  0.00  0.00    +0.000 A 
ATOM      9  C   UNL     1       0.823   9.281  20.087  0.00  0.00    +0.000 A 
ATOM     10  O   UNL     1       1.073   7.967  20.447  0.00  0.00    +0.000 OA
ATOM     11  C   UNL     1       1.923   7.227  19.663  0.00  0.00    +0.000 A 
ATOM     12  C   UNL     1       2.201   5.917  20.067  0.00  0.00    +0.000 A 
ATOM     13  F   UNL     1       1.636   5.431  21.181  0.00  0.00    +0.000 F 
ENDROOT
BRANCH   9  14
ATOM     14  C   UNL     1      -0.073   9.995  20.998  0.00  0.00    +0.000 A 
ATOM     15  C   UNL     1      -0.192   9.599  22.336  0.00  0.00    +0.000 A 
ATOM     16  C   UNL     1      -0.940  10.366  23.240  0.00  0.00    +0.000 A 
ATOM     17  C   UNL     1      -1.629  11.503  22.810  0.00  0.00    +0.000 A 
ATOM     18  C   UNL     1      -1.518  11.870  21.463  0.00  0.00    +0.000 A 
ATOM     19  F   UNL     1      -2.128  12.984  21.027  0.00  0.00    +0.000 F 
ATOM     20  C   UNL     1      -0.769  11.122  20.555  0.00  0.00    +0.000 A 
BRANCH  17  21
ATOM     21  N   UNL     1      -2.187  12.382  23.750  0.00  0.00    +0.000 N 
ATOM     22  H   UNL     1      -1.536  12.771  24.422  0.00  0.00    +0.000 HD
ATOM     23  H   UNL     1      -3.036  12.020  24.180  0.00  0.00    +0.000 HD
ENDBRANCH  17  21
ENDBRANCH   9  14
BRANCH   4  24
ATOM     24  N   UNL     1       4.258   7.492  16.766  0.00  0.00    +0.000 N 
ATOM     25  H   UNL     1       5.224   7.176  16.770  0.00  0.00    +0.000 HD
ATOM     26  H   UNL     1       3.833   7.443  15.828  0.00  0.00    +0.000 HD
ENDBRANCH   4  24
BRANCH   1  27
ATOM     27  C   UNL     1       3.532   3.775  19.890  0.00  0.00    +0.000 C 
BRANCH  27  29
ATOM     28  C   UNL     1       1.836   2.126  20.690  0.00  0.00    +0.000 C 
ATOM     29  N   UNL     1       2.638   2.578  19.471  0.00  0.00    +0.000 N 
ATOM     30  C   UNL     1       3.484   1.403  18.995  0.00  0.00    +0.000 C 
ATOM     31  C   UNL     1       1.656   2.979  18.375  0.00  0.00    +0.000 C 
ENDBRANCH  27  29
ENDBRANCH   1  27
TORSDOF 5
ENDMDL
MODEL 6
REMARK VINA RESULT:      -6.9      2.392      7.710
REMARK  Name = 
REMARK  8 active torsions:
REMARK  status: ('A' for Active; 'I' for Inactive)
REMARK    1  A    between atoms: C_1  and  N_2
REMARK    2  A    between atoms: N_2  and  C_3
REMARK    3  A    between atoms: N_2  and  C_4
REMARK    4  A    between atoms: N_2  and  C_5
REMARK    5  A    between atoms: C_5  and  C_6
REMARK    6  A    between atoms: C_9  and  N_10
REMARK    7  A    between atoms: C_15  and  C_16
REMARK    8  A    between atoms: C_19  and  N_20
REMARK                            x       y       z     vdW  Elec       q    Type
REMARK                         _______ _______ _______ _____ _____    ______ ____
ROOT
ATOM      1  C   UNL     1       0.689  10.787  19.000  0.00  0.00    +0.000 A 
ATOM      2  C   UNL     1       0.075  10.217  20.116  0.00  0.00    +0.000 A 
ATOM      3  F   UNL     1      -0.798  10.960  20.815  0.00  0.00    +0.000 F 
ATOM      4  C   UNL     1       0.392   8.927  20.573  0.00  0.00    +0.000 A 
ATOM      5  C   UNL     1       1.388   8.210  19.876  0.00  0.00    +0.000 A 
ATOM      6  C   UNL     1       1.797   6.855  20.304  0.00  0.00    +0.000 A 
ATOM      7  O   UNL     1       1.250   6.271  21.225  0.00  0.00    +0.000 OA
ATOM      8  C   UNL     1       2.877   6.213  19.541  0.00  0.00    +0.000 A 
ATOM      9  C   UNL     1       3.391   6.853  18.491  0.00  0.00    +0.000 A 
ATOM     10  O   UNL     1       2.984   8.099  18.046  0.00  0.00    +0.000 OA
ATOM     11  C   UNL     1       1.992   8.747  18.741  0.00  0.00    +0.000 A 
ATOM     12  C   UNL     1       1.626  10.025  18.307  0.00  0.00    +0.000 A 
ATOM     13  F   UNL     1       2.236  10.565  17.242  0.00  0.00    +0.000 F 
ENDROOT
BRANCH   9  14
ATOM     14  C   UNL     1       4.469   6.254  17.701  0.00  0.00    +0.000 A 
ATOM     15  C   UNL     1       4.231   5.118  16.918  0.00  0.00    +0.000 A 
ATOM     16  C   UNL     1       5.222   4.629  16.056  0.00  0.00    +0.000 A 
ATOM     17  C   UNL     1       6.482   5.228  16.007  0.00  0.00    +0.000 A 
ATOM     18  C   UNL     1       6.711   6.349  16.817  0.00  0.00    +0.000 A 
ATOM     19  F   UNL     1       7.896   6.977  16.759  0.00  0.00    +0.000 F 
ATOM     20  C   UNL     1       5.731   6.852  17.671  0.00  0.00    +0.000 A 
BRANCH  17  21
ATOM     21  N   UNL     1       7.388   4.879  14.994  0.00  0.00    +0.000 N 
ATOM     22  H   UNL     1       8.298   4.568  15.314  0.00  0.00    +0.000 HD
ATOM     23  H   UNL     1       7.440   5.571  14.250  0.00  0.00    +0.000 HD
ENDBRANCH  17  21
ENDBRANCH   9  14
BRANCH   4  24
ATOM     24  N   UNL     1      -0.075   8.529  21.839  0.00  0.00    +0.000 N 
ATOM     25  H   UNL     1       0.453   7.784  22.287  0.00  0.00    +0.000 HD
ATOM     26  H   UNL     1      -0.248   9.322  22.473  0.00  0.00    +0.000 HD
ENDBRANCH   4  24
BRANCH   1  27
ATOM     27  C   UNL     1       0.403  12.214  18.630  0.00  0.00    +0.000 C 
BRANCH  27  29
ATOM     28  C   UNL     1       0.613  14.584  19.386  0.00  0.00    +0.000 C 
ATOM     29  N   UNL     1       1.380  13.277  19.198  0.00  0.00    +0.000 N 
ATOM     30  C   UNL     1       2.531  13.533  18.233  0.00  0.00    +0.000 C 
ATOM     31  C   UNL     1       1.934  12.849  20.553  0.00  0.00    +0.000 C 
ENDBRANCH  27  29
ENDBRANCH   1  27
TORSDOF 5
ENDMDL
MODEL 7
REMARK VINA RESULT:      -6.9      2.990      8.236
REMARK  Name = 
REMARK  8 active torsions:
REMARK  status: ('A' for Active; 'I' for Inactive)
REMARK    1  A    between atoms: C_1  and  N_2
REMARK    2  A    between atoms: N_2  and  C_3
REMARK    3  A    between atoms: N_2  and  C_4
REMARK    4  A    between atoms: N_2  and  C_5
REMARK    5  A    between atoms: C_5  and  C_6
REMARK    6  A    between atoms: C_9  and  N_10
REMARK    7  A    between atoms: C_15  and  C_16
REMARK    8  A    between atoms: C_19  and  N_20
REMARK                            x       y       z     vdW  Elec       q    Type
REMARK                         _______ _______ _______ _____ _____    ______ ____
ROOT
ATOM      1  C   UNL     1      -1.441  11.098  18.674  0.00  0.00    +0.000 A 
ATOM      2  C   UNL     1      -1.482  11.551  19.993  0.00  0.00    +0.000 A 
ATOM      3  F   UNL     1      -2.236  12.625  20.277  0.00  0.00    +0.000 F 
ATOM      4  C   UNL     1      -0.709  10.972  21.012  0.00  0.00    +0.000 A 
ATOM      5  C   UNL     1       0.151   9.909  20.660  0.00  0.00    +0.000 A 
ATOM      6  C   UNL     1       1.014   9.257  21.669  0.00  0.00    +0.000 A 
ATOM      7  O   UNL     1       0.974   9.556  22.851  0.00  0.00    +0.000 OA
ATOM      8  C   UNL     1       1.909   8.193  21.191  0.00  0.00    +0.000 A 
ATOM      9  C   UNL     1       1.863   7.842  19.907  0.00  0.00    +0.000 A 
ATOM     10  O   UNL     1       1.023   8.406  18.962  0.00  0.00    +0.000 OA
ATOM     11  C   UNL     1       0.185   9.420  19.357  0.00  0.00    +0.000 A 
ATOM     12  C   UNL     1      -0.622  10.011  18.379  0.00  0.00    +0.000 A 
ATOM     13  F   UNL     1      -0.560   9.575  17.113  0.00  0.00    +0.000 F 
ENDROOT
BRANCH   9  14
ATOM     14  C   UNL     1       2.736   6.788  19.385  0.00  0.00    +0.000 A 
ATOM     15  C   UNL     1       2.944   5.611  20.113  0.00  0.00    +0.000 A 
ATOM     16  C   UNL     1       3.664   4.547  19.553  0.00  0.00    +0.000 A 
ATOM     17  C   UNL     1       4.237   4.664  18.285  0.00  0.00    +0.000 A 
ATOM     18  C   UNL     1       4.039   5.859  17.580  0.00  0.00    +0.000 A 
ATOM     19  F   UNL     1       4.535   5.986  16.340  0.00  0.00    +0.000 F 
ATOM     20  C   UNL     1       3.316   6.921  18.121  0.00  0.00    +0.000 A 
BRANCH  17  21
ATOM     21  N   UNL     1       4.761   3.532  17.644  0.00  0.00    +0.000 N 
ATOM     22  H   UNL     1       4.087   2.808  17.422  0.00  0.00    +0.000 HD
ATOM     23  H   UNL     1       5.601   3.172  18.093  0.00  0.00    +0.000 HD
ENDBRANCH  17  21
ENDBRANCH   9  14
BRANCH   4  24
ATOM     24  N   UNL     1      -0.611  11.641  22.245  0.00  0.00    +0.000 N 
ATOM     25  H   UNL     1       0.326  11.929  22.516  0.00  0.00    +0.000 HD
ATOM     26  H   UNL     1      -1.299  12.402  22.347  0.00  0.00    +0.000 HD
ENDBRANCH   4  24
BRANCH   1  27
ATOM     27  C   UNL     1      -2.193  11.833  17.602  0.00  0.00    +0.000 C 
BRANCH  27  29
ATOM     28  C   UNL     1      -3.141  10.886  15.495  0.00  0.00    +0.000 C 
ATOM     29  N   UNL     1      -3.407  11.088  16.986  0.00  0.00    +0.000 N 
ATOM     30  C   UNL     1      -4.684  11.905  17.136  0.00  0.00    +0.000 C 
ATOM     31  C   UNL     1      -3.596   9.717  17.627  0.00  0.00    +0.000 C 
ENDBRANCH  27  29
ENDBRANCH   1  27
TORSDOF 5
ENDMDL
MODEL 8
REMARK VINA RESULT:      -6.9      3.064      8.101
REMARK  Name = 
REMARK  8 active torsions:
REMARK  status: ('A' for Active; 'I' for Inactive)
REMARK    1  A    between atoms: C_1  and  N_2
REMARK    2  A    between atoms: N_2  and  C_3
REMARK    3  A    between atoms: N_2  and  C_4
REMARK    4  A    between atoms: N_2  and  C_5
REMARK    5  A    between atoms: C_5  and  C_6
REMARK    6  A    between atoms: C_9  and  N_10
REMARK    7  A    between atoms: C_15  and  C_16
REMARK    8  A    between atoms: C_19  and  N_20
REMARK                            x       y       z     vdW  Elec       q    Type
REMARK                         _______ _______ _______ _____ _____    ______ ____
ROOT
ATOM      1  C   UNL     1      -1.397  11.052  18.593  0.00  0.00    +0.000 A 
ATOM      2  C   UNL     1      -1.441  11.549  19.895  0.00  0.00    +0.000 A 
ATOM      3  F   UNL     1      -2.179  12.644  20.137  0.00  0.00    +0.000 F 
ATOM      4  C   UNL     1      -0.686  10.991  20.941  0.00  0.00    +0.000 A 
ATOM      5  C   UNL     1       0.158   9.903  20.632  0.00  0.00    +0.000 A 
ATOM      6  C   UNL     1       1.003   9.271  21.669  0.00  0.00    +0.000 A 
ATOM      7  O   UNL     1       0.958   9.610  22.840  0.00  0.00    +0.000 OA
ATOM      8  C   UNL     1       1.883   8.177  21.235  0.00  0.00    +0.000 A 
ATOM      9  C   UNL     1       1.841   7.784  19.963  0.00  0.00    +0.000 A 
ATOM     10  O   UNL     1       1.019   8.330  18.992  0.00  0.00    +0.000 OA
ATOM     11  C   UNL     1       0.195   9.370  19.345  0.00  0.00    +0.000 A 
ATOM     12  C   UNL     1      -0.594   9.942  18.342  0.00  0.00    +0.000 A 
ATOM     13  F   UNL     1      -0.529   9.462  17.092  0.00  0.00    +0.000 F 
ENDROOT
BRANCH   9  14
ATOM     14  C   UNL     1       2.700   6.699  19.484  0.00  0.00    +0.000 A 
ATOM     15  C   UNL     1       3.608   6.917  18.441  0.00  0.00    +0.000 A 
ATOM     16  C   UNL     1       4.526   5.922  18.078  0.00  0.00    +0.000 A 
ATOM     17  C   UNL     1       4.512   4.676  18.708  0.00  0.00    +0.000 A 
ATOM     18  C   UNL     1       3.580   4.467  19.734  0.00  0.00    +0.000 A 
ATOM     19  F   UNL     1       3.572   3.297  20.392  0.00  0.00    +0.000 F 
ATOM     20  C   UNL     1       2.668   5.451  20.111  0.00  0.00    +0.000 A 
BRANCH  17  21
ATOM     21  N   UNL     1       5.563   3.771  18.499  0.00  0.00    +0.000 N 
ATOM     22  H   UNL     1       6.109   3.542  19.322  0.00  0.00    +0.000 HD
ATOM     23  H   UNL     1       6.138   4.006  17.692  0.00  0.00    +0.000 HD
ENDBRANCH  17  21
ENDBRANCH   9  14
BRANCH   4  24
ATOM     24  N   UNL     1      -0.587  11.700  22.151  0.00  0.00    +0.000 N 
ATOM     25  H   UNL     1      -0.499  12.709  22.064  0.00  0.00    +0.000 HD
ATOM     26  H   UNL     1      -1.306  11.428  22.838  0.00  0.00    +0.000 HD
ENDBRANCH   4  24
BRANCH   1  27
ATOM     27  C   UNL     1      -2.127  11.762  17.490  0.00  0.00    +0.000 C 
BRANCH  27  29
ATOM     28  C   UNL     1      -4.585  11.886  17.071  0.00  0.00    +0.000 C 
ATOM     29  N   UNL     1      -3.345  11.015  16.884  0.00  0.00    +0.000 N 
ATOM     30  C   UNL     1      -3.582   9.688  17.595  0.00  0.00    +0.000 C 
ATOM     31  C   UNL     1      -3.153  10.769  15.391  0.00  0.00    +0.000 C 
ENDBRANCH  27  29
ENDBRANCH   1  27
TORSDOF 5
ENDMDL
MODEL 9
REMARK VINA RESULT:      -6.9      2.344      3.074
REMARK  Name = 
REMARK  8 active torsions:
REMARK  status: ('A' for Active; 'I' for Inactive)
REMARK    1  A    between atoms: C_1  and  N_2
REMARK    2  A    between atoms: N_2  and  C_3
REMARK    3  A    between atoms: N_2  and  C_4
REMARK    4  A    between atoms: N_2  and  C_5
REMARK    5  A    between atoms: C_5  and  C_6
REMARK    6  A    between atoms: C_9  and  N_10
REMARK    7  A    between atoms: C_15  and  C_16
REMARK    8  A    between atoms: C_19  and  N_20
REMARK                            x       y       z     vdW  Elec       q    Type
REMARK                         _______ _______ _______ _____ _____    ______ ____
ROOT
ATOM      1  C   UNL     1       3.887   5.952  17.801  0.00  0.00    +0.000 A 
ATOM      2  C   UNL     1       3.540   5.260  18.961  0.00  0.00    +0.000 A 
ATOM      3  F   UNL     1       3.942   3.986  19.090  0.00  0.00    +0.000 F 
ATOM      4  C   UNL     1       2.727   5.823  19.959  0.00  0.00    +0.000 A 
ATOM      5  C   UNL     1       2.236   7.129  19.746  0.00  0.00    +0.000 A 
ATOM      6  C   UNL     1       1.356   7.787  20.737  0.00  0.00    +0.000 A 
ATOM      7  O   UNL     1       1.074   7.266  21.804  0.00  0.00    +0.000 OA
ATOM      8  C   UNL     1       0.859   9.128  20.399  0.00  0.00    +0.000 A 
ATOM      9  C   UNL     1       1.258   9.694  19.261  0.00  0.00    +0.000 A 
ATOM     10  O   UNL     1       2.121   9.113  18.348  0.00  0.00    +0.000 OA
ATOM     11  C   UNL     1       2.594   7.851  18.610  0.00  0.00    +0.000 A 
ATOM     12  C   UNL     1       3.428   7.259  17.655  0.00  0.00    +0.000 A 
ATOM     13  F   UNL     1       3.740   7.932  16.538  0.00  0.00    +0.000 F 
ENDROOT
BRANCH   9  14
ATOM     14  C   UNL     1       0.788  11.028  18.881  0.00  0.00    +0.000 A 
ATOM     15  C   UNL     1      -0.582  11.297  18.776  0.00  0.00    +0.000 A 
ATOM     16  C   UNL     1      -1.033  12.605  18.551  0.00  0.00    +0.000 A 
ATOM     17  C   UNL     1      -0.126  13.650  18.367  0.00  0.00    +0.000 A 
ATOM     18  C   UNL     1       1.242  13.358  18.452  0.00  0.00    +0.000 A 
ATOM     19  F   UNL     1       2.140  14.348  18.328  0.00  0.00    +0.000 F 
ATOM     20  C   UNL     1       1.705  12.064  18.685  0.00  0.00    +0.000 A 
BRANCH  17  21
ATOM     21  N   UNL     1      -0.576  14.979  18.364  0.00  0.00    +0.000 N 
ATOM     22  H   UNL     1      -0.104  15.599  19.012  0.00  0.00    +0.000 HD
ATOM     23  H   UNL     1      -1.591  15.056  18.405  0.00  0.00    +0.000 HD
ENDBRANCH  17  21
ENDBRANCH   9  14
BRANCH   4  24
ATOM     24  N   UNL     1       2.215   4.981  20.964  0.00  0.00    +0.000 N 
ATOM     25  H   UNL     1       2.731   4.980  21.840  0.00  0.00    +0.000 HD
ATOM     26  H   UNL     1       1.201   5.094  21.106  0.00  0.00    +0.000 HD
ENDBRANCH   4  24
BRANCH   1  27
ATOM     27  C   UNL     1       4.654   5.260  16.712  0.00  0.00    +0.000 C 
BRANCH  27  29
ATOM     28  C   UNL     1       6.771   4.414  17.728  0.00  0.00    +0.000 C 
ATOM     29  N   UNL     1       6.195   5.432  16.746  0.00  0.00    +0.000 N 
ATOM     30  C   UNL     1       6.580   6.827  17.224  0.00  0.00    +0.000 C 
ATOM     31  C   UNL     1       6.810   5.173  15.374  0.00  0.00    +0.000 C 
ENDBRANCH  27  29
ENDBRANCH   1  27
TORSDOF 5
ENDMDL
