MODEL 1
REMARK VINA RESULT:      -8.0      0.000      0.000
REMARK  Name = 
REMARK  2 active torsions:
REMARK  status: ('A' for Active; 'I' for Inactive)
REMARK    1  A    between atoms: C_10  and  C_11
REMARK    2  A    between atoms: N_17  and  C_18
REMARK                            x       y       z     vdW  Elec       q    Type
REMARK                         _______ _______ _______ _____ _____    ______ ____
ROOT
ATOM      1  N   UNL     1       2.054  10.870  17.904  0.00  0.00    +0.000 NA
ATOM      2  C   UNL     1       1.650  10.017  18.779  0.00  0.00    +0.000 A 
ATOM      3  S   UNL     1       0.561  10.521  20.004  0.00  0.00    +0.000 S 
ATOM      4  C   UNL     1       0.459   9.142  21.053  0.00  0.00    +0.000 A 
ATOM      5  S   UNL     1      -0.414   9.206  22.479  0.00  0.00    +0.000 S 
ATOM      6  N   UNL     1       1.098   7.904  20.735  0.00  0.00    +0.000 N 
ATOM      7  C   UNL     1       1.834   7.676  19.594  0.00  0.00    +0.000 A 
ATOM      8  C   UNL     1       2.110   8.666  18.692  0.00  0.00    +0.000 A 
ATOM      9  C   UNL     1       2.950   8.090  17.711  0.00  0.00    +0.000 A 
ATOM     10  C   UNL     1       3.171   6.753  18.016  0.00  0.00    +0.000 A 
ATOM     11  N   UNL     1       2.482   6.498  19.215  0.00  0.00    +0.000 N 
ATOM     12  H   UNL     1       1.626  11.781  18.109  0.00  0.00    +0.000 HD
ATOM     13  H   UNL     1       1.012   7.166  21.432  0.00  0.00    +0.000 HD
ENDROOT
BRANCH  10  14
ATOM     14  C   UNL     1       3.938   5.793  17.192  0.00  0.00    +0.000 A 
ATOM     15  C   UNL     1       4.997   6.256  16.397  0.00  0.00    +0.000 A 
ATOM     16  C   UNL     1       5.772   5.371  15.640  0.00  0.00    +0.000 A 
ATOM     17  C   UNL     1       5.508   4.005  15.682  0.00  0.00    +0.000 A 
ATOM     18  C   UNL     1       4.441   3.531  16.438  0.00  0.00    +0.000 A 
ATOM     19  C   UNL     1       3.639   4.424  17.155  0.00  0.00    +0.000 A 
ENDBRANCH  10  14
BRANCH  11  20
ATOM     20  C   UNL     1       2.443   5.274  19.951  0.00  0.00    +0.000 A 
ATOM     21  C   UNL     1       3.631   4.603  20.269  0.00  0.00    +0.000 A 
ATOM     22  C   UNL     1       3.586   3.336  20.852  0.00  0.00    +0.000 A 
ATOM     23  C   UNL     1       2.361   2.754  21.164  0.00  0.00    +0.000 A 
ATOM     24  C   UNL     1       1.175   3.439  20.900  0.00  0.00    +0.000 A 
ATOM     25  C   UNL     1       1.210   4.697  20.289  0.00  0.00    +0.000 A 
ENDBRANCH  11  20
TORSDOF 2
ENDMDL
MODEL 2
REMARK VINA RESULT:      -7.7      0.630      1.129
REMARK  Name = 
REMARK  2 active torsions:
REMARK  status: ('A' for Active; 'I' for Inactive)
REMARK    1  A    between atoms: C_10  and  C_11
REMARK    2  A    between atoms: N_17  and  C_18
REMARK                            x       y       z     vdW  Elec       q    Type
REMARK                         _______ _______ _______ _____ _____    ______ ____
ROOT
ATOM      1  N   UNL     1       2.204  10.617  17.492  0.00  0.00    +0.000 NA
ATOM      2  C   UNL     1       1.830   9.776  18.391  0.00  0.00    +0.000 A 
ATOM      3  S   UNL     1       0.650  10.244  19.542  0.00  0.00    +0.000 S 
ATOM      4  C   UNL     1       0.612   8.912  20.654  0.00  0.00    +0.000 A 
ATOM      5  S   UNL     1      -0.327   8.970  22.038  0.00  0.00    +0.000 S 
ATOM      6  N   UNL     1       1.364   7.718  20.427  0.00  0.00    +0.000 N 
ATOM      7  C   UNL     1       2.167   7.499  19.331  0.00  0.00    +0.000 A 
ATOM      8  C   UNL     1       2.402   8.465  18.392  0.00  0.00    +0.000 A 
ATOM      9  C   UNL     1       3.331   7.915  17.477  0.00  0.00    +0.000 A 
ATOM     10  C   UNL     1       3.646   6.617  17.859  0.00  0.00    +0.000 A 
ATOM     11  N   UNL     1       2.926   6.363  19.039  0.00  0.00    +0.000 N 
ATOM     12  H   UNL     1       1.693  11.497  17.631  0.00  0.00    +0.000 HD
ATOM     13  H   UNL     1       1.307   7.009  21.156  0.00  0.00    +0.000 HD
ENDROOT
BRANCH  10  14
ATOM     14  C   UNL     1       4.525   5.687  17.117  0.00  0.00    +0.000 A 
ATOM     15  C   UNL     1       4.000   4.484  16.622  0.00  0.00    +0.000 A 
ATOM     16  C   UNL     1       4.790   3.603  15.879  0.00  0.00    +0.000 A 
ATOM     17  C   UNL     1       6.116   3.921  15.603  0.00  0.00    +0.000 A 
ATOM     18  C   UNL     1       6.665   5.093  16.114  0.00  0.00    +0.000 A 
ATOM     19  C   UNL     1       5.885   5.949  16.897  0.00  0.00    +0.000 A 
ENDBRANCH  10  14
BRANCH  11  20
ATOM     20  C   UNL     1       2.953   5.176  19.834  0.00  0.00    +0.000 A 
ATOM     21  C   UNL     1       4.055   4.313  19.778  0.00  0.00    +0.000 A 
ATOM     22  C   UNL     1       4.017   3.082  20.435  0.00  0.00    +0.000 A 
ATOM     23  C   UNL     1       2.902   2.728  21.189  0.00  0.00    +0.000 A 
ATOM     24  C   UNL     1       1.823   3.606  21.295  0.00  0.00    +0.000 A 
ATOM     25  C   UNL     1       1.841   4.828  20.615  0.00  0.00    +0.000 A 
ENDBRANCH  11  20
TORSDOF 2
ENDMDL
MODEL 3
REMARK VINA RESULT:      -7.6      0.187      1.018
REMARK  Name = 
REMARK  2 active torsions:
REMARK  status: ('A' for Active; 'I' for Inactive)
REMARK    1  A    between atoms: C_10  and  C_11
REMARK    2  A    between atoms: N_17  and  C_18
REMARK                            x       y       z     vdW  Elec       q    Type
REMARK                         _______ _______ _______ _____ _____    ______ ____
ROOT
ATOM      1  N   UNL     1       2.203  10.867  17.949  0.00  0.00    +0.000 NA
ATOM      2  C   UNL     1       1.751   9.983  18.768  0.00  0.00    +0.000 A 
ATOM      3  S   UNL     1       0.625  10.450  19.973  0.00  0.00    +0.000 S 
ATOM      4  C   UNL     1       0.460   9.027  20.953  0.00  0.00    +0.000 A 
ATOM      5  S   UNL     1      -0.466   9.042  22.346  0.00  0.00    +0.000 S 
ATOM      6  N   UNL     1       1.091   7.793  20.603  0.00  0.00    +0.000 N 
ATOM      7  C   UNL     1       1.867   7.605  19.482  0.00  0.00    +0.000 A 
ATOM      8  C   UNL     1       2.192   8.629  18.637  0.00  0.00    +0.000 A 
ATOM      9  C   UNL     1       3.060   8.083  17.662  0.00  0.00    +0.000 A 
ATOM     10  C   UNL     1       3.248   6.730  17.914  0.00  0.00    +0.000 A 
ATOM     11  N   UNL     1       2.510   6.433  19.073  0.00  0.00    +0.000 N 
ATOM     12  H   UNL     1       1.781  11.775  18.179  0.00  0.00    +0.000 HD
ATOM     13  H   UNL     1       0.966   7.026  21.261  0.00  0.00    +0.000 HD
ENDROOT
BRANCH  10  14
ATOM     14  C   UNL     1       4.031   5.795  17.076  0.00  0.00    +0.000 A 
ATOM     15  C   UNL     1       5.033   6.296  16.232  0.00  0.00    +0.000 A 
ATOM     16  C   UNL     1       5.822   5.437  15.460  0.00  0.00    +0.000 A 
ATOM     17  C   UNL     1       5.631   4.061  15.536  0.00  0.00    +0.000 A 
ATOM     18  C   UNL     1       4.619   3.548  16.341  0.00  0.00    +0.000 A 
ATOM     19  C   UNL     1       3.801   4.412  17.074  0.00  0.00    +0.000 A 
ENDBRANCH  10  14
BRANCH  11  20
ATOM     20  C   UNL     1       2.423   5.178  19.750  0.00  0.00    +0.000 A 
ATOM     21  C   UNL     1       1.181   4.559  19.934  0.00  0.00    +0.000 A 
ATOM     22  C   UNL     1       1.077   3.414  20.726  0.00  0.00    +0.000 A 
ATOM     23  C   UNL     1       2.217   2.855  21.296  0.00  0.00    +0.000 A 
ATOM     24  C   UNL     1       3.466   3.435  21.073  0.00  0.00    +0.000 A 
ATOM     25  C   UNL     1       3.574   4.600  20.305  0.00  0.00    +0.000 A 
ENDBRANCH  11  20
TORSDOF 2
ENDMDL
MODEL 4
REMARK VINA RESULT:      -7.5      0.568      1.399
REMARK  Name = 
REMARK  2 active torsions:
REMARK  status: ('A' for Active; 'I' for Inactive)
REMARK    1  A    between atoms: C_10  and  C_11
REMARK    2  A    between atoms: N_17  and  C_18
REMARK                            x       y       z     vdW  Elec       q    Type
REMARK                         _______ _______ _______ _____ _____    ______ ____
ROOT
ATOM      1  N   UNL     1       2.419  11.042  17.871  0.00  0.00    +0.000 NA
ATOM      2  C   UNL     1       1.860  10.183  18.649  0.00  0.00    +0.000 A 
ATOM      3  S   UNL     1       0.667  10.707  19.763  0.00  0.00    +0.000 S 
ATOM      4  C   UNL     1       0.354   9.295  20.721  0.00  0.00    +0.000 A 
ATOM      5  S   UNL     1      -0.677   9.357  22.038  0.00  0.00    +0.000 S 
ATOM      6  N   UNL     1       0.947   8.030  20.418  0.00  0.00    +0.000 N 
ATOM      7  C   UNL     1       1.798   7.802  19.361  0.00  0.00    +0.000 A 
ATOM      8  C   UNL     1       2.241   8.808  18.548  0.00  0.00    +0.000 A 
ATOM      9  C   UNL     1       3.155   8.219  17.643  0.00  0.00    +0.000 A 
ATOM     10  C   UNL     1       3.253   6.858  17.904  0.00  0.00    +0.000 A 
ATOM     11  N   UNL     1       2.411   6.600  19.000  0.00  0.00    +0.000 N 
ATOM     12  H   UNL     1       2.027  11.971  18.070  0.00  0.00    +0.000 HD
ATOM     13  H   UNL     1       0.732   7.271  21.062  0.00  0.00    +0.000 HD
ENDROOT
BRANCH  10  14
ATOM     14  C   UNL     1       4.051   5.884  17.127  0.00  0.00    +0.000 A 
ATOM     15  C   UNL     1       3.892   4.511  17.367  0.00  0.00    +0.000 A 
ATOM     16  C   UNL     1       4.597   3.561  16.621  0.00  0.00    +0.000 A 
ATOM     17  C   UNL     1       5.459   3.972  15.609  0.00  0.00    +0.000 A 
ATOM     18  C   UNL     1       5.655   5.330  15.379  0.00  0.00    +0.000 A 
ATOM     19  C   UNL     1       4.986   6.277  16.159  0.00  0.00    +0.000 A 
ENDBRANCH  10  14
BRANCH  11  20
ATOM     20  C   UNL     1       2.208   5.351  19.664  0.00  0.00    +0.000 A 
ATOM     21  C   UNL     1       1.317   4.407  19.138  0.00  0.00    +0.000 A 
ATOM     22  C   UNL     1       1.004   3.257  19.863  0.00  0.00    +0.000 A 
ATOM     23  C   UNL     1       1.614   3.018  21.091  0.00  0.00    +0.000 A 
ATOM     24  C   UNL     1       2.544   3.927  21.597  0.00  0.00    +0.000 A 
ATOM     25  C   UNL     1       2.841   5.097  20.890  0.00  0.00    +0.000 A 
ENDBRANCH  11  20
TORSDOF 2
ENDMDL
MODEL 5
REMARK VINA RESULT:      -7.3      6.087      7.291
REMARK  Name = 
REMARK  2 active torsions:
REMARK  status: ('A' for Active; 'I' for Inactive)
REMARK    1  A    between atoms: C_10  and  C_11
REMARK    2  A    between atoms: N_17  and  C_18
REMARK                            x       y       z     vdW  Elec       q    Type
REMARK                         _______ _______ _______ _____ _____    ______ ____
ROOT
ATOM      1  N   UNL     1       3.287  14.925  17.359  0.00  0.00    +0.000 NA
ATOM      2  C   UNL     1       3.183  14.546  18.584  0.00  0.00    +0.000 A 
ATOM      3  S   UNL     1       4.300  15.134  19.744  0.00  0.00    +0.000 S 
ATOM      4  C   UNL     1       3.926  14.221  21.171  0.00  0.00    +0.000 A 
ATOM      5  S   UNL     1       4.851  14.371  22.558  0.00  0.00    +0.000 S 
ATOM      6  N   UNL     1       2.813  13.325  21.224  0.00  0.00    +0.000 N 
ATOM      7  C   UNL     1       1.942  13.102  20.182  0.00  0.00    +0.000 A 
ATOM      8  C   UNL     1       2.125  13.654  18.945  0.00  0.00    +0.000 A 
ATOM      9  C   UNL     1       1.097  13.138  18.121  0.00  0.00    +0.000 A 
ATOM     10  C   UNL     1       0.290  12.286  18.864  0.00  0.00    +0.000 A 
ATOM     11  N   UNL     1       0.836  12.249  20.160  0.00  0.00    +0.000 N 
ATOM     12  H   UNL     1       4.088  15.563  17.277  0.00  0.00    +0.000 HD
ATOM     13  H   UNL     1       2.699  12.806  22.093  0.00  0.00    +0.000 HD
ENDROOT
BRANCH  10  14
ATOM     14  C   UNL     1      -0.931  11.608  18.378  0.00  0.00    +0.000 A 
ATOM     15  C   UNL     1      -0.819  10.392  17.687  0.00  0.00    +0.000 A 
ATOM     16  C   UNL     1      -1.955   9.702  17.252  0.00  0.00    +0.000 A 
ATOM     17  C   UNL     1      -3.223  10.211  17.518  0.00  0.00    +0.000 A 
ATOM     18  C   UNL     1      -3.353  11.432  18.171  0.00  0.00    +0.000 A 
ATOM     19  C   UNL     1      -2.214  12.143  18.562  0.00  0.00    +0.000 A 
ENDBRANCH  10  14
BRANCH  11  20
ATOM     20  C   UNL     1       0.380  11.477  21.272  0.00  0.00    +0.000 A 
ATOM     21  C   UNL     1       0.892  10.193  21.498  0.00  0.00    +0.000 A 
ATOM     22  C   UNL     1       0.339   9.381  22.490  0.00  0.00    +0.000 A 
ATOM     23  C   UNL     1      -0.691   9.864  23.292  0.00  0.00    +0.000 A 
ATOM     24  C   UNL     1      -1.170  11.161  23.109  0.00  0.00    +0.000 A 
ATOM     25  C   UNL     1      -0.641  11.970  22.097  0.00  0.00    +0.000 A 
ENDBRANCH  11  20
TORSDOF 2
ENDMDL
MODEL 6
REMARK VINA RESULT:      -7.2      0.660      1.200
REMARK  Name = 
REMARK  2 active torsions:
REMARK  status: ('A' for Active; 'I' for Inactive)
REMARK    1  A    between atoms: C_10  and  C_11
REMARK    2  A    between atoms: N_17  and  C_18
REMARK                            x       y       z     vdW  Elec       q    Type
REMARK                         _______ _______ _______ _____ _____    ______ ____
ROOT
ATOM      1  N   UNL     1       2.579  10.997  17.499  0.00  0.00    +0.000 NA
ATOM      2  C   UNL     1       1.973  10.229  18.334  0.00  0.00    +0.000 A 
ATOM      3  S   UNL     1       0.789  10.893  19.381  0.00  0.00    +0.000 S 
ATOM      4  C   UNL     1       0.401   9.578  20.446  0.00  0.00    +0.000 A 
ATOM      5  S   UNL     1      -0.644   9.792  21.735  0.00  0.00    +0.000 S 
ATOM      6  N   UNL     1       0.942   8.269  20.255  0.00  0.00    +0.000 N 
ATOM      7  C   UNL     1       1.796   7.919  19.235  0.00  0.00    +0.000 A 
ATOM      8  C   UNL     1       2.294   8.836  18.351  0.00  0.00    +0.000 A 
ATOM      9  C   UNL     1       3.192   8.136  17.512  0.00  0.00    +0.000 A 
ATOM     10  C   UNL     1       3.228   6.797  17.883  0.00  0.00    +0.000 A 
ATOM     11  N   UNL     1       2.360   6.666  18.983  0.00  0.00    +0.000 N 
ATOM     12  H   UNL     1       2.226  11.955  17.616  0.00  0.00    +0.000 HD
ATOM     13  H   UNL     1       0.685   7.574  20.955  0.00  0.00    +0.000 HD
ENDROOT
BRANCH  10  14
ATOM     14  C   UNL     1       3.992   5.730  17.202  0.00  0.00    +0.000 A 
ATOM     15  C   UNL     1       3.691   4.386  17.466  0.00  0.00    +0.000 A 
ATOM     16  C   UNL     1       4.362   3.352  16.807  0.00  0.00    +0.000 A 
ATOM     17  C   UNL     1       5.334   3.649  15.856  0.00  0.00    +0.000 A 
ATOM     18  C   UNL     1       5.671   4.975  15.605  0.00  0.00    +0.000 A 
ATOM     19  C   UNL     1       5.031   6.005  16.301  0.00  0.00    +0.000 A 
ENDBRANCH  10  14
BRANCH  11  20
ATOM     20  C   UNL     1       2.093   5.485  19.742  0.00  0.00    +0.000 A 
ATOM     21  C   UNL     1       2.828   5.209  20.902  0.00  0.00    +0.000 A 
ATOM     22  C   UNL     1       2.674   3.986  21.556  0.00  0.00    +0.000 A 
ATOM     23  C   UNL     1       1.753   3.054  21.086  0.00  0.00    +0.000 A 
ATOM     24  C   UNL     1       0.978   3.344  19.963  0.00  0.00    +0.000 A 
ATOM     25  C   UNL     1       1.149   4.555  19.283  0.00  0.00    +0.000 A 
ENDBRANCH  11  20
TORSDOF 2
ENDMDL
MODEL 7
REMARK VINA RESULT:      -7.1      5.943      7.355
REMARK  Name = 
REMARK  2 active torsions:
REMARK  status: ('A' for Active; 'I' for Inactive)
REMARK    1  A    between atoms: C_10  and  C_11
REMARK    2  A    between atoms: N_17  and  C_18
REMARK                            x       y       z     vdW  Elec       q    Type
REMARK                         _______ _______ _______ _____ _____    ______ ____
ROOT
ATOM      1  N   UNL     1       2.466  15.431  17.562  0.00  0.00    +0.000 NA
ATOM      2  C   UNL     1       2.522  14.873  18.720  0.00  0.00    +0.000 A 
ATOM      3  S   UNL     1       3.698  15.398  19.851  0.00  0.00    +0.000 S 
ATOM      4  C   UNL     1       3.551  14.260  21.153  0.00  0.00    +0.000 A 
ATOM      5  S   UNL     1       4.598  14.301  22.458  0.00  0.00    +0.000 S 
ATOM      6  N   UNL     1       2.530  13.259  21.169  0.00  0.00    +0.000 N 
ATOM      7  C   UNL     1       1.578  13.102  20.187  0.00  0.00    +0.000 A 
ATOM      8  C   UNL     1       1.585  13.840  19.036  0.00  0.00    +0.000 A 
ATOM      9  C   UNL     1       0.526  13.347  18.239  0.00  0.00    +0.000 A 
ATOM     10  C   UNL     1      -0.125  12.322  18.914  0.00  0.00    +0.000 A 
ATOM     11  N   UNL     1       0.551  12.156  20.135  0.00  0.00    +0.000 N 
ATOM     12  H   UNL     1       3.198  16.150  17.507  0.00  0.00    +0.000 HD
ATOM     13  H   UNL     1       2.550  12.614  21.956  0.00  0.00    +0.000 HD
ENDROOT
BRANCH  10  14
ATOM     14  C   UNL     1      -1.329  11.603  18.442  0.00  0.00    +0.000 A 
ATOM     15  C   UNL     1      -2.602  12.102  18.758  0.00  0.00    +0.000 A 
ATOM     16  C   UNL     1      -3.760  11.473  18.291  0.00  0.00    +0.000 A 
ATOM     17  C   UNL     1      -3.661  10.345  17.483  0.00  0.00    +0.000 A 
ATOM     18  C   UNL     1      -2.409   9.816  17.186  0.00  0.00    +0.000 A 
ATOM     19  C   UNL     1      -1.255  10.419  17.695  0.00  0.00    +0.000 A 
ENDBRANCH  10  14
BRANCH  11  20
ATOM     20  C   UNL     1       0.280  11.192  21.155  0.00  0.00    +0.000 A 
ATOM     21  C   UNL     1      -0.708  11.440  22.116  0.00  0.00    +0.000 A 
ATOM     22  C   UNL     1      -0.869  10.573  23.198  0.00  0.00    +0.000 A 
ATOM     23  C   UNL     1      -0.080   9.431  23.299  0.00  0.00    +0.000 A 
ATOM     24  C   UNL     1       0.869   9.148  22.316  0.00  0.00    +0.000 A 
ATOM     25  C   UNL     1       1.057  10.029  21.245  0.00  0.00    +0.000 A 
ENDBRANCH  11  20
TORSDOF 2
ENDMDL
MODEL 8
REMARK VINA RESULT:      -7.0      5.114      7.388
REMARK  Name = 
REMARK  2 active torsions:
REMARK  status: ('A' for Active; 'I' for Inactive)
REMARK    1  A    between atoms: C_10  and  C_11
REMARK    2  A    between atoms: N_17  and  C_18
REMARK                            x       y       z     vdW  Elec       q    Type
REMARK                         _______ _______ _______ _____ _____    ______ ____
ROOT
ATOM      1  N   UNL     1       0.968  16.454  18.322  0.00  0.00    +0.000 NA
ATOM      2  C   UNL     1       1.410  15.604  19.181  0.00  0.00    +0.000 A 
ATOM      3  S   UNL     1       2.741  16.026  20.175  0.00  0.00    +0.000 S 
ATOM      4  C   UNL     1       3.119  14.548  21.002  0.00  0.00    +0.000 A 
ATOM      5  S   UNL     1       4.448  14.441  22.013  0.00  0.00    +0.000 S 
ATOM      6  N   UNL     1       2.308  13.378  20.866  0.00  0.00    +0.000 N 
ATOM      7  C   UNL     1       1.171  13.304  20.093  0.00  0.00    +0.000 A 
ATOM      8  C   UNL     1       0.763  14.333  19.291  0.00  0.00    +0.000 A 
ATOM      9  C   UNL     1      -0.376  13.868  18.592  0.00  0.00    +0.000 A 
ATOM     10  C   UNL     1      -0.659  12.564  18.981  0.00  0.00    +0.000 A 
ATOM     11  N   UNL     1       0.329  12.203  19.914  0.00  0.00    +0.000 N 
ATOM     12  H   UNL     1       1.537  17.307  18.380  0.00  0.00    +0.000 HD
ATOM     13  H   UNL     1       2.633  12.550  21.361  0.00  0.00    +0.000 HD
ENDROOT
BRANCH  10  14
ATOM     14  C   UNL     1      -1.814  11.759  18.529  0.00  0.00    +0.000 A 
ATOM     15  C   UNL     1      -3.108  12.112  18.942  0.00  0.00    +0.000 A 
ATOM     16  C   UNL     1      -4.226  11.400  18.499  0.00  0.00    +0.000 A 
ATOM     17  C   UNL     1      -4.068  10.333  17.619  0.00  0.00    +0.000 A 
ATOM     18  C   UNL     1      -2.791   9.947  17.225  0.00  0.00    +0.000 A 
ATOM     19  C   UNL     1      -1.672  10.631  17.709  0.00  0.00    +0.000 A 
ENDBRANCH  10  14
BRANCH  11  20
ATOM     20  C   UNL     1       0.487  10.942  20.568  0.00  0.00    +0.000 A 
ATOM     21  C   UNL     1       1.137   9.886  19.918  0.00  0.00    +0.000 A 
ATOM     22  C   UNL     1       1.157   8.614  20.492  0.00  0.00    +0.000 A 
ATOM     23  C   UNL     1       0.572   8.401  21.737  0.00  0.00    +0.000 A 
ATOM     24  C   UNL     1      -0.030   9.461  22.416  0.00  0.00    +0.000 A 
ATOM     25  C   UNL     1      -0.080  10.732  21.833  0.00  0.00    +0.000 A 
ENDBRANCH  11  20
TORSDOF 2
ENDMDL
MODEL 9
REMARK VINA RESULT:      -7.0      7.048      8.928
REMARK  Name = 
REMARK  2 active torsions:
REMARK  status: ('A' for Active; 'I' for Inactive)
REMARK    1  A    between atoms: C_10  and  C_11
REMARK    2  A    between atoms: N_17  and  C_18
REMARK                            x       y       z     vdW  Elec       q    Type
REMARK                         _______ _______ _______ _____ _____    ______ ____
ROOT
ATOM      1  N   UNL     1      -7.235  13.279  21.298  0.00  0.00    +0.000 NA
ATOM      2  C   UNL     1      -6.025  13.415  21.716  0.00  0.00    +0.000 A 
ATOM      3  S   UNL     1      -5.739  14.135  23.245  0.00  0.00    +0.000 S 
ATOM      4  C   UNL     1      -4.013  14.305  23.301  0.00  0.00    +0.000 A 
ATOM      5  S   UNL     1      -3.263  15.081  24.580  0.00  0.00    +0.000 S 
ATOM      6  N   UNL     1      -3.170  13.779  22.273  0.00  0.00    +0.000 N 
ATOM      7  C   UNL     1      -3.622  13.097  21.166  0.00  0.00    +0.000 A 
ATOM      8  C   UNL     1      -4.953  12.944  20.895  0.00  0.00    +0.000 A 
ATOM      9  C   UNL     1      -5.033  12.277  19.650  0.00  0.00    +0.000 A 
ATOM     10  C   UNL     1      -3.752  12.019  19.178  0.00  0.00    +0.000 A 
ATOM     11  N   UNL     1      -2.863  12.554  20.127  0.00  0.00    +0.000 N 
ATOM     12  H   UNL     1      -7.873  13.660  22.007  0.00  0.00    +0.000 HD
ATOM     13  H   UNL     1      -2.173  13.963  22.376  0.00  0.00    +0.000 HD
ENDROOT
BRANCH  10  14
ATOM     14  C   UNL     1      -3.419  11.274  17.945  0.00  0.00    +0.000 A 
ATOM     15  C   UNL     1      -4.150  11.514  16.772  0.00  0.00    +0.000 A 
ATOM     16  C   UNL     1      -3.833  10.861  15.577  0.00  0.00    +0.000 A 
ATOM     17  C   UNL     1      -2.766   9.969  15.533  0.00  0.00    +0.000 A 
ATOM     18  C   UNL     1      -2.051   9.692  16.694  0.00  0.00    +0.000 A 
ATOM     19  C   UNL     1      -2.401  10.311  17.898  0.00  0.00    +0.000 A 
ENDBRANCH  10  14
BRANCH  11  20
ATOM     20  C   UNL     1      -1.435  12.573  20.065  0.00  0.00    +0.000 A 
ATOM     21  C   UNL     1      -0.777  13.474  19.219  0.00  0.00    +0.000 A 
ATOM     22  C   UNL     1       0.605  13.391  19.043  0.00  0.00    +0.000 A 
ATOM     23  C   UNL     1       1.342  12.442  19.746  0.00  0.00    +0.000 A 
ATOM     24  C   UNL     1       0.700  11.577  20.633  0.00  0.00    +0.000 A 
ATOM     25  C   UNL     1      -0.689  11.634  20.791  0.00  0.00    +0.000 A 
ENDBRANCH  11  20
TORSDOF 2
ENDMDL
