MODEL 1
REMARK VINA RESULT:      -7.9      0.000      0.000
REMARK  Name = 
REMARK  3 active torsions:
REMARK  status: ('A' for Active; 'I' for Inactive)
REMARK    1  A    between atoms: C_9  and  N_10
REMARK    2  A    between atoms: N_10  and  C_11
REMARK    3  A    between atoms: C_11  and  C_12
REMARK                            x       y       z     vdW  Elec       q    Type
REMARK                         _______ _______ _______ _____ _____    ______ ____
ROOT
ATOM      1  N   UNL     1       1.518   2.540  22.200  0.00  0.00    +0.000 N 
ATOM      2  C   UNL     1       2.056   3.251  21.144  0.00  0.00    +0.000 A 
ATOM      3  N   UNL     1       1.892   4.568  21.149  0.00  0.00    +0.000 NA
ATOM      4  C   UNL     1       2.422   5.247  20.121  0.00  0.00    +0.000 A 
ATOM      5  N   UNL     1       2.083   6.599  20.120  0.00  0.00    +0.000 N 
ATOM      6  C   UNL     1       3.131   4.644  19.065  0.00  0.00    +0.000 A 
ATOM      7  C   UNL     1       3.777   5.275  17.953  0.00  0.00    +0.000 A 
ATOM      8 CL   UNL     1       3.963   7.014  17.887  0.00  0.00    +0.000 Cl
ATOM      9  C   UNL     1       4.383   4.535  16.908  0.00  0.00    +0.000 A 
ATOM     10  C   UNL     1       4.332   3.148  17.000  0.00  0.00    +0.000 A 
ATOM     11  C   UNL     1       3.758   2.528  18.120  0.00  0.00    +0.000 A 
ATOM     12  C   UNL     1       3.167   3.249  19.151  0.00  0.00    +0.000 A 
ATOM     13  N   UNL     1       2.645   2.561  20.172  0.00  0.00    +0.000 NA
ATOM     14  H   UNL     1       0.758   3.067  22.607  0.00  0.00    +0.000 HD
ATOM     15  H   UNL     1       1.316   1.595  21.906  0.00  0.00    +0.000 HD
ATOM     16  H   UNL     1       1.648   6.836  21.006  0.00  0.00    +0.000 HD
ATOM     17  H   UNL     1       2.855   7.207  19.868  0.00  0.00    +0.000 HD
ENDROOT
BRANCH   9  18
ATOM     18  N   UNL     1       4.866   5.201  15.773  0.00  0.00    +0.000 N 
ATOM     19  H   UNL     1       4.422   6.115  15.671  0.00  0.00    +0.000 HD
BRANCH  18  20
ATOM     20  C   UNL     1       6.290   5.267  15.480  0.00  0.00    +0.000 C 
BRANCH  20  21
ATOM     21  C   UNL     1       7.021   5.821  16.686  0.00  0.00    +0.000 A 
ATOM     22  C   UNL     1       7.267   7.194  16.823  0.00  0.00    +0.000 A 
ATOM     23  C   UNL     1       7.882   7.694  17.975  0.00  0.00    +0.000 A 
ATOM     24  C   UNL     1       8.270   6.828  18.996  0.00  0.00    +0.000 A 
ATOM     25  C   UNL     1       8.057   5.458  18.861  0.00  0.00    +0.000 A 
ATOM     26  C   UNL     1       7.435   4.959  17.715  0.00  0.00    +0.000 A 
ENDBRANCH  20  21
ENDBRANCH  18  20
ENDBRANCH   9  18
TORSDOF 3
ENDMDL
MODEL 2
REMARK VINA RESULT:      -7.7      2.614      6.088
REMARK  Name = 
REMARK  3 active torsions:
REMARK  status: ('A' for Active; 'I' for Inactive)
REMARK    1  A    between atoms: C_9  and  N_10
REMARK    2  A    between atoms: N_10  and  C_11
REMARK    3  A    between atoms: C_11  and  C_12
REMARK                            x       y       z     vdW  Elec       q    Type
REMARK                         _______ _______ _______ _____ _____    ______ ____
ROOT
ATOM      1  N   UNL     1       8.616   9.186  17.673  0.00  0.00    +0.000 N 
ATOM      2  C   UNL     1       7.915   8.003  17.810  0.00  0.00    +0.000 A 
ATOM      3  N   UNL     1       8.194   7.248  18.865  0.00  0.00    +0.000 NA
ATOM      4  C   UNL     1       7.504   6.104  18.989  0.00  0.00    +0.000 A 
ATOM      5  N   UNL     1       7.955   5.299  20.034  0.00  0.00    +0.000 N 
ATOM      6  C   UNL     1       6.518   5.680  18.079  0.00  0.00    +0.000 A 
ATOM      7  C   UNL     1       5.691   4.512  18.142  0.00  0.00    +0.000 A 
ATOM      8 CL   UNL     1       5.655   3.512  19.579  0.00  0.00    +0.000 Cl
ATOM      9  C   UNL     1       4.796   4.158  17.104  0.00  0.00    +0.000 A 
ATOM     10  C   UNL     1       4.741   5.002  15.999  0.00  0.00    +0.000 A 
ATOM     11  C   UNL     1       5.500   6.181  15.963  0.00  0.00    +0.000 A 
ATOM     12  C   UNL     1       6.377   6.535  16.982  0.00  0.00    +0.000 A 
ATOM     13  N   UNL     1       7.056   7.679  16.848  0.00  0.00    +0.000 NA
ATOM     14  H   UNL     1       9.494   9.115  18.168  0.00  0.00    +0.000 HD
ATOM     15  H   UNL     1       8.658   9.445  16.698  0.00  0.00    +0.000 HD
ATOM     16  H   UNL     1       8.603   5.828  20.609  0.00  0.00    +0.000 HD
ATOM     17  H   UNL     1       7.204   4.863  20.559  0.00  0.00    +0.000 HD
ENDROOT
BRANCH   9  18
ATOM     18  N   UNL     1       4.125   2.928  17.151  0.00  0.00    +0.000 N 
ATOM     19  H   UNL     1       4.554   2.306  17.839  0.00  0.00    +0.000 HD
BRANCH  18  20
ATOM     20  C   UNL     1       2.672   2.857  17.203  0.00  0.00    +0.000 C 
BRANCH  20  21
ATOM     21  C   UNL     1       2.211   3.157  18.615  0.00  0.00    +0.000 A 
ATOM     22  C   UNL     1       2.154   2.155  19.593  0.00  0.00    +0.000 A 
ATOM     23  C   UNL     1       1.790   2.464  20.907  0.00  0.00    +0.000 A 
ATOM     24  C   UNL     1       1.467   3.775  21.256  0.00  0.00    +0.000 A 
ATOM     25  C   UNL     1       1.492   4.777  20.288  0.00  0.00    +0.000 A 
ATOM     26  C   UNL     1       1.864   4.470  18.978  0.00  0.00    +0.000 A 
ENDBRANCH  20  21
ENDBRANCH  18  20
ENDBRANCH   9  18
TORSDOF 3
ENDMDL
MODEL 3
REMARK VINA RESULT:      -7.6      1.640      3.167
REMARK  Name = 
REMARK  3 active torsions:
REMARK  status: ('A' for Active; 'I' for Inactive)
REMARK    1  A    between atoms: C_9  and  N_10
REMARK    2  A    between atoms: N_10  and  C_11
REMARK    3  A    between atoms: C_11  and  C_12
REMARK                            x       y       z     vdW  Elec       q    Type
REMARK                         _______ _______ _______ _____ _____    ______ ____
ROOT
ATOM      1  N   UNL     1       1.308   2.515  22.190  0.00  0.00    +0.000 N 
ATOM      2  C   UNL     1       1.915   3.248  21.189  0.00  0.00    +0.000 A 
ATOM      3  N   UNL     1       1.821   4.570  21.259  0.00  0.00    +0.000 NA
ATOM      4  C   UNL     1       2.418   5.271  20.283  0.00  0.00    +0.000 A 
ATOM      5  N   UNL     1       2.150   6.637  20.343  0.00  0.00    +0.000 N 
ATOM      6  C   UNL     1       3.127   4.685  19.217  0.00  0.00    +0.000 A 
ATOM      7  C   UNL     1       3.840   5.335  18.159  0.00  0.00    +0.000 A 
ATOM      8 CL   UNL     1       4.118   7.063  18.189  0.00  0.00    +0.000 Cl
ATOM      9  C   UNL     1       4.438   4.618  17.094  0.00  0.00    +0.000 A 
ATOM     10  C   UNL     1       4.311   3.232  17.112  0.00  0.00    +0.000 A 
ATOM     11  C   UNL     1       3.671   2.588  18.181  0.00  0.00    +0.000 A 
ATOM     12  C   UNL     1       3.087   3.288  19.231  0.00  0.00    +0.000 A 
ATOM     13  N   UNL     1       2.498   2.578  20.199  0.00  0.00    +0.000 NA
ATOM     14  H   UNL     1       0.564   3.061  22.603  0.00  0.00    +0.000 HD
ATOM     15  H   UNL     1       1.066   1.599  21.842  0.00  0.00    +0.000 HD
ATOM     16  H   UNL     1       1.701   6.852  21.227  0.00  0.00    +0.000 HD
ATOM     17  H   UNL     1       2.961   7.215  20.145  0.00  0.00    +0.000 HD
ENDROOT
BRANCH   9  18
ATOM     18  N   UNL     1       4.991   5.313  16.010  0.00  0.00    +0.000 N 
ATOM     19  H   UNL     1       4.628   6.267  15.967  0.00  0.00    +0.000 HD
BRANCH  18  20
ATOM     20  C   UNL     1       6.419   5.273  15.731  0.00  0.00    +0.000 C 
BRANCH  20  21
ATOM     21  C   UNL     1       6.635   4.769  14.318  0.00  0.00    +0.000 A 
ATOM     22  C   UNL     1       5.866   3.722  13.791  0.00  0.00    +0.000 A 
ATOM     23  C   UNL     1       6.034   3.316  12.464  0.00  0.00    +0.000 A 
ATOM     24  C   UNL     1       6.981   3.940  11.653  0.00  0.00    +0.000 A 
ATOM     25  C   UNL     1       7.772   4.963  12.172  0.00  0.00    +0.000 A 
ATOM     26  C   UNL     1       7.598   5.375  13.494  0.00  0.00    +0.000 A 
ENDBRANCH  20  21
ENDBRANCH  18  20
ENDBRANCH   9  18
TORSDOF 3
ENDMDL
MODEL 4
REMARK VINA RESULT:      -7.5      2.579      5.967
REMARK  Name = 
REMARK  3 active torsions:
REMARK  status: ('A' for Active; 'I' for Inactive)
REMARK    1  A    between atoms: C_9  and  N_10
REMARK    2  A    between atoms: N_10  and  C_11
REMARK    3  A    between atoms: C_11  and  C_12
REMARK                            x       y       z     vdW  Elec       q    Type
REMARK                         _______ _______ _______ _____ _____    ______ ____
ROOT
ATOM      1  N   UNL     1       8.371   9.010  17.385  0.00  0.00    +0.000 N 
ATOM      2  C   UNL     1       7.705   7.819  17.603  0.00  0.00    +0.000 A 
ATOM      3  N   UNL     1       8.001   7.148  18.709  0.00  0.00    +0.000 NA
ATOM      4  C   UNL     1       7.346   5.995  18.911  0.00  0.00    +0.000 A 
ATOM      5  N   UNL     1       7.816   5.279  20.010  0.00  0.00    +0.000 N 
ATOM      6  C   UNL     1       6.378   5.478  18.029  0.00  0.00    +0.000 A 
ATOM      7  C   UNL     1       5.587   4.293  18.171  0.00  0.00    +0.000 A 
ATOM      8 CL   UNL     1       5.574   3.395  19.674  0.00  0.00    +0.000 Cl
ATOM      9  C   UNL     1       4.708   3.840  17.158  0.00  0.00    +0.000 A 
ATOM     10  C   UNL     1       4.633   4.603  15.996  0.00  0.00    +0.000 A 
ATOM     11  C   UNL     1       5.356   5.799  15.880  0.00  0.00    +0.000 A 
ATOM     12  C   UNL     1       6.216   6.250  16.875  0.00  0.00    +0.000 A 
ATOM     13  N   UNL     1       6.861   7.402  16.663  0.00  0.00    +0.000 NA
ATOM     14  H   UNL     1       9.248   9.001  17.886  0.00  0.00    +0.000 HD
ATOM     15  H   UNL     1       8.409   9.202  16.395  0.00  0.00    +0.000 HD
ATOM     16  H   UNL     1       8.445   5.867  20.549  0.00  0.00    +0.000 HD
ATOM     17  H   UNL     1       7.076   4.859  20.562  0.00  0.00    +0.000 HD
ENDROOT
BRANCH   9  18
ATOM     18  N   UNL     1       4.075   2.596  17.289  0.00  0.00    +0.000 N 
ATOM     19  H   UNL     1       4.556   2.015  17.978  0.00  0.00    +0.000 HD
BRANCH  18  20
ATOM     20  C   UNL     1       2.629   2.490  17.419  0.00  0.00    +0.000 C 
BRANCH  20  21
ATOM     21  C   UNL     1       2.216   2.988  18.790  0.00  0.00    +0.000 A 
ATOM     22  C   UNL     1       1.900   4.336  19.012  0.00  0.00    +0.000 A 
ATOM     23  C   UNL     1       1.456   4.763  20.267  0.00  0.00    +0.000 A 
ATOM     24  C   UNL     1       1.336   3.854  21.317  0.00  0.00    +0.000 A 
ATOM     25  C   UNL     1       1.674   2.517  21.118  0.00  0.00    +0.000 A 
ATOM     26  C   UNL     1       2.109   2.088  19.863  0.00  0.00    +0.000 A 
ENDBRANCH  20  21
ENDBRANCH  18  20
ENDBRANCH   9  18
TORSDOF 3
ENDMDL
MODEL 5
REMARK VINA RESULT:      -7.4      3.665      6.353
REMARK  Name = 
REMARK  3 active torsions:
REMARK  status: ('A' for Active; 'I' for Inactive)
REMARK    1  A    between atoms: C_9  and  N_10
REMARK    2  A    between atoms: N_10  and  C_11
REMARK    3  A    between atoms: C_11  and  C_12
REMARK                            x       y       z     vdW  Elec       q    Type
REMARK                         _______ _______ _______ _____ _____    ______ ____
ROOT
ATOM      1  N   UNL     1       3.769   0.984  18.198  0.00  0.00    +0.000 N 
ATOM      2  C   UNL     1       3.584   2.347  18.330  0.00  0.00    +0.000 A 
ATOM      3  N   UNL     1       4.197   3.134  17.455  0.00  0.00    +0.000 NA
ATOM      4  C   UNL     1       4.006   4.455  17.591  0.00  0.00    +0.000 A 
ATOM      5  N   UNL     1       4.796   5.217  16.734  0.00  0.00    +0.000 N 
ATOM      6  C   UNL     1       3.201   5.031  18.592  0.00  0.00    +0.000 A 
ATOM      7  C   UNL     1       2.890   6.414  18.796  0.00  0.00    +0.000 A 
ATOM      8 CL   UNL     1       3.330   7.621  17.606  0.00  0.00    +0.000 Cl
ATOM      9  C   UNL     1       2.133   6.867  19.904  0.00  0.00    +0.000 A 
ATOM     10  C   UNL     1       1.689   5.903  20.805  0.00  0.00    +0.000 A 
ATOM     11  C   UNL     1       1.936   4.542  20.573  0.00  0.00    +0.000 A 
ATOM     12  C   UNL     1       2.674   4.093  19.484  0.00  0.00    +0.000 A 
ATOM     13  N   UNL     1       2.854   2.774  19.357  0.00  0.00    +0.000 NA
ATOM     14  H   UNL     1       4.637   0.809  17.711  0.00  0.00    +0.000 HD
ATOM     15  H   UNL     1       3.645   0.535  19.094  0.00  0.00    +0.000 HD
ATOM     16  H   UNL     1       5.228   4.608  16.046  0.00  0.00    +0.000 HD
ATOM     17  H   UNL     1       4.304   6.007  16.329  0.00  0.00    +0.000 HD
ENDROOT
BRANCH   9  18
ATOM     18  N   UNL     1       1.988   8.242  20.134  0.00  0.00    +0.000 N 
ATOM     19  H   UNL     1       2.850   8.741  19.906  0.00  0.00    +0.000 HD
BRANCH  18  20
ATOM     20  C   UNL     1       0.814   8.969  19.673  0.00  0.00    +0.000 C 
BRANCH  20  21
ATOM     21  C   UNL     1       0.182   9.687  20.848  0.00  0.00    +0.000 A 
ATOM     22  C   UNL     1      -0.428  10.940  20.696  0.00  0.00    +0.000 A 
ATOM     23  C   UNL     1      -1.065  11.556  21.778  0.00  0.00    +0.000 A 
ATOM     24  C   UNL     1      -1.089  10.935  23.025  0.00  0.00    +0.000 A 
ATOM     25  C   UNL     1      -0.463   9.702  23.198  0.00  0.00    +0.000 A 
ATOM     26  C   UNL     1       0.166   9.082  22.117  0.00  0.00    +0.000 A 
ENDBRANCH  20  21
ENDBRANCH  18  20
ENDBRANCH   9  18
TORSDOF 3
ENDMDL
MODEL 6
REMARK VINA RESULT:      -7.4      1.765      3.219
REMARK  Name = 
REMARK  3 active torsions:
REMARK  status: ('A' for Active; 'I' for Inactive)
REMARK    1  A    between atoms: C_9  and  N_10
REMARK    2  A    between atoms: N_10  and  C_11
REMARK    3  A    between atoms: C_11  and  C_12
REMARK                            x       y       z     vdW  Elec       q    Type
REMARK                         _______ _______ _______ _____ _____    ______ ____
ROOT
ATOM      1  N   UNL     1       1.285   2.768  21.895  0.00  0.00    +0.000 N 
ATOM      2  C   UNL     1       1.933   3.502  20.920  0.00  0.00    +0.000 A 
ATOM      3  N   UNL     1       1.843   4.824  20.990  0.00  0.00    +0.000 NA
ATOM      4  C   UNL     1       2.478   5.525  20.039  0.00  0.00    +0.000 A 
ATOM      5  N   UNL     1       2.216   6.893  20.095  0.00  0.00    +0.000 N 
ATOM      6  C   UNL     1       3.223   4.939  18.998  0.00  0.00    +0.000 A 
ATOM      7  C   UNL     1       3.978   5.589  17.969  0.00  0.00    +0.000 A 
ATOM      8 CL   UNL     1       4.264   7.315  18.016  0.00  0.00    +0.000 Cl
ATOM      9  C   UNL     1       4.611   4.873  16.925  0.00  0.00    +0.000 A 
ATOM     10  C   UNL     1       4.476   3.487  16.933  0.00  0.00    +0.000 A 
ATOM     11  C   UNL     1       3.794   2.843  17.975  0.00  0.00    +0.000 A 
ATOM     12  C   UNL     1       3.175   3.542  19.006  0.00  0.00    +0.000 A 
ATOM     13  N   UNL     1       2.548   2.832  19.949  0.00  0.00    +0.000 NA
ATOM     14  H   UNL     1       0.530   3.317  22.282  0.00  0.00    +0.000 HD
ATOM     15  H   UNL     1       1.052   1.854  21.535  0.00  0.00    +0.000 HD
ATOM     16  H   UNL     1       1.736   7.107  20.963  0.00  0.00    +0.000 HD
ATOM     17  H   UNL     1       3.036   7.466  19.929  0.00  0.00    +0.000 HD
ENDROOT
BRANCH   9  18
ATOM     18  N   UNL     1       5.206   5.569  15.863  0.00  0.00    +0.000 N 
ATOM     19  H   UNL     1       5.010   6.569  15.929  0.00  0.00    +0.000 HD
BRANCH  18  20
ATOM     20  C   UNL     1       6.587   5.322  15.474  0.00  0.00    +0.000 C 
BRANCH  20  21
ATOM     21  C   UNL     1       6.612   4.743  14.074  0.00  0.00    +0.000 A 
ATOM     22  C   UNL     1       7.619   5.085  13.160  0.00  0.00    +0.000 A 
ATOM     23  C   UNL     1       7.663   4.489  11.896  0.00  0.00    +0.000 A 
ATOM     24  C   UNL     1       6.697   3.554  11.526  0.00  0.00    +0.000 A 
ATOM     25  C   UNL     1       5.675   3.225  12.414  0.00  0.00    +0.000 A 
ATOM     26  C   UNL     1       5.635   3.814  13.679  0.00  0.00    +0.000 A 
ENDBRANCH  20  21
ENDBRANCH  18  20
ENDBRANCH   9  18
TORSDOF 3
ENDMDL
MODEL 7
REMARK VINA RESULT:      -7.3      3.963      5.866
REMARK  Name = 
REMARK  3 active torsions:
REMARK  status: ('A' for Active; 'I' for Inactive)
REMARK    1  A    between atoms: C_9  and  N_10
REMARK    2  A    between atoms: N_10  and  C_11
REMARK    3  A    between atoms: C_11  and  C_12
REMARK                            x       y       z     vdW  Elec       q    Type
REMARK                         _______ _______ _______ _____ _____    ______ ____
ROOT
ATOM      1  N   UNL     1       4.012   0.730  18.267  0.00  0.00    +0.000 N 
ATOM      2  C   UNL     1       3.527   1.986  18.579  0.00  0.00    +0.000 A 
ATOM      3  N   UNL     1       2.573   2.059  19.498  0.00  0.00    +0.000 NA
ATOM      4  C   UNL     1       2.112   3.284  19.795  0.00  0.00    +0.000 A 
ATOM      5  N   UNL     1       1.015   3.267  20.655  0.00  0.00    +0.000 N 
ATOM      6  C   UNL     1       2.585   4.467  19.196  0.00  0.00    +0.000 A 
ATOM      7  C   UNL     1       2.204   5.819  19.473  0.00  0.00    +0.000 A 
ATOM      8 CL   UNL     1       1.186   6.204  20.844  0.00  0.00    +0.000 Cl
ATOM      9  C   UNL     1       2.699   6.915  18.727  0.00  0.00    +0.000 A 
ATOM     10  C   UNL     1       3.591   6.631  17.697  0.00  0.00    +0.000 A 
ATOM     11  C   UNL     1       4.017   5.316  17.466  0.00  0.00    +0.000 A 
ATOM     12  C   UNL     1       3.538   4.236  18.199  0.00  0.00    +0.000 A 
ATOM     13  N   UNL     1       4.007   3.021  17.896  0.00  0.00    +0.000 NA
ATOM     14  H   UNL     1       3.314   0.035  18.490  0.00  0.00    +0.000 HD
ATOM     15  H   UNL     1       4.376   0.731  17.325  0.00  0.00    +0.000 HD
ATOM     16  H   UNL     1       0.898   2.331  21.030  0.00  0.00    +0.000 HD
ATOM     17  H   UNL     1       1.050   3.991  21.364  0.00  0.00    +0.000 HD
ENDROOT
BRANCH   9  18
ATOM     18  N   UNL     1       2.176   8.198  18.943  0.00  0.00    +0.000 N 
ATOM     19  H   UNL     1       2.667   8.667  19.706  0.00  0.00    +0.000 HD
BRANCH  18  20
ATOM     20  C   UNL     1       1.919   9.109  17.837  0.00  0.00    +0.000 C 
BRANCH  20  21
ATOM     21  C   UNL     1       0.792  10.048  18.218  0.00  0.00    +0.000 A 
ATOM     22  C   UNL     1      -0.534   9.785  17.847  0.00  0.00    +0.000 A 
ATOM     23  C   UNL     1      -1.569  10.627  18.266  0.00  0.00    +0.000 A 
ATOM     24  C   UNL     1      -1.291  11.747  19.048  0.00  0.00    +0.000 A 
ATOM     25  C   UNL     1       0.026  12.035  19.402  0.00  0.00    +0.000 A 
ATOM     26  C   UNL     1       1.059  11.190  18.991  0.00  0.00    +0.000 A 
ENDBRANCH  20  21
ENDBRANCH  18  20
ENDBRANCH   9  18
TORSDOF 3
ENDMDL
MODEL 8
REMARK VINA RESULT:      -7.2      4.975      7.421
REMARK  Name = 
REMARK  3 active torsions:
REMARK  status: ('A' for Active; 'I' for Inactive)
REMARK    1  A    between atoms: C_9  and  N_10
REMARK    2  A    between atoms: N_10  and  C_11
REMARK    3  A    between atoms: C_11  and  C_12
REMARK                            x       y       z     vdW  Elec       q    Type
REMARK                         _______ _______ _______ _____ _____    ______ ____
ROOT
ATOM      1  N   UNL     1       5.252   3.966  17.858  0.00  0.00    +0.000 N 
ATOM      2  C   UNL     1       4.372   4.893  18.382  0.00  0.00    +0.000 A 
ATOM      3  N   UNL     1       3.803   4.604  19.545  0.00  0.00    +0.000 NA
ATOM      4  C   UNL     1       2.953   5.513  20.045  0.00  0.00    +0.000 A 
ATOM      5  N   UNL     1       2.286   5.075  21.188  0.00  0.00    +0.000 N 
ATOM      6  C   UNL     1       2.648   6.733  19.412  0.00  0.00    +0.000 A 
ATOM      7  C   UNL     1       1.801   7.790  19.878  0.00  0.00    +0.000 A 
ATOM      8 CL   UNL     1       1.171   7.785  21.511  0.00  0.00    +0.000 Cl
ATOM      9  C   UNL     1       1.510   8.932  19.093  0.00  0.00    +0.000 A 
ATOM     10  C   UNL     1       2.089   8.996  17.828  0.00  0.00    +0.000 A 
ATOM     11  C   UNL     1       2.970   7.996  17.395  0.00  0.00    +0.000 A 
ATOM     12  C   UNL     1       3.263   6.875  18.165  0.00  0.00    +0.000 A 
ATOM     13  N   UNL     1       4.114   5.978  17.657  0.00  0.00    +0.000 NA
ATOM     14  H   UNL     1       5.039   3.051  18.232  0.00  0.00    +0.000 HD
ATOM     15  H   UNL     1       5.283   4.056  16.853  0.00  0.00    +0.000 HD
ATOM     16  H   UNL     1       2.716   4.217  21.518  0.00  0.00    +0.000 HD
ATOM     17  H   UNL     1       2.199   5.791  21.901  0.00  0.00    +0.000 HD
ENDROOT
BRANCH   9  18
ATOM     18  N   UNL     1       0.558   9.859  19.538  0.00  0.00    +0.000 N 
ATOM     19  H   UNL     1       0.721  10.107  20.515  0.00  0.00    +0.000 HD
BRANCH  18  20
ATOM     20  C   UNL     1       0.208  11.028  18.744  0.00  0.00    +0.000 C 
BRANCH  20  21
ATOM     21  C   UNL     1      -1.226  10.897  18.271  0.00  0.00    +0.000 A 
ATOM     22  C   UNL     1      -1.598   9.927  17.329  0.00  0.00    +0.000 A 
ATOM     23  C   UNL     1      -2.936   9.777  16.955  0.00  0.00    +0.000 A 
ATOM     24  C   UNL     1      -3.916  10.601  17.508  0.00  0.00    +0.000 A 
ATOM     25  C   UNL     1      -3.557  11.587  18.424  0.00  0.00    +0.000 A 
ATOM     26  C   UNL     1      -2.222  11.732  18.804  0.00  0.00    +0.000 A 
ENDBRANCH  20  21
ENDBRANCH  18  20
ENDBRANCH   9  18
TORSDOF 3
ENDMDL
MODEL 9
REMARK VINA RESULT:      -7.2      3.945      6.883
REMARK  Name = 
REMARK  3 active torsions:
REMARK  status: ('A' for Active; 'I' for Inactive)
REMARK    1  A    between atoms: C_9  and  N_10
REMARK    2  A    between atoms: N_10  and  C_11
REMARK    3  A    between atoms: C_11  and  C_12
REMARK                            x       y       z     vdW  Elec       q    Type
REMARK                         _______ _______ _______ _____ _____    ______ ____
ROOT
ATOM      1  N   UNL     1       5.866   3.365  15.856  0.00  0.00    +0.000 N 
ATOM      2  C   UNL     1       5.022   3.998  16.748  0.00  0.00    +0.000 A 
ATOM      3  N   UNL     1       4.420   3.244  17.659  0.00  0.00    +0.000 NA
ATOM      4  C   UNL     1       3.606   3.871  18.521  0.00  0.00    +0.000 A 
ATOM      5  N   UNL     1       2.900   2.999  19.347  0.00  0.00    +0.000 N 
ATOM      6  C   UNL     1       3.371   5.259  18.510  0.00  0.00    +0.000 A 
ATOM      7  C   UNL     1       2.569   6.033  19.409  0.00  0.00    +0.000 A 
ATOM      8 CL   UNL     1       1.912   5.323  20.868  0.00  0.00    +0.000 Cl
ATOM      9  C   UNL     1       2.346   7.420  19.226  0.00  0.00    +0.000 A 
ATOM     10  C   UNL     1       2.948   8.019  18.124  0.00  0.00    +0.000 A 
ATOM     11  C   UNL     1       3.787   7.279  17.279  0.00  0.00    +0.000 A 
ATOM     12  C   UNL     1       4.013   5.919  17.458  0.00  0.00    +0.000 A 
ATOM     13  N   UNL     1       4.829   5.305  16.593  0.00  0.00    +0.000 NA
ATOM     14  H   UNL     1       5.603   2.392  15.777  0.00  0.00    +0.000 HD
ATOM     15  H   UNL     1       5.918   3.898  14.999  0.00  0.00    +0.000 HD
ATOM     16  H   UNL     1       3.283   2.064  19.251  0.00  0.00    +0.000 HD
ATOM     17  H   UNL     1       2.836   3.318  20.308  0.00  0.00    +0.000 HD
ENDROOT
BRANCH   9  18
ATOM     18  N   UNL     1       1.432   8.093  20.049  0.00  0.00    +0.000 N 
ATOM     19  H   UNL     1       1.727   8.057  21.026  0.00  0.00    +0.000 HD
BRANCH  18  20
ATOM     20  C   UNL     1       0.920   9.409  19.697  0.00  0.00    +0.000 C 
BRANCH  20  21
ATOM     21  C   UNL     1       0.147   9.973  20.872  0.00  0.00    +0.000 A 
ATOM     22  C   UNL     1       0.048   9.274  22.083  0.00  0.00    +0.000 A 
ATOM     23  C   UNL     1      -0.612   9.840  23.178  0.00  0.00    +0.000 A 
ATOM     24  C   UNL     1      -1.191  11.104  23.072  0.00  0.00    +0.000 A 
ATOM     25  C   UNL     1      -1.124  11.798  21.866  0.00  0.00    +0.000 A 
ATOM     26  C   UNL     1      -0.458  11.237  20.775  0.00  0.00    +0.000 A 
ENDBRANCH  20  21
ENDBRANCH  18  20
ENDBRANCH   9  18
TORSDOF 3
ENDMDL
