MODEL 1
REMARK VINA RESULT:      -7.7      0.000      0.000
REMARK  Name = 
REMARK  3 active torsions:
REMARK  status: ('A' for Active; 'I' for Inactive)
REMARK    1  A    between atoms: C_1  and  C_2
REMARK    2  A    between atoms: C_2  and  C_3
REMARK    3  A    between atoms: N_16  and  O_17
REMARK                            x       y       z     vdW  Elec       q    Type
REMARK                         _______ _______ _______ _____ _____    ______ ____
ROOT
ATOM      1  C   UNL     1       1.619   2.622  21.549  0.00  0.00    +0.000 C 
ATOM      2  C   UNL     1       2.155   2.920  20.143  0.00  0.00    +0.000 C 
ATOM      3  C   UNL     1       1.145   2.384  19.114  0.00  0.00    +0.000 C 
ATOM      4  C   UNL     1       3.544   2.287  19.996  0.00  0.00    +0.000 C 
ATOM      5  C   UNL     1       4.173   2.660  18.660  0.00  0.00    +0.000 C 
ATOM      6  C   UNL     1       3.921   4.102  18.331  0.00  0.00    +0.000 C 
ATOM      7  C   UNL     1       3.041   4.856  19.007  0.00  0.00    +0.000 C 
ATOM      8  O   UNL     1       2.237   4.355  20.020  0.00  0.00    +0.000 OA
ATOM      9  C   UNL     1       2.844   6.284  18.705  0.00  0.00    +0.000 A 
ATOM     10  C   UNL     1       1.941   7.062  19.454  0.00  0.00    +0.000 A 
ATOM     11  C   UNL     1       1.744   8.418  19.175  0.00  0.00    +0.000 A 
ATOM     12  C   UNL     1       2.447   9.025  18.142  0.00  0.00    +0.000 A 
ATOM     13  C   UNL     1       3.348   8.275  17.391  0.00  0.00    +0.000 A 
ATOM     14  C   UNL     1       3.549   6.910  17.669  0.00  0.00    +0.000 A 
ATOM     15  C   UNL     1       4.523   6.137  16.851  0.00  0.00    +0.000 C 
ATOM     16  N   UNL     1       5.162   6.764  15.898  0.00  0.00    +0.000 NA
ATOM     17  C   UNL     1       4.701   4.654  17.194  0.00  0.00    +0.000 C 
ATOM     18  O   UNL     1       5.439   3.910  16.562  0.00  0.00    +0.000 OA
ENDROOT
BRANCH  16  19
ATOM     19  O   UNL     1       6.053   5.954  15.199  0.00  0.00    +0.000 OA
ATOM     20  H   UNL     1       6.818   6.538  15.054  0.00  0.00    +0.000 HD
ENDBRANCH  16  19
TORSDOF 1
ENDMDL
MODEL 2
REMARK VINA RESULT:      -7.2      2.286      4.530
REMARK  Name = 
REMARK  3 active torsions:
REMARK  status: ('A' for Active; 'I' for Inactive)
REMARK    1  A    between atoms: C_1  and  C_2
REMARK    2  A    between atoms: C_2  and  C_3
REMARK    3  A    between atoms: N_16  and  O_17
REMARK                            x       y       z     vdW  Elec       q    Type
REMARK                         _______ _______ _______ _____ _____    ______ ____
ROOT
ATOM      1  C   UNL     1       5.541   5.882  14.915  0.00  0.00    +0.000 C 
ATOM      2  C   UNL     1       5.401   5.272  16.315  0.00  0.00    +0.000 C 
ATOM      3  C   UNL     1       6.711   5.511  17.084  0.00  0.00    +0.000 C 
ATOM      4  C   UNL     1       5.058   3.783  16.176  0.00  0.00    +0.000 C 
ATOM      5  C   UNL     1       4.785   3.159  17.538  0.00  0.00    +0.000 C 
ATOM      6  C   UNL     1       3.973   4.081  18.399  0.00  0.00    +0.000 C 
ATOM      7  C   UNL     1       3.762   5.368  18.084  0.00  0.00    +0.000 C 
ATOM      8  O   UNL     1       4.330   5.977  16.975  0.00  0.00    +0.000 OA
ATOM      9  C   UNL     1       2.919   6.246  18.914  0.00  0.00    +0.000 A 
ATOM     10  C   UNL     1       2.683   7.582  18.540  0.00  0.00    +0.000 A 
ATOM     11  C   UNL     1       1.887   8.426  19.321  0.00  0.00    +0.000 A 
ATOM     12  C   UNL     1       1.309   7.949  20.491  0.00  0.00    +0.000 A 
ATOM     13  C   UNL     1       1.526   6.629  20.877  0.00  0.00    +0.000 A 
ATOM     14  C   UNL     1       2.326   5.778  20.094  0.00  0.00    +0.000 A 
ATOM     15  C   UNL     1       2.534   4.371  20.530  0.00  0.00    +0.000 C 
ATOM     16  N   UNL     1       1.957   3.976  21.635  0.00  0.00    +0.000 NA
ATOM     17  C   UNL     1       3.417   3.487  19.642  0.00  0.00    +0.000 C 
ATOM     18  O   UNL     1       3.696   2.330  19.924  0.00  0.00    +0.000 OA
ENDROOT
BRANCH  16  19
ATOM     19  O   UNL     1       2.210   2.644  21.951  0.00  0.00    +0.000 OA
ATOM     20  H   UNL     1       1.527   2.439  22.613  0.00  0.00    +0.000 HD
ENDBRANCH  16  19
TORSDOF 1
ENDMDL
MODEL 3
REMARK VINA RESULT:      -6.8      2.285      5.200
REMARK  Name = 
REMARK  3 active torsions:
REMARK  status: ('A' for Active; 'I' for Inactive)
REMARK    1  A    between atoms: C_1  and  C_2
REMARK    2  A    between atoms: C_2  and  C_3
REMARK    3  A    between atoms: N_16  and  O_17
REMARK                            x       y       z     vdW  Elec       q    Type
REMARK                         _______ _______ _______ _____ _____    ______ ____
ROOT
ATOM      1  C   UNL     1       7.068   4.075  15.964  0.00  0.00    +0.000 C 
ATOM      2  C   UNL     1       5.770   4.807  16.326  0.00  0.00    +0.000 C 
ATOM      3  C   UNL     1       4.716   4.491  15.250  0.00  0.00    +0.000 C 
ATOM      4  C   UNL     1       6.062   6.308  16.447  0.00  0.00    +0.000 C 
ATOM      5  C   UNL     1       4.831   7.064  16.928  0.00  0.00    +0.000 C 
ATOM      6  C   UNL     1       4.123   6.306  18.012  0.00  0.00    +0.000 C 
ATOM      7  C   UNL     1       4.407   5.028  18.305  0.00  0.00    +0.000 C 
ATOM      8  O   UNL     1       5.326   4.274  17.591  0.00  0.00    +0.000 OA
ATOM      9  C   UNL     1       3.738   4.314  19.407  0.00  0.00    +0.000 A 
ATOM     10  C   UNL     1       4.082   2.985  19.719  0.00  0.00    +0.000 A 
ATOM     11  C   UNL     1       3.453   2.296  20.760  0.00  0.00    +0.000 A 
ATOM     12  C   UNL     1       2.468   2.924  21.514  0.00  0.00    +0.000 A 
ATOM     13  C   UNL     1       2.116   4.240  21.225  0.00  0.00    +0.000 A 
ATOM     14  C   UNL     1       2.747   4.935  20.178  0.00  0.00    +0.000 A 
ATOM     15  C   UNL     1       2.352   6.342  19.899  0.00  0.00    +0.000 C 
ATOM     16  N   UNL     1       1.427   6.883  20.647  0.00  0.00    +0.000 NA
ATOM     17  C   UNL     1       3.069   7.053  18.745  0.00  0.00    +0.000 C 
ATOM     18  O   UNL     1       2.796   8.193  18.395  0.00  0.00    +0.000 OA
ENDROOT
BRANCH  16  19
ATOM     19  O   UNL     1       1.136   8.202  20.308  0.00  0.00    +0.000 OA
ATOM     20  H   UNL     1       1.988   8.657  20.435  0.00  0.00    +0.000 HD
ENDBRANCH  16  19
TORSDOF 1
ENDMDL
MODEL 4
REMARK VINA RESULT:      -6.7      2.983      4.079
REMARK  Name = 
REMARK  3 active torsions:
REMARK  status: ('A' for Active; 'I' for Inactive)
REMARK    1  A    between atoms: C_1  and  C_2
REMARK    2  A    between atoms: C_2  and  C_3
REMARK    3  A    between atoms: N_16  and  O_17
REMARK                            x       y       z     vdW  Elec       q    Type
REMARK                         _______ _______ _______ _____ _____    ______ ____
ROOT
ATOM      1  C   UNL     1       1.385   2.108  18.152  0.00  0.00    +0.000 C 
ATOM      2  C   UNL     1       2.803   2.540  18.547  0.00  0.00    +0.000 C 
ATOM      3  C   UNL     1       3.601   1.287  18.942  0.00  0.00    +0.000 C 
ATOM      4  C   UNL     1       2.711   3.568  19.682  0.00  0.00    +0.000 C 
ATOM      5  C   UNL     1       4.087   4.122  20.026  0.00  0.00    +0.000 C 
ATOM      6  C   UNL     1       4.887   4.384  18.784  0.00  0.00    +0.000 C 
ATOM      7  C   UNL     1       4.517   3.935  17.576  0.00  0.00    +0.000 C 
ATOM      8  O   UNL     1       3.403   3.133  17.377  0.00  0.00    +0.000 OA
ATOM      9  C   UNL     1       5.287   4.245  16.359  0.00  0.00    +0.000 A 
ATOM     10  C   UNL     1       4.855   3.793  15.098  0.00  0.00    +0.000 A 
ATOM     11  C   UNL     1       5.578   4.079  13.936  0.00  0.00    +0.000 A 
ATOM     12  C   UNL     1       6.748   4.825  14.011  0.00  0.00    +0.000 A 
ATOM     13  C   UNL     1       7.191   5.285  15.248  0.00  0.00    +0.000 A 
ATOM     14  C   UNL     1       6.465   5.000  16.419  0.00  0.00    +0.000 A 
ATOM     15  C   UNL     1       6.962   5.511  17.725  0.00  0.00    +0.000 C 
ATOM     16  N   UNL     1       8.063   6.215  17.733  0.00  0.00    +0.000 NA
ATOM     17  C   UNL     1       6.135   5.168  18.969  0.00  0.00    +0.000 C 
ATOM     18  O   UNL     1       6.470   5.495  20.100  0.00  0.00    +0.000 OA
ENDROOT
BRANCH  16  19
ATOM     19  O   UNL     1       8.437   6.651  19.001  0.00  0.00    +0.000 OA
ATOM     20  H   UNL     1       8.605   7.601  18.870  0.00  0.00    +0.000 HD
ENDBRANCH  16  19
TORSDOF 1
ENDMDL
MODEL 5
REMARK VINA RESULT:      -6.6      2.510      5.288
REMARK  Name = 
REMARK  3 active torsions:
REMARK  status: ('A' for Active; 'I' for Inactive)
REMARK    1  A    between atoms: C_1  and  C_2
REMARK    2  A    between atoms: C_2  and  C_3
REMARK    3  A    between atoms: N_16  and  O_17
REMARK                            x       y       z     vdW  Elec       q    Type
REMARK                         _______ _______ _______ _____ _____    ______ ____
ROOT
ATOM      1  C   UNL     1       2.119  10.738  18.100  0.00  0.00    +0.000 C 
ATOM      2  C   UNL     1       1.796   9.279  18.446  0.00  0.00    +0.000 C 
ATOM      3  C   UNL     1       0.482   8.892  17.747  0.00  0.00    +0.000 C 
ATOM      4  C   UNL     1       1.722   9.134  19.972  0.00  0.00    +0.000 C 
ATOM      5  C   UNL     1       1.528   7.678  20.370  0.00  0.00    +0.000 C 
ATOM      6  C   UNL     1       2.379   6.772  19.530  0.00  0.00    +0.000 C 
ATOM      7  C   UNL     1       3.006   7.191  18.421  0.00  0.00    +0.000 C 
ATOM      8  O   UNL     1       2.869   8.474  17.914  0.00  0.00    +0.000 OA
ATOM      9  C   UNL     1       3.880   6.301  17.636  0.00  0.00    +0.000 A 
ATOM     10  C   UNL     1       4.556   6.777  16.497  0.00  0.00    +0.000 A 
ATOM     11  C   UNL     1       5.387   5.942  15.742  0.00  0.00    +0.000 A 
ATOM     12  C   UNL     1       5.559   4.614  16.114  0.00  0.00    +0.000 A 
ATOM     13  C   UNL     1       4.902   4.124  17.240  0.00  0.00    +0.000 A 
ATOM     14  C   UNL     1       4.066   4.962  18.001  0.00  0.00    +0.000 A 
ATOM     15  C   UNL     1       3.383   4.410  19.202  0.00  0.00    +0.000 C 
ATOM     16  N   UNL     1       3.591   3.155  19.507  0.00  0.00    +0.000 NA
ATOM     17  C   UNL     1       2.482   5.364  19.993  0.00  0.00    +0.000 C 
ATOM     18  O   UNL     1       1.835   5.011  20.969  0.00  0.00    +0.000 OA
ENDROOT
BRANCH  16  19
ATOM     19  O   UNL     1       2.912   2.741  20.649  0.00  0.00    +0.000 OA
ATOM     20  H   UNL     1       3.628   2.581  21.289  0.00  0.00    +0.000 HD
ENDBRANCH  16  19
TORSDOF 1
ENDMDL
MODEL 6
REMARK VINA RESULT:      -6.6      2.483      4.559
REMARK  Name = 
REMARK  3 active torsions:
REMARK  status: ('A' for Active; 'I' for Inactive)
REMARK    1  A    between atoms: C_1  and  C_2
REMARK    2  A    between atoms: C_2  and  C_3
REMARK    3  A    between atoms: N_16  and  O_17
REMARK                            x       y       z     vdW  Elec       q    Type
REMARK                         _______ _______ _______ _____ _____    ______ ____
ROOT
ATOM      1  C   UNL     1       7.129   7.335  16.999  0.00  0.00    +0.000 C 
ATOM      2  C   UNL     1       6.495   6.052  17.551  0.00  0.00    +0.000 C 
ATOM      3  C   UNL     1       7.395   5.509  18.674  0.00  0.00    +0.000 C 
ATOM      4  C   UNL     1       6.312   5.053  16.401  0.00  0.00    +0.000 C 
ATOM      5  C   UNL     1       5.571   3.810  16.874  0.00  0.00    +0.000 C 
ATOM      6  C   UNL     1       4.443   4.174  17.794  0.00  0.00    +0.000 C 
ATOM      7  C   UNL     1       4.300   5.401  18.316  0.00  0.00    +0.000 C 
ATOM      8  O   UNL     1       5.216   6.422  18.108  0.00  0.00    +0.000 OA
ATOM      9  C   UNL     1       3.158   5.756  19.175  0.00  0.00    +0.000 A 
ATOM     10  C   UNL     1       3.012   7.063  19.678  0.00  0.00    +0.000 A 
ATOM     11  C   UNL     1       1.933   7.410  20.498  0.00  0.00    +0.000 A 
ATOM     12  C   UNL     1       0.977   6.458  20.829  0.00  0.00    +0.000 A 
ATOM     13  C   UNL     1       1.100   5.161  20.338  0.00  0.00    +0.000 A 
ATOM     14  C   UNL     1       2.184   4.808  19.514  0.00  0.00    +0.000 A 
ATOM     15  C   UNL     1       2.284   3.414  19.002  0.00  0.00    +0.000 C 
ATOM     16  N   UNL     1       1.349   2.565  19.339  0.00  0.00    +0.000 NA
ATOM     17  C   UNL     1       3.485   3.083  18.110  0.00  0.00    +0.000 C 
ATOM     18  O   UNL     1       3.696   1.961  17.670  0.00  0.00    +0.000 OA
ENDROOT
BRANCH  16  19
ATOM     19  O   UNL     1       1.532   1.293  18.803  0.00  0.00    +0.000 OA
ATOM     20  H   UNL     1       1.177   0.707  19.495  0.00  0.00    +0.000 HD
ENDBRANCH  16  19
TORSDOF 1
ENDMDL
MODEL 7
REMARK VINA RESULT:      -6.5      3.038      4.075
REMARK  Name = 
REMARK  3 active torsions:
REMARK  status: ('A' for Active; 'I' for Inactive)
REMARK    1  A    between atoms: C_1  and  C_2
REMARK    2  A    between atoms: C_2  and  C_3
REMARK    3  A    between atoms: N_16  and  O_17
REMARK                            x       y       z     vdW  Elec       q    Type
REMARK                         _______ _______ _______ _____ _____    ______ ____
ROOT
ATOM      1  C   UNL     1       2.278   3.664  21.639  0.00  0.00    +0.000 C 
ATOM      2  C   UNL     1       2.035   4.683  20.517  0.00  0.00    +0.000 C 
ATOM      3  C   UNL     1       0.905   4.155  19.617  0.00  0.00    +0.000 C 
ATOM      4  C   UNL     1       3.348   4.906  19.755  0.00  0.00    +0.000 C 
ATOM      5  C   UNL     1       3.189   6.003  18.711  0.00  0.00    +0.000 C 
ATOM      6  C   UNL     1       2.384   7.148  19.251  0.00  0.00    +0.000 C 
ATOM      7  C   UNL     1       1.692   7.069  20.397  0.00  0.00    +0.000 C 
ATOM      8  O   UNL     1       1.603   5.906  21.149  0.00  0.00    +0.000 OA
ATOM      9  C   UNL     1       0.948   8.219  20.940  0.00  0.00    +0.000 A 
ATOM     10  C   UNL     1       0.262   8.121  22.165  0.00  0.00    +0.000 A 
ATOM     11  C   UNL     1      -0.449   9.205  22.689  0.00  0.00    +0.000 A 
ATOM     12  C   UNL     1      -0.487  10.410  21.999  0.00  0.00    +0.000 A 
ATOM     13  C   UNL     1       0.189  10.530  20.787  0.00  0.00    +0.000 A 
ATOM     14  C   UNL     1       0.905   9.442  20.258  0.00  0.00    +0.000 A 
ATOM     15  C   UNL     1       1.621   9.604  18.963  0.00  0.00    +0.000 C 
ATOM     16  N   UNL     1       1.557  10.764  18.364  0.00  0.00    +0.000 NA
ATOM     17  C   UNL     1       2.384   8.386  18.430  0.00  0.00    +0.000 C 
ATOM     18  O   UNL     1       2.970   8.387  17.356  0.00  0.00    +0.000 OA
ENDROOT
BRANCH  16  19
ATOM     19  O   UNL     1       2.265  10.812  17.166  0.00  0.00    +0.000 OA
ATOM     20  H   UNL     1       2.292   9.880  16.886  0.00  0.00    +0.000 HD
ENDBRANCH  16  19
TORSDOF 1
ENDMDL
MODEL 8
REMARK VINA RESULT:      -6.5      1.975      4.755
REMARK  Name = 
REMARK  3 active torsions:
REMARK  status: ('A' for Active; 'I' for Inactive)
REMARK    1  A    between atoms: C_1  and  C_2
REMARK    2  A    between atoms: C_2  and  C_3
REMARK    3  A    between atoms: N_16  and  O_17
REMARK                            x       y       z     vdW  Elec       q    Type
REMARK                         _______ _______ _______ _____ _____    ______ ____
ROOT
ATOM      1  C   UNL     1      -0.539   8.674  22.111  0.00  0.00    +0.000 C 
ATOM      2  C   UNL     1       0.734   8.544  21.265  0.00  0.00    +0.000 C 
ATOM      3  C   UNL     1       1.900   9.181  22.040  0.00  0.00    +0.000 C 
ATOM      4  C   UNL     1       0.496   9.205  19.902  0.00  0.00    +0.000 C 
ATOM      5  C   UNL     1       1.688   8.993  18.979  0.00  0.00    +0.000 C 
ATOM      6  C   UNL     1       2.219   7.595  19.098  0.00  0.00    +0.000 C 
ATOM      7  C   UNL     1       1.844   6.760  20.078  0.00  0.00    +0.000 C 
ATOM      8  O   UNL     1       0.990   7.133  21.105  0.00  0.00    +0.000 OA
ATOM      9  C   UNL     1       2.336   5.373  20.151  0.00  0.00    +0.000 A 
ATOM     10  C   UNL     1       1.897   4.504  21.169  0.00  0.00    +0.000 A 
ATOM     11  C   UNL     1       2.358   3.187  21.249  0.00  0.00    +0.000 A 
ATOM     12  C   UNL     1       3.266   2.710  20.312  0.00  0.00    +0.000 A 
ATOM     13  C   UNL     1       3.709   3.550  19.294  0.00  0.00    +0.000 A 
ATOM     14  C   UNL     1       3.248   4.876  19.211  0.00  0.00    +0.000 A 
ATOM     15  C   UNL     1       3.737   5.748  18.108  0.00  0.00    +0.000 C 
ATOM     16  N   UNL     1       4.583   5.241  17.251  0.00  0.00    +0.000 NA
ATOM     17  C   UNL     1       3.204   7.185  18.065  0.00  0.00    +0.000 C 
ATOM     18  O   UNL     1       3.570   8.004  17.234  0.00  0.00    +0.000 OA
ENDROOT
BRANCH  16  19
ATOM     19  O   UNL     1       4.973   6.135  16.257  0.00  0.00    +0.000 OA
ATOM     20  H   UNL     1       4.493   6.949  16.490  0.00  0.00    +0.000 HD
ENDBRANCH  16  19
TORSDOF 1
ENDMDL
MODEL 9
REMARK VINA RESULT:      -6.3      6.076      8.712
REMARK  Name = 
REMARK  3 active torsions:
REMARK  status: ('A' for Active; 'I' for Inactive)
REMARK    1  A    between atoms: C_1  and  C_2
REMARK    2  A    between atoms: C_2  and  C_3
REMARK    3  A    between atoms: N_16  and  O_17
REMARK                            x       y       z     vdW  Elec       q    Type
REMARK                         _______ _______ _______ _____ _____    ______ ____
ROOT
ATOM      1  C   UNL     1       2.091   8.355  17.873  0.00  0.00    +0.000 C 
ATOM      2  C   UNL     1       1.379   9.583  18.456  0.00  0.00    +0.000 C 
ATOM      3  C   UNL     1       2.151  10.842  18.027  0.00  0.00    +0.000 C 
ATOM      4  C   UNL     1       1.292   9.430  19.981  0.00  0.00    +0.000 C 
ATOM      5  C   UNL     1       0.483  10.564  20.595  0.00  0.00    +0.000 C 
ATOM      6  C   UNL     1      -0.724  10.877  19.761  0.00  0.00    +0.000 C 
ATOM      7  C   UNL     1      -0.894  10.392  18.522  0.00  0.00    +0.000 C 
ATOM      8  O   UNL     1       0.059   9.618  17.876  0.00  0.00    +0.000 OA
ATOM      9  C   UNL     1      -2.109  10.667  17.736  0.00  0.00    +0.000 A 
ATOM     10  C   UNL     1      -2.279  10.114  16.452  0.00  0.00    +0.000 A 
ATOM     11  C   UNL     1      -3.427  10.370  15.696  0.00  0.00    +0.000 A 
ATOM     12  C   UNL     1      -4.431  11.182  16.210  0.00  0.00    +0.000 A 
ATOM     13  C   UNL     1      -4.285  11.736  17.479  0.00  0.00    +0.000 A 
ATOM     14  C   UNL     1      -3.131  11.480  18.242  0.00  0.00    +0.000 A 
ATOM     15  C   UNL     1      -3.008  12.082  19.597  0.00  0.00    +0.000 C 
ATOM     16  N   UNL     1      -3.989  12.830  20.031  0.00  0.00    +0.000 NA
ATOM     17  C   UNL     1      -1.730  11.774  20.385  0.00  0.00    +0.000 C 
ATOM     18  O   UNL     1      -1.499  12.250  21.488  0.00  0.00    +0.000 OA
ENDROOT
BRANCH  16  19
ATOM     19  O   UNL     1      -3.778  13.338  21.310  0.00  0.00    +0.000 OA
ATOM     20  H   UNL     1      -4.297  12.739  21.876  0.00  0.00    +0.000 HD
ENDBRANCH  16  19
TORSDOF 1
ENDMDL
