MODEL 1
REMARK VINA RESULT:      -7.9      0.000      0.000
REMARK  Name = 
REMARK  4 active torsions:
REMARK  status: ('A' for Active; 'I' for Inactive)
REMARK    1  A    between atoms: C_1  and  C_2
REMARK    2  A    between atoms: C_6  and  C_7
REMARK    3  A    between atoms: N_9  and  N_10
REMARK    4  A    between atoms: N_13  and  C_14
REMARK                            x       y       z     vdW  Elec       q    Type
REMARK                         _______ _______ _______ _____ _____    ______ ____
ROOT
ATOM      1  N   UNL     1       6.203   4.269  17.872  0.00  0.00    +0.000 N 
ATOM      2  C   UNL     1       4.931   3.839  18.213  0.00  0.00    +0.000 C 
ATOM      3  O   UNL     1       4.187   3.385  17.347  0.00  0.00    +0.000 OA
ATOM      4  N   UNL     1       4.623   4.043  19.539  0.00  0.00    +0.000 N 
ATOM      5  H   UNL     1       6.973   4.200  18.531  0.00  0.00    +0.000 HD
ATOM      6  H   UNL     1       5.226   4.677  20.040  0.00  0.00    +0.000 HD
ENDROOT
BRANCH   4   7
ATOM      7  C   UNL     1       3.389   3.711  20.144  0.00  0.00    +0.000 A 
ATOM      8  C   UNL     1       2.220   4.455  19.949  0.00  0.00    +0.000 A 
ATOM      9  C   UNL     1       1.037   4.120  20.609  0.00  0.00    +0.000 A 
ATOM     10  C   UNL     1       1.006   3.025  21.467  0.00  0.00    +0.000 A 
ATOM     11  C   UNL     1       2.154   2.257  21.648  0.00  0.00    +0.000 A 
ATOM     12  C   UNL     1       3.339   2.591  20.982  0.00  0.00    +0.000 A 
ENDBRANCH   4   7
BRANCH   1  15
ATOM     13  C   UNL     1       6.463   5.068  15.605  0.00  0.00    +0.000 C 
ATOM     14  O   UNL     1       6.208   6.224  15.935  0.00  0.00    +0.000 OA
ATOM     15  N   UNL     1       6.546   4.045  16.523  0.00  0.00    +0.000 N 
ATOM     16  H   UNL     1       6.719   3.069  16.298  0.00  0.00    +0.000 HD
BRANCH  13  22
ATOM     17  C   UNL     1       5.583   2.258  11.465  0.00  0.00    +0.000 C 
ATOM     18  C   UNL     1       6.309   3.380  12.154  0.00  0.00    +0.000 A 
ATOM     19  C   UNL     1       7.257   4.144  11.469  0.00  0.00    +0.000 A 
ATOM     20  C   UNL     1       7.925   5.182  12.118  0.00  0.00    +0.000 A 
ATOM     21  C   UNL     1       7.650   5.463  13.458  0.00  0.00    +0.000 A 
ATOM     22  C   UNL     1       6.706   4.709  14.168  0.00  0.00    +0.000 A 
ATOM     23  C   UNL     1       6.037   3.667  13.502  0.00  0.00    +0.000 A 
ENDBRANCH  13  22
ENDBRANCH   1  15
TORSDOF 3
ENDMDL
MODEL 2
REMARK VINA RESULT:      -7.8      0.115      1.082
REMARK  Name = 
REMARK  4 active torsions:
REMARK  status: ('A' for Active; 'I' for Inactive)
REMARK    1  A    between atoms: C_1  and  C_2
REMARK    2  A    between atoms: C_6  and  C_7
REMARK    3  A    between atoms: N_9  and  N_10
REMARK    4  A    between atoms: N_13  and  C_14
REMARK                            x       y       z     vdW  Elec       q    Type
REMARK                         _______ _______ _______ _____ _____    ______ ____
ROOT
ATOM      1  N   UNL     1       6.228   4.351  17.919  0.00  0.00    +0.000 N 
ATOM      2  C   UNL     1       4.968   3.892  18.266  0.00  0.00    +0.000 C 
ATOM      3  O   UNL     1       4.237   3.404  17.407  0.00  0.00    +0.000 OA
ATOM      4  N   UNL     1       4.654   4.109  19.588  0.00  0.00    +0.000 N 
ATOM      5  H   UNL     1       6.998   4.314  18.578  0.00  0.00    +0.000 HD
ATOM      6  H   UNL     1       5.239   4.768  20.079  0.00  0.00    +0.000 HD
ENDROOT
BRANCH   4   7
ATOM      7  C   UNL     1       3.428   3.753  20.199  0.00  0.00    +0.000 A 
ATOM      8  C   UNL     1       3.284   2.627  21.016  0.00  0.00    +0.000 A 
ATOM      9  C   UNL     1       2.042   2.286  21.555  0.00  0.00    +0.000 A 
ATOM     10  C   UNL     1       0.929   3.078  21.292  0.00  0.00    +0.000 A 
ATOM     11  C   UNL     1       1.064   4.220  20.505  0.00  0.00    +0.000 A 
ATOM     12  C   UNL     1       2.311   4.563  19.968  0.00  0.00    +0.000 A 
ENDBRANCH   4   7
BRANCH   1  15
ATOM     13  C   UNL     1       6.378   5.089  15.620  0.00  0.00    +0.000 C 
ATOM     14  O   UNL     1       6.008   6.224  15.914  0.00  0.00    +0.000 OA
ATOM     15  N   UNL     1       6.577   4.114  16.573  0.00  0.00    +0.000 N 
ATOM     16  H   UNL     1       6.849   3.154  16.380  0.00  0.00    +0.000 HD
BRANCH  13  22
ATOM     17  C   UNL     1       5.462   2.296  11.477  0.00  0.00    +0.000 C 
ATOM     18  C   UNL     1       6.229   3.382  12.179  0.00  0.00    +0.000 A 
ATOM     19  C   UNL     1       7.237   4.087  11.516  0.00  0.00    +0.000 A 
ATOM     20  C   UNL     1       7.942   5.092  12.177  0.00  0.00    +0.000 A 
ATOM     21  C   UNL     1       7.646   5.399  13.506  0.00  0.00    +0.000 A 
ATOM     22  C   UNL     1       6.641   4.705  14.194  0.00  0.00    +0.000 A 
ATOM     23  C   UNL     1       5.935   3.695  13.516  0.00  0.00    +0.000 A 
ENDBRANCH  13  22
ENDBRANCH   1  15
TORSDOF 3
ENDMDL
MODEL 3
REMARK VINA RESULT:      -7.5      5.781      8.404
REMARK  Name = 
REMARK  4 active torsions:
REMARK  status: ('A' for Active; 'I' for Inactive)
REMARK    1  A    between atoms: C_1  and  C_2
REMARK    2  A    between atoms: C_6  and  C_7
REMARK    3  A    between atoms: N_9  and  N_10
REMARK    4  A    between atoms: N_13  and  C_14
REMARK                            x       y       z     vdW  Elec       q    Type
REMARK                         _______ _______ _______ _____ _____    ______ ____
ROOT
ATOM      1  N   UNL     1       1.782   8.454  21.142  0.00  0.00    +0.000 N 
ATOM      2  C   UNL     1       0.524   8.971  21.407  0.00  0.00    +0.000 C 
ATOM      3  O   UNL     1      -0.451   8.223  21.434  0.00  0.00    +0.000 OA
ATOM      4  N   UNL     1       0.517  10.339  21.551  0.00  0.00    +0.000 N 
ATOM      5  H   UNL     1       2.615   8.870  21.547  0.00  0.00    +0.000 HD
ATOM      6  H   UNL     1       1.337  10.823  21.219  0.00  0.00    +0.000 HD
ENDROOT
BRANCH   4   7
ATOM      7  C   UNL     1      -0.634  11.121  21.809  0.00  0.00    +0.000 A 
ATOM      8  C   UNL     1      -1.266  11.156  23.056  0.00  0.00    +0.000 A 
ATOM      9  C   UNL     1      -2.430  11.901  23.250  0.00  0.00    +0.000 A 
ATOM     10  C   UNL     1      -2.970  12.633  22.197  0.00  0.00    +0.000 A 
ATOM     11  C   UNL     1      -2.334  12.632  20.958  0.00  0.00    +0.000 A 
ATOM     12  C   UNL     1      -1.164  11.887  20.765  0.00  0.00    +0.000 A 
ENDBRANCH   4   7
BRANCH   1  15
ATOM     13  C   UNL     1       2.253   6.464  19.850  0.00  0.00    +0.000 C 
ATOM     14  O   UNL     1       2.740   7.122  18.932  0.00  0.00    +0.000 OA
ATOM     15  N   UNL     1       1.814   7.049  21.017  0.00  0.00    +0.000 N 
ATOM     16  H   UNL     1       1.374   6.556  21.789  0.00  0.00    +0.000 HD
BRANCH  13  22
ATOM     17  C   UNL     1       3.424   1.980  17.771  0.00  0.00    +0.000 C 
ATOM     18  C   UNL     1       2.658   2.796  18.774  0.00  0.00    +0.000 A 
ATOM     19  C   UNL     1       1.771   2.184  19.664  0.00  0.00    +0.000 A 
ATOM     20  C   UNL     1       1.064   2.951  20.590  0.00  0.00    +0.000 A 
ATOM     21  C   UNL     1       1.238   4.336  20.632  0.00  0.00    +0.000 A 
ATOM     22  C   UNL     1       2.118   4.974  19.747  0.00  0.00    +0.000 A 
ATOM     23  C   UNL     1       2.827   4.190  18.820  0.00  0.00    +0.000 A 
ENDBRANCH  13  22
ENDBRANCH   1  15
TORSDOF 3
ENDMDL
MODEL 4
REMARK VINA RESULT:      -7.4      5.833      8.418
REMARK  Name = 
REMARK  4 active torsions:
REMARK  status: ('A' for Active; 'I' for Inactive)
REMARK    1  A    between atoms: C_1  and  C_2
REMARK    2  A    between atoms: C_6  and  C_7
REMARK    3  A    between atoms: N_9  and  N_10
REMARK    4  A    between atoms: N_13  and  C_14
REMARK                            x       y       z     vdW  Elec       q    Type
REMARK                         _______ _______ _______ _____ _____    ______ ____
ROOT
ATOM      1  N   UNL     1       1.720   8.474  21.257  0.00  0.00    +0.000 N 
ATOM      2  C   UNL     1       0.446   8.986  21.443  0.00  0.00    +0.000 C 
ATOM      3  O   UNL     1      -0.527   8.237  21.391  0.00  0.00    +0.000 OA
ATOM      4  N   UNL     1       0.426  10.351  21.611  0.00  0.00    +0.000 N 
ATOM      5  H   UNL     1       2.522   8.884  21.725  0.00  0.00    +0.000 HD
ATOM      6  H   UNL     1       1.267  10.842  21.344  0.00  0.00    +0.000 HD
ENDROOT
BRANCH   4   7
ATOM      7  C   UNL     1      -0.741  11.127  21.803  0.00  0.00    +0.000 A 
ATOM      8  C   UNL     1      -1.332  11.878  20.781  0.00  0.00    +0.000 A 
ATOM      9  C   UNL     1      -2.454  12.671  21.030  0.00  0.00    +0.000 A 
ATOM     10  C   UNL     1      -3.006  12.713  22.306  0.00  0.00    +0.000 A 
ATOM     11  C   UNL     1      -2.446  11.947  23.326  0.00  0.00    +0.000 A 
ATOM     12  C   UNL     1      -1.323  11.149  23.075  0.00  0.00    +0.000 A 
ENDBRANCH   4   7
BRANCH   1  15
ATOM     13  C   UNL     1       2.178   6.510  19.923  0.00  0.00    +0.000 C 
ATOM     14  O   UNL     1       2.634   7.186  19.003  0.00  0.00    +0.000 OA
ATOM     15  N   UNL     1       1.763   7.072  21.109  0.00  0.00    +0.000 N 
ATOM     16  H   UNL     1       1.348   6.563  21.885  0.00  0.00    +0.000 HD
BRANCH  13  22
ATOM     17  C   UNL     1       3.039   2.112  17.530  0.00  0.00    +0.000 C 
ATOM     18  C   UNL     1       2.452   2.882  18.679  0.00  0.00    +0.000 A 
ATOM     19  C   UNL     1       1.754   2.225  19.697  0.00  0.00    +0.000 A 
ATOM     20  C   UNL     1       1.213   2.950  20.759  0.00  0.00    +0.000 A 
ATOM     21  C   UNL     1       1.363   4.336  20.811  0.00  0.00    +0.000 A 
ATOM     22  C   UNL     1       2.056   5.019  19.801  0.00  0.00    +0.000 A 
ATOM     23  C   UNL     1       2.600   4.278  18.737  0.00  0.00    +0.000 A 
ENDBRANCH  13  22
ENDBRANCH   1  15
TORSDOF 3
ENDMDL
MODEL 5
REMARK VINA RESULT:      -7.4      5.575      8.178
REMARK  Name = 
REMARK  4 active torsions:
REMARK  status: ('A' for Active; 'I' for Inactive)
REMARK    1  A    between atoms: C_1  and  C_2
REMARK    2  A    between atoms: C_6  and  C_7
REMARK    3  A    between atoms: N_9  and  N_10
REMARK    4  A    between atoms: N_13  and  C_14
REMARK                            x       y       z     vdW  Elec       q    Type
REMARK                         _______ _______ _______ _____ _____    ______ ____
ROOT
ATOM      1  N   UNL     1       8.536   7.577  18.926  0.00  0.00    +0.000 N 
ATOM      2  C   UNL     1       8.519   8.912  18.560  0.00  0.00    +0.000 C 
ATOM      3  O   UNL     1       7.691   9.312  17.744  0.00  0.00    +0.000 OA
ATOM      4  N   UNL     1       9.524   9.650  19.140  0.00  0.00    +0.000 N 
ATOM      5  H   UNL     1       8.825   7.293  19.857  0.00  0.00    +0.000 HD
ATOM      6  H   UNL     1      10.280   9.122  19.551  0.00  0.00    +0.000 HD
ENDROOT
BRANCH   4   7
ATOM      7  C   UNL     1       9.745  11.031  18.926  0.00  0.00    +0.000 A 
ATOM      8  C   UNL     1      10.353  11.534  17.770  0.00  0.00    +0.000 A 
ATOM      9  C   UNL     1      10.597  12.900  17.625  0.00  0.00    +0.000 A 
ATOM     10  C   UNL     1      10.224  13.784  18.632  0.00  0.00    +0.000 A 
ATOM     11  C   UNL     1       9.590  13.301  19.775  0.00  0.00    +0.000 A 
ATOM     12  C   UNL     1       9.342  11.931  19.918  0.00  0.00    +0.000 A 
ENDBRANCH   4   7
BRANCH   1  15
ATOM     13  C   UNL     1       7.030   5.686  19.006  0.00  0.00    +0.000 C 
ATOM     14  O   UNL     1       7.406   5.377  20.134  0.00  0.00    +0.000 OA
ATOM     15  N   UNL     1       7.496   6.809  18.360  0.00  0.00    +0.000 N 
ATOM     16  H   UNL     1       7.243   7.090  17.416  0.00  0.00    +0.000 HD
BRANCH  13  22
ATOM     17  C   UNL     1       3.143   2.419  18.862  0.00  0.00    +0.000 C 
ATOM     18  C   UNL     1       4.154   3.279  18.158  0.00  0.00    +0.000 A 
ATOM     19  C   UNL     1       4.200   3.331  16.762  0.00  0.00    +0.000 A 
ATOM     20  C   UNL     1       5.143   4.132  16.119  0.00  0.00    +0.000 A 
ATOM     21  C   UNL     1       6.049   4.887  16.867  0.00  0.00    +0.000 A 
ATOM     22  C   UNL     1       6.026   4.850  18.268  0.00  0.00    +0.000 A 
ATOM     23  C   UNL     1       5.069   4.040  18.905  0.00  0.00    +0.000 A 
ENDBRANCH  13  22
ENDBRANCH   1  15
TORSDOF 3
ENDMDL
MODEL 6
REMARK VINA RESULT:      -7.3      5.858      8.048
REMARK  Name = 
REMARK  4 active torsions:
REMARK  status: ('A' for Active; 'I' for Inactive)
REMARK    1  A    between atoms: C_1  and  C_2
REMARK    2  A    between atoms: C_6  and  C_7
REMARK    3  A    between atoms: N_9  and  N_10
REMARK    4  A    between atoms: N_13  and  C_14
REMARK                            x       y       z     vdW  Elec       q    Type
REMARK                         _______ _______ _______ _____ _____    ______ ____
ROOT
ATOM      1  N   UNL     1       8.692   7.878  19.004  0.00  0.00    +0.000 N 
ATOM      2  C   UNL     1       8.694   9.235  18.722  0.00  0.00    +0.000 C 
ATOM      3  O   UNL     1       7.970   9.675  17.832  0.00  0.00    +0.000 OA
ATOM      4  N   UNL     1       9.602   9.946  19.473  0.00  0.00    +0.000 N 
ATOM      5  H   UNL     1       8.865   7.539  19.945  0.00  0.00    +0.000 HD
ATOM      6  H   UNL     1      10.309   9.402  19.944  0.00  0.00    +0.000 HD
ENDROOT
BRANCH   4   7
ATOM      7  C   UNL     1       9.820  11.340  19.374  0.00  0.00    +0.000 A 
ATOM      8  C   UNL     1       9.341  12.254  20.319  0.00  0.00    +0.000 A 
ATOM      9  C   UNL     1       9.535  13.626  20.153  0.00  0.00    +0.000 A 
ATOM     10  C   UNL     1      10.223  14.101  19.042  0.00  0.00    +0.000 A 
ATOM     11  C   UNL     1      10.733  13.201  18.108  0.00  0.00    +0.000 A 
ATOM     12  C   UNL     1      10.541  11.825  18.277  0.00  0.00    +0.000 A 
ENDBRANCH   4   7
BRANCH   1  15
ATOM     13  C   UNL     1       7.536   5.805  18.541  0.00  0.00    +0.000 C 
ATOM     14  O   UNL     1       8.058   5.248  19.505  0.00  0.00    +0.000 OA
ATOM     15  N   UNL     1       7.749   7.136  18.262  0.00  0.00    +0.000 N 
ATOM     16  H   UNL     1       7.371   7.635  17.461  0.00  0.00    +0.000 HD
BRANCH  13  22
ATOM     17  C   UNL     1       6.301   3.974  13.967  0.00  0.00    +0.000 C 
ATOM     18  C   UNL     1       5.997   4.157  15.427  0.00  0.00    +0.000 A 
ATOM     19  C   UNL     1       4.830   3.628  15.986  0.00  0.00    +0.000 A 
ATOM     20  C   UNL     1       4.558   3.806  17.342  0.00  0.00    +0.000 A 
ATOM     21  C   UNL     1       5.450   4.513  18.150  0.00  0.00    +0.000 A 
ATOM     22  C   UNL     1       6.626   5.056  17.613  0.00  0.00    +0.000 A 
ATOM     23  C   UNL     1       6.890   4.869  16.245  0.00  0.00    +0.000 A 
ENDBRANCH  13  22
ENDBRANCH   1  15
TORSDOF 3
ENDMDL
MODEL 7
REMARK VINA RESULT:      -7.3      5.921      8.162
REMARK  Name = 
REMARK  4 active torsions:
REMARK  status: ('A' for Active; 'I' for Inactive)
REMARK    1  A    between atoms: C_1  and  C_2
REMARK    2  A    between atoms: C_6  and  C_7
REMARK    3  A    between atoms: N_9  and  N_10
REMARK    4  A    between atoms: N_13  and  C_14
REMARK                            x       y       z     vdW  Elec       q    Type
REMARK                         _______ _______ _______ _____ _____    ______ ____
ROOT
ATOM      1  N   UNL     1       8.725   8.047  18.917  0.00  0.00    +0.000 N 
ATOM      2  C   UNL     1       8.685   9.392  18.589  0.00  0.00    +0.000 C 
ATOM      3  O   UNL     1       7.921   9.785  17.710  0.00  0.00    +0.000 OA
ATOM      4  N   UNL     1       9.600  10.150  19.283  0.00  0.00    +0.000 N 
ATOM      5  H   UNL     1       8.937   7.746  19.863  0.00  0.00    +0.000 HD
ATOM      6  H   UNL     1      10.335   9.639  19.748  0.00  0.00    +0.000 HD
ENDROOT
BRANCH   4   7
ATOM      7  C   UNL     1       9.781  11.545  19.129  0.00  0.00    +0.000 A 
ATOM      8  C   UNL     1      10.354  12.116  17.987  0.00  0.00    +0.000 A 
ATOM      9  C   UNL     1      10.560  13.494  17.901  0.00  0.00    +0.000 A 
ATOM     10  C   UNL     1      10.184  14.320  18.955  0.00  0.00    +0.000 A 
ATOM     11  C   UNL     1       9.585  13.769  20.085  0.00  0.00    +0.000 A 
ATOM     12  C   UNL     1       9.374  12.387  20.169  0.00  0.00    +0.000 A 
ENDBRANCH   4   7
BRANCH   1  15
ATOM     13  C   UNL     1       7.576   5.944  18.593  0.00  0.00    +0.000 C 
ATOM     14  O   UNL     1       8.116   5.446  19.579  0.00  0.00    +0.000 OA
ATOM     15  N   UNL     1       7.775   7.258  18.234  0.00  0.00    +0.000 N 
ATOM     16  H   UNL     1       7.381   7.707  17.412  0.00  0.00    +0.000 HD
BRANCH  13  22
ATOM     17  C   UNL     1       6.239   3.915  14.132  0.00  0.00    +0.000 C 
ATOM     18  C   UNL     1       5.980   4.143  15.594  0.00  0.00    +0.000 A 
ATOM     19  C   UNL     1       4.848   3.604  16.212  0.00  0.00    +0.000 A 
ATOM     20  C   UNL     1       4.617   3.823  17.570  0.00  0.00    +0.000 A 
ATOM     21  C   UNL     1       5.515   4.583  18.321  0.00  0.00    +0.000 A 
ATOM     22  C   UNL     1       6.656   5.138  17.724  0.00  0.00    +0.000 A 
ATOM     23  C   UNL     1       6.880   4.908  16.355  0.00  0.00    +0.000 A 
ENDBRANCH  13  22
ENDBRANCH   1  15
TORSDOF 3
ENDMDL
MODEL 8
REMARK VINA RESULT:      -7.3      5.880      8.059
REMARK  Name = 
REMARK  4 active torsions:
REMARK  status: ('A' for Active; 'I' for Inactive)
REMARK    1  A    between atoms: C_1  and  C_2
REMARK    2  A    between atoms: C_6  and  C_7
REMARK    3  A    between atoms: N_9  and  N_10
REMARK    4  A    between atoms: N_13  and  C_14
REMARK                            x       y       z     vdW  Elec       q    Type
REMARK                         _______ _______ _______ _____ _____    ______ ____
ROOT
ATOM      1  N   UNL     1       8.670   7.890  18.991  0.00  0.00    +0.000 N 
ATOM      2  C   UNL     1       8.703   9.245  18.706  0.00  0.00    +0.000 C 
ATOM      3  O   UNL     1       8.025   9.692  17.785  0.00  0.00    +0.000 OA
ATOM      4  N   UNL     1       9.587   9.947  19.494  0.00  0.00    +0.000 N 
ATOM      5  H   UNL     1       8.797   7.551  19.940  0.00  0.00    +0.000 HD
ATOM      6  H   UNL     1      10.265   9.395  19.998  0.00  0.00    +0.000 HD
ENDROOT
BRANCH   4   7
ATOM      7  C   UNL     1       9.827  11.337  19.402  0.00  0.00    +0.000 A 
ATOM      8  C   UNL     1       9.318  12.261  20.322  0.00  0.00    +0.000 A 
ATOM      9  C   UNL     1       9.539  13.630  20.160  0.00  0.00    +0.000 A 
ATOM     10  C   UNL     1      10.283  14.092  19.080  0.00  0.00    +0.000 A 
ATOM     11  C   UNL     1      10.821  13.182  18.173  0.00  0.00    +0.000 A 
ATOM     12  C   UNL     1      10.603  11.808  18.337  0.00  0.00    +0.000 A 
ENDBRANCH   4   7
BRANCH   1  15
ATOM     13  C   UNL     1       7.538   5.820  18.458  0.00  0.00    +0.000 C 
ATOM     14  O   UNL     1       8.037   5.247  19.424  0.00  0.00    +0.000 OA
ATOM     15  N   UNL     1       7.751   7.158  18.211  0.00  0.00    +0.000 N 
ATOM     16  H   UNL     1       7.391   7.670  17.410  0.00  0.00    +0.000 HD
BRANCH  13  22
ATOM     17  C   UNL     1       3.178   3.540  17.197  0.00  0.00    +0.000 C 
ATOM     18  C   UNL     1       4.571   3.981  16.847  0.00  0.00    +0.000 A 
ATOM     19  C   UNL     1       5.108   3.716  15.585  0.00  0.00    +0.000 A 
ATOM     20  C   UNL     1       6.403   4.130  15.271  0.00  0.00    +0.000 A 
ATOM     21  C   UNL     1       7.170   4.810  16.218  0.00  0.00    +0.000 A 
ATOM     22  C   UNL     1       6.656   5.086  17.492  0.00  0.00    +0.000 A 
ATOM     23  C   UNL     1       5.349   4.666  17.796  0.00  0.00    +0.000 A 
ENDBRANCH  13  22
ENDBRANCH   1  15
TORSDOF 3
ENDMDL
MODEL 9
REMARK VINA RESULT:      -7.2      3.077      8.360
REMARK  Name = 
REMARK  4 active torsions:
REMARK  status: ('A' for Active; 'I' for Inactive)
REMARK    1  A    between atoms: C_1  and  C_2
REMARK    2  A    between atoms: C_6  and  C_7
REMARK    3  A    between atoms: N_9  and  N_10
REMARK    4  A    between atoms: N_13  and  C_14
REMARK                            x       y       z     vdW  Elec       q    Type
REMARK                         _______ _______ _______ _____ _____    ______ ____
ROOT
ATOM      1  N   UNL     1       4.785   5.363  17.585  0.00  0.00    +0.000 N 
ATOM      2  C   UNL     1       5.195   5.565  16.278  0.00  0.00    +0.000 C 
ATOM      3  O   UNL     1       4.897   6.607  15.698  0.00  0.00    +0.000 OA
ATOM      4  N   UNL     1       5.868   4.490  15.745  0.00  0.00    +0.000 N 
ATOM      5  H   UNL     1       5.346   4.815  18.231  0.00  0.00    +0.000 HD
ATOM      6  H   UNL     1       5.778   3.619  16.247  0.00  0.00    +0.000 HD
ENDROOT
BRANCH   4   7
ATOM      7  C   UNL     1       6.380   4.425  14.428  0.00  0.00    +0.000 A 
ATOM      8  C   UNL     1       7.471   5.188  13.997  0.00  0.00    +0.000 A 
ATOM      9  C   UNL     1       7.909   5.130  12.673  0.00  0.00    +0.000 A 
ATOM     10  C   UNL     1       7.265   4.298  11.764  0.00  0.00    +0.000 A 
ATOM     11  C   UNL     1       6.197   3.509  12.186  0.00  0.00    +0.000 A 
ATOM     12  C   UNL     1       5.761   3.565  13.515  0.00  0.00    +0.000 A 
ENDBRANCH   4   7
BRANCH   1  15
ATOM     13  C   UNL     1       2.836   6.326  18.644  0.00  0.00    +0.000 C 
ATOM     14  O   UNL     1       2.277   5.233  18.710  0.00  0.00    +0.000 OA
ATOM     15  N   UNL     1       4.116   6.465  18.157  0.00  0.00    +0.000 N 
ATOM     16  H   UNL     1       4.609   7.347  18.050  0.00  0.00    +0.000 HD
BRANCH  13  22
ATOM     17  C   UNL     1       0.589   9.172  22.201  0.00  0.00    +0.000 C 
ATOM     18  C   UNL     1       1.059   8.978  20.787  0.00  0.00    +0.000 A 
ATOM     19  C   UNL     1       0.867   9.975  19.826  0.00  0.00    +0.000 A 
ATOM     20  C   UNL     1       1.307   9.783  18.517  0.00  0.00    +0.000 A 
ATOM     21  C   UNL     1       1.943   8.593  18.158  0.00  0.00    +0.000 A 
ATOM     22  C   UNL     1       2.146   7.577  19.102  0.00  0.00    +0.000 A 
ATOM     23  C   UNL     1       1.699   7.782  20.419  0.00  0.00    +0.000 A 
ENDBRANCH  13  22
ENDBRANCH   1  15
TORSDOF 3
ENDMDL
