MODEL 1
REMARK VINA RESULT:      -7.4      0.000      0.000
REMARK  Name = 
REMARK  9 active torsions:
REMARK  status: ('A' for Active; 'I' for Inactive)
REMARK    1  A    between atoms: C_1  and  N_2
REMARK    2  A    between atoms: N_2  and  C_3
REMARK    3  A    between atoms: C_3  and  C_4
REMARK    4  A    between atoms: C_4  and  O_5
REMARK    5  A    between atoms: C_4  and  C_6
REMARK    6  A    between atoms: C_6  and  N_7
REMARK    7  A    between atoms: C_15  and  O_16
REMARK    8  A    between atoms: O_16  and  C_17
REMARK    9  A    between atoms: C_17  and  C_18
REMARK                            x       y       z     vdW  Elec       q    Type
REMARK                         _______ _______ _______ _____ _____    ______ ____
ROOT
ATOM      1  N   UNL     1       4.356   4.413  16.578  0.00  0.00    +0.000 NA
ATOM      2  C   UNL     1       4.318   5.703  17.295  0.00  0.00    +0.000 C 
ATOM      3  C   UNL     1       4.220   5.605  18.828  0.00  0.00    +0.000 C 
ATOM      4  C   UNL     1       2.998   4.790  19.181  0.00  0.00    +0.000 A 
ATOM      5  C   UNL     1       2.776   3.650  18.380  0.00  0.00    +0.000 A 
ATOM      6  C   UNL     1       1.678   2.818  18.606  0.00  0.00    +0.000 A 
ATOM      7  C   UNL     1       0.815   3.091  19.653  0.00  0.00    +0.000 A 
ATOM      8  C   UNL     1       1.042   4.202  20.463  0.00  0.00    +0.000 A 
ATOM      9  C   UNL     1       2.102   5.092  20.210  0.00  0.00    +0.000 A 
ATOM     10  C   UNL     1       3.806   3.282  17.346  0.00  0.00    +0.000 C 
ENDROOT
BRANCH   1  11
ATOM     11  C   UNL     1       5.697   4.089  16.063  0.00  0.00    +0.000 C 
BRANCH  11  12
ATOM     12  C   UNL     1       6.819   5.060  16.522  0.00  0.00    +0.000 C 
BRANCH  12  13
ATOM     13  O   UNL     1       7.605   5.454  15.385  0.00  0.00    +0.000 OA
ATOM     14  H   UNL     1       7.438   4.814  14.677  0.00  0.00    +0.000 HD
ENDBRANCH  12  13
BRANCH  12  15
ATOM     15  C   UNL     1       7.719   4.415  17.597  0.00  0.00    +0.000 C 
BRANCH  15  17
ATOM     16  C   UNL     1       7.766   6.685  18.397  0.00  0.00    +0.000 C 
ATOM     17  N   UNL     1       7.832   5.283  18.777  0.00  0.00    +0.000 NA
ATOM     18  H   UNL     1       7.087   5.046  19.435  0.00  0.00    +0.000 HD
ENDBRANCH  15  17
ENDBRANCH  12  15
ENDBRANCH  11  12
ENDBRANCH   1  11
BRANCH   9  19
ATOM     19  O   UNL     1       2.286   6.266  20.910  0.00  0.00    +0.000 OA
BRANCH  19  20
ATOM     20  C   UNL     1       1.153   7.142  20.854  0.00  0.00    +0.000 C 
BRANCH  20  21
ATOM     21  C   UNL     1       1.346   8.399  20.041  0.00  0.00    +0.000 A 
ATOM     22  C   UNL     1       1.909   8.402  18.758  0.00  0.00    +0.000 A 
ATOM     23  C   UNL     1       1.933   9.580  18.003  0.00  0.00    +0.000 A 
ATOM     24  C   UNL     1       1.388  10.758  18.520  0.00  0.00    +0.000 A 
ATOM     25  C   UNL     1       0.837  10.756  19.792  0.00  0.00    +0.000 A 
ATOM     26  F   UNL     1       0.294  11.878  20.286  0.00  0.00    +0.000 F 
ATOM     27  C   UNL     1       0.811   9.595  20.554  0.00  0.00    +0.000 A 
ENDBRANCH  20  21
ENDBRANCH  19  20
ENDBRANCH   9  19
TORSDOF 8
ENDMDL
MODEL 2
REMARK VINA RESULT:      -7.4      3.390      6.765
REMARK  Name = 
REMARK  9 active torsions:
REMARK  status: ('A' for Active; 'I' for Inactive)
REMARK    1  A    between atoms: C_1  and  N_2
REMARK    2  A    between atoms: N_2  and  C_3
REMARK    3  A    between atoms: C_3  and  C_4
REMARK    4  A    between atoms: C_4  and  O_5
REMARK    5  A    between atoms: C_4  and  C_6
REMARK    6  A    between atoms: C_6  and  N_7
REMARK    7  A    between atoms: C_15  and  O_16
REMARK    8  A    between atoms: O_16  and  C_17
REMARK    9  A    between atoms: C_17  and  C_18
REMARK                            x       y       z     vdW  Elec       q    Type
REMARK                         _______ _______ _______ _____ _____    ______ ____
ROOT
ATOM      1  N   UNL     1       2.335   7.398  18.286  0.00  0.00    +0.000 NA
ATOM      2  C   UNL     1       2.418   6.288  19.256  0.00  0.00    +0.000 C 
ATOM      3  C   UNL     1       3.843   5.877  19.670  0.00  0.00    +0.000 C 
ATOM      4  C   UNL     1       4.624   5.527  18.425  0.00  0.00    +0.000 A 
ATOM      5  C   UNL     1       4.423   6.381  17.321  0.00  0.00    +0.000 A 
ATOM      6  C   UNL     1       5.086   6.160  16.112  0.00  0.00    +0.000 A 
ATOM      7  C   UNL     1       5.982   5.111  16.005  0.00  0.00    +0.000 A 
ATOM      8  C   UNL     1       6.204   4.277  17.100  0.00  0.00    +0.000 A 
ATOM      9  C   UNL     1       5.495   4.440  18.303  0.00  0.00    +0.000 A 
ATOM     10  C   UNL     1       3.564   7.605  17.501  0.00  0.00    +0.000 C 
ENDROOT
BRANCH   1  11
ATOM     11  C   UNL     1       1.894   8.660  18.905  0.00  0.00    +0.000 C 
BRANCH  11  12
ATOM     12  C   UNL     1       1.076   9.590  17.969  0.00  0.00    +0.000 C 
BRANCH  12  13
ATOM     13  O   UNL     1       1.935  10.617  17.446  0.00  0.00    +0.000 OA
ATOM     14  H   UNL     1       2.779  10.561  17.918  0.00  0.00    +0.000 HD
ENDBRANCH  12  13
BRANCH  12  15
ATOM     15  C   UNL     1      -0.124  10.220  18.705  0.00  0.00    +0.000 C 
BRANCH  15  17
ATOM     16  C   UNL     1      -2.015  10.936  17.400  0.00  0.00    +0.000 C 
ATOM     17  N   UNL     1      -0.710  11.313  17.918  0.00  0.00    +0.000 NA
ATOM     18  H   UNL     1      -0.775  12.146  18.505  0.00  0.00    +0.000 HD
ENDBRANCH  15  17
ENDBRANCH  12  15
ENDBRANCH  11  12
ENDBRANCH   1  11
BRANCH   9  19
ATOM     19  O   UNL     1       5.594   3.564  19.364  0.00  0.00    +0.000 OA
BRANCH  19  20
ATOM     20  C   UNL     1       4.790   2.388  19.203  0.00  0.00    +0.000 C 
BRANCH  20  21
ATOM     21  C   UNL     1       3.396   2.474  19.773  0.00  0.00    +0.000 A 
ATOM     22  C   UNL     1       3.135   2.775  21.115  0.00  0.00    +0.000 A 
ATOM     23  C   UNL     1       1.819   2.975  21.549  0.00  0.00    +0.000 A 
ATOM     24  C   UNL     1       0.760   2.886  20.643  0.00  0.00    +0.000 A 
ATOM     25  C   UNL     1       1.018   2.581  19.316  0.00  0.00    +0.000 A 
ATOM     26  F   UNL     1       0.007   2.514  18.438  0.00  0.00    +0.000 F 
ATOM     27  C   UNL     1       2.318   2.375  18.873  0.00  0.00    +0.000 A 
ENDBRANCH  20  21
ENDBRANCH  19  20
ENDBRANCH   9  19
TORSDOF 8
ENDMDL
MODEL 3
REMARK VINA RESULT:      -7.4      3.834      7.787
REMARK  Name = 
REMARK  9 active torsions:
REMARK  status: ('A' for Active; 'I' for Inactive)
REMARK    1  A    between atoms: C_1  and  N_2
REMARK    2  A    between atoms: N_2  and  C_3
REMARK    3  A    between atoms: C_3  and  C_4
REMARK    4  A    between atoms: C_4  and  O_5
REMARK    5  A    between atoms: C_4  and  C_6
REMARK    6  A    between atoms: C_6  and  N_7
REMARK    7  A    between atoms: C_15  and  O_16
REMARK    8  A    between atoms: O_16  and  C_17
REMARK    9  A    between atoms: C_17  and  C_18
REMARK                            x       y       z     vdW  Elec       q    Type
REMARK                         _______ _______ _______ _____ _____    ______ ____
ROOT
ATOM      1  N   UNL     1       3.460   3.485  18.709  0.00  0.00    +0.000 NA
ATOM      2  C   UNL     1       3.224   3.799  17.287  0.00  0.00    +0.000 C 
ATOM      3  C   UNL     1       4.469   3.747  16.383  0.00  0.00    +0.000 C 
ATOM      4  C   UNL     1       5.512   4.683  16.946  0.00  0.00    +0.000 A 
ATOM      5  C   UNL     1       5.651   4.664  18.349  0.00  0.00    +0.000 A 
ATOM      6  C   UNL     1       6.580   5.488  18.990  0.00  0.00    +0.000 A 
ATOM      7  C   UNL     1       7.403   6.306  18.236  0.00  0.00    +0.000 A 
ATOM      8  C   UNL     1       7.288   6.312  16.847  0.00  0.00    +0.000 A 
ATOM      9  C   UNL     1       6.312   5.543  16.187  0.00  0.00    +0.000 A 
ATOM     10  C   UNL     1       4.858   3.660  19.141  0.00  0.00    +0.000 C 
ENDROOT
BRANCH   1  11
ATOM     11  C   UNL     1       2.962   2.150  19.085  0.00  0.00    +0.000 C 
BRANCH  11  12
ATOM     12  C   UNL     1       1.497   2.127  19.601  0.00  0.00    +0.000 C 
BRANCH  12  13
ATOM     13  O   UNL     1       0.605   2.451  18.522  0.00  0.00    +0.000 OA
ATOM     14  H   UNL     1      -0.181   2.866  18.906  0.00  0.00    +0.000 HD
ENDBRANCH  12  13
BRANCH  12  15
ATOM     15  C   UNL     1       1.296   3.109  20.774  0.00  0.00    +0.000 C 
BRANCH  15  17
ATOM     16  C   UNL     1       1.702   5.481  20.724  0.00  0.00    +0.000 C 
ATOM     17  N   UNL     1       0.815   4.412  20.293  0.00  0.00    +0.000 NA
ATOM     18  H   UNL     1       0.743   4.383  19.275  0.00  0.00    +0.000 HD
ENDBRANCH  15  17
ENDBRANCH  12  15
ENDBRANCH  11  12
ENDBRANCH   1  11
BRANCH   9  19
ATOM     19  O   UNL     1       6.084   5.615  14.829  0.00  0.00    +0.000 OA
BRANCH  19  20
ATOM     20  C   UNL     1       7.093   4.960  14.050  0.00  0.00    +0.000 C 
BRANCH  20  21
ATOM     21  C   UNL     1       6.580   4.062  12.951  0.00  0.00    +0.000 A 
ATOM     22  C   UNL     1       7.405   3.194  12.225  0.00  0.00    +0.000 A 
ATOM     23  C   UNL     1       6.847   2.288  11.315  0.00  0.00    +0.000 A 
ATOM     24  C   UNL     1       5.463   2.238  11.134  0.00  0.00    +0.000 A 
ATOM     25  C   UNL     1       4.647   3.102  11.848  0.00  0.00    +0.000 A 
ATOM     26  F   UNL     1       3.317   3.045  11.692  0.00  0.00    +0.000 F 
ATOM     27  C   UNL     1       5.189   4.009  12.749  0.00  0.00    +0.000 A 
ENDBRANCH  20  21
ENDBRANCH  19  20
ENDBRANCH   9  19
TORSDOF 8
ENDMDL
MODEL 4
REMARK VINA RESULT:      -7.3      0.923      1.587
REMARK  Name = 
REMARK  9 active torsions:
REMARK  status: ('A' for Active; 'I' for Inactive)
REMARK    1  A    between atoms: C_1  and  N_2
REMARK    2  A    between atoms: N_2  and  C_3
REMARK    3  A    between atoms: C_3  and  C_4
REMARK    4  A    between atoms: C_4  and  O_5
REMARK    5  A    between atoms: C_4  and  C_6
REMARK    6  A    between atoms: C_6  and  N_7
REMARK    7  A    between atoms: C_15  and  O_16
REMARK    8  A    between atoms: O_16  and  C_17
REMARK    9  A    between atoms: C_17  and  C_18
REMARK                            x       y       z     vdW  Elec       q    Type
REMARK                         _______ _______ _______ _____ _____    ______ ____
ROOT
ATOM      1  N   UNL     1       4.358   4.473  16.630  0.00  0.00    +0.000 NA
ATOM      2  C   UNL     1       4.285   5.776  17.319  0.00  0.00    +0.000 C 
ATOM      3  C   UNL     1       4.147   5.707  18.851  0.00  0.00    +0.000 C 
ATOM      4  C   UNL     1       2.927   4.882  19.188  0.00  0.00    +0.000 A 
ATOM      5  C   UNL     1       2.742   3.724  18.404  0.00  0.00    +0.000 A 
ATOM      6  C   UNL     1       1.649   2.881  18.617  0.00  0.00    +0.000 A 
ATOM      7  C   UNL     1       0.755   3.163  19.636  0.00  0.00    +0.000 A 
ATOM      8  C   UNL     1       0.946   4.292  20.430  0.00  0.00    +0.000 A 
ATOM      9  C   UNL     1       2.000   5.191  20.188  0.00  0.00    +0.000 A 
ATOM     10  C   UNL     1       3.803   3.350  17.404  0.00  0.00    +0.000 C 
ENDROOT
BRANCH   1  11
ATOM     11  C   UNL     1       5.717   4.158  16.155  0.00  0.00    +0.000 C 
BRANCH  11  12
ATOM     12  C   UNL     1       6.812   5.158  16.617  0.00  0.00    +0.000 C 
BRANCH  12  13
ATOM     13  O   UNL     1       7.532   5.641  15.470  0.00  0.00    +0.000 OA
ATOM     14  H   UNL     1       8.028   4.896  15.101  0.00  0.00    +0.000 HD
ENDBRANCH  12  13
BRANCH  12  15
ATOM     15  C   UNL     1       7.783   4.506  17.623  0.00  0.00    +0.000 C 
BRANCH  15  17
ATOM     16  C   UNL     1       7.857   6.699  18.613  0.00  0.00    +0.000 C 
ATOM     17  N   UNL     1       7.831   5.269  18.878  0.00  0.00    +0.000 NA
ATOM     18  H   UNL     1       7.024   5.017  19.449  0.00  0.00    +0.000 HD
ENDBRANCH  15  17
ENDBRANCH  12  15
ENDBRANCH  11  12
ENDBRANCH   1  11
BRANCH   9  19
ATOM     19  O   UNL     1       2.151   6.381  20.868  0.00  0.00    +0.000 OA
BRANCH  19  20
ATOM     20  C   UNL     1       1.754   7.526  20.102  0.00  0.00    +0.000 C 
BRANCH  20  21
ATOM     21  C   UNL     1       0.919   8.542  20.842  0.00  0.00    +0.000 A 
ATOM     22  C   UNL     1       0.854   8.607  22.239  0.00  0.00    +0.000 A 
ATOM     23  C   UNL     1       0.171   9.658  22.864  0.00  0.00    +0.000 A 
ATOM     24  C   UNL     1      -0.440  10.653  22.097  0.00  0.00    +0.000 A 
ATOM     25  C   UNL     1      -0.381  10.584  20.713  0.00  0.00    +0.000 A 
ATOM     26  F   UNL     1      -0.948  11.547  19.973  0.00  0.00    +0.000 F 
ATOM     27  C   UNL     1       0.288   9.544  20.081  0.00  0.00    +0.000 A 
ENDBRANCH  20  21
ENDBRANCH  19  20
ENDBRANCH   9  19
TORSDOF 8
ENDMDL
MODEL 5
REMARK VINA RESULT:      -7.2      1.768      2.703
REMARK  Name = 
REMARK  9 active torsions:
REMARK  status: ('A' for Active; 'I' for Inactive)
REMARK    1  A    between atoms: C_1  and  N_2
REMARK    2  A    between atoms: N_2  and  C_3
REMARK    3  A    between atoms: C_3  and  C_4
REMARK    4  A    between atoms: C_4  and  O_5
REMARK    5  A    between atoms: C_4  and  C_6
REMARK    6  A    between atoms: C_6  and  N_7
REMARK    7  A    between atoms: C_15  and  O_16
REMARK    8  A    between atoms: O_16  and  C_17
REMARK    9  A    between atoms: C_17  and  C_18
REMARK                            x       y       z     vdW  Elec       q    Type
REMARK                         _______ _______ _______ _____ _____    ______ ____
ROOT
ATOM      1  N   UNL     1       4.971   4.388  16.992  0.00  0.00    +0.000 NA
ATOM      2  C   UNL     1       4.813   5.710  17.630  0.00  0.00    +0.000 C 
ATOM      3  C   UNL     1       4.426   5.684  19.119  0.00  0.00    +0.000 C 
ATOM      4  C   UNL     1       3.151   4.889  19.271  0.00  0.00    +0.000 A 
ATOM      5  C   UNL     1       3.072   3.713  18.495  0.00  0.00    +0.000 A 
ATOM      6  C   UNL     1       1.941   2.895  18.546  0.00  0.00    +0.000 A 
ATOM      7  C   UNL     1       0.900   3.218  19.398  0.00  0.00    +0.000 A 
ATOM      8  C   UNL     1       0.981   4.365  20.185  0.00  0.00    +0.000 A 
ATOM      9  C   UNL     1       2.079   5.240  20.098  0.00  0.00    +0.000 A 
ATOM     10  C   UNL     1       4.274   3.295  17.692  0.00  0.00    +0.000 C 
ENDROOT
BRANCH   1  11
ATOM     11  C   UNL     1       6.382   4.039  16.755  0.00  0.00    +0.000 C 
BRANCH  11  12
ATOM     12  C   UNL     1       6.945   4.509  15.386  0.00  0.00    +0.000 C 
BRANCH  12  13
ATOM     13  O   UNL     1       7.344   5.886  15.481  0.00  0.00    +0.000 OA
ATOM     14  H   UNL     1       6.546   6.413  15.629  0.00  0.00    +0.000 HD
ENDBRANCH  12  13
BRANCH  12  15
ATOM     15  C   UNL     1       5.908   4.329  14.257  0.00  0.00    +0.000 C 
BRANCH  15  17
ATOM     16  C   UNL     1       5.449   3.266  12.147  0.00  0.00    +0.000 C 
ATOM     17  N   UNL     1       6.374   3.349  13.267  0.00  0.00    +0.000 NA
ATOM     18  H   UNL     1       7.308   3.614  12.953  0.00  0.00    +0.000 HD
ENDBRANCH  15  17
ENDBRANCH  12  15
ENDBRANCH  11  12
ENDBRANCH   1  11
BRANCH   9  19
ATOM     19  O   UNL     1       2.141   6.445  20.766  0.00  0.00    +0.000 OA
BRANCH  19  20
ATOM     20  C   UNL     1       1.794   7.566  19.943  0.00  0.00    +0.000 C 
BRANCH  20  21
ATOM     21  C   UNL     1       1.081   8.692  20.652  0.00  0.00    +0.000 A 
ATOM     22  C   UNL     1       0.416   9.722  19.975  0.00  0.00    +0.000 A 
ATOM     23  C   UNL     1      -0.342  10.658  20.689  0.00  0.00    +0.000 A 
ATOM     24  C   UNL     1      -0.448  10.564  22.078  0.00  0.00    +0.000 A 
ATOM     25  C   UNL     1       0.215   9.547  22.748  0.00  0.00    +0.000 A 
ATOM     26  F   UNL     1       0.101   9.440  24.079  0.00  0.00    +0.000 F 
ATOM     27  C   UNL     1       0.975   8.616  22.053  0.00  0.00    +0.000 A 
ENDBRANCH  20  21
ENDBRANCH  19  20
ENDBRANCH   9  19
TORSDOF 8
ENDMDL
MODEL 6
REMARK VINA RESULT:      -7.2      4.861      7.980
REMARK  Name = 
REMARK  9 active torsions:
REMARK  status: ('A' for Active; 'I' for Inactive)
REMARK    1  A    between atoms: C_1  and  N_2
REMARK    2  A    between atoms: N_2  and  C_3
REMARK    3  A    between atoms: C_3  and  C_4
REMARK    4  A    between atoms: C_4  and  O_5
REMARK    5  A    between atoms: C_4  and  C_6
REMARK    6  A    between atoms: C_6  and  N_7
REMARK    7  A    between atoms: C_15  and  O_16
REMARK    8  A    between atoms: O_16  and  C_17
REMARK    9  A    between atoms: C_17  and  C_18
REMARK                            x       y       z     vdW  Elec       q    Type
REMARK                         _______ _______ _______ _____ _____    ______ ____
ROOT
ATOM      1  N   UNL     1       3.462   3.382  18.663  0.00  0.00    +0.000 NA
ATOM      2  C   UNL     1       3.257   3.787  17.259  0.00  0.00    +0.000 C 
ATOM      3  C   UNL     1       4.524   3.808  16.385  0.00  0.00    +0.000 C 
ATOM      4  C   UNL     1       5.542   4.715  17.034  0.00  0.00    +0.000 A 
ATOM      5  C   UNL     1       5.647   4.605  18.436  0.00  0.00    +0.000 A 
ATOM      6  C   UNL     1       6.550   5.394  19.153  0.00  0.00    +0.000 A 
ATOM      7  C   UNL     1       7.382   6.268  18.476  0.00  0.00    +0.000 A 
ATOM      8  C   UNL     1       7.300   6.365  17.087  0.00  0.00    +0.000 A 
ATOM      9  C   UNL     1       6.350   5.631  16.355  0.00  0.00    +0.000 A 
ATOM     10  C   UNL     1       4.846   3.542  19.140  0.00  0.00    +0.000 C 
ENDROOT
BRANCH   1  11
ATOM     11  C   UNL     1       2.970   2.020  18.938  0.00  0.00    +0.000 C 
BRANCH  11  12
ATOM     12  C   UNL     1       1.451   1.930  19.244  0.00  0.00    +0.000 C 
BRANCH  12  13
ATOM     13  O   UNL     1       0.721   1.809  18.012  0.00  0.00    +0.000 OA
ATOM     14  H   UNL     1       1.363   1.832  17.288  0.00  0.00    +0.000 HD
ENDBRANCH  12  13
BRANCH  12  15
ATOM     15  C   UNL     1       0.960   3.159  20.038  0.00  0.00    +0.000 C 
BRANCH  15  17
ATOM     16  C   UNL     1       2.311   3.655  21.968  0.00  0.00    +0.000 C 
ATOM     17  N   UNL     1       1.132   2.954  21.483  0.00  0.00    +0.000 NA
ATOM     18  H   UNL     1       0.291   3.275  21.964  0.00  0.00    +0.000 HD
ENDBRANCH  15  17
ENDBRANCH  12  15
ENDBRANCH  11  12
ENDBRANCH   1  11
BRANCH   9  19
ATOM     19  O   UNL     1       6.154   5.791  14.999  0.00  0.00    +0.000 OA
BRANCH  19  20
ATOM     20  C   UNL     1       7.055   5.011  14.201  0.00  0.00    +0.000 C 
BRANCH  20  21
ATOM     21  C   UNL     1       6.401   4.046  13.244  0.00  0.00    +0.000 A 
ATOM     22  C   UNL     1       5.025   4.043  12.980  0.00  0.00    +0.000 A 
ATOM     23  C   UNL     1       4.502   3.215  11.979  0.00  0.00    +0.000 A 
ATOM     24  C   UNL     1       5.350   2.395  11.232  0.00  0.00    +0.000 A 
ATOM     25  C   UNL     1       6.710   2.393  11.498  0.00  0.00    +0.000 A 
ATOM     26  F   UNL     1       7.531   1.623  10.770  0.00  0.00    +0.000 F 
ATOM     27  C   UNL     1       7.242   3.205  12.491  0.00  0.00    +0.000 A 
ENDBRANCH  20  21
ENDBRANCH  19  20
ENDBRANCH   9  19
TORSDOF 8
ENDMDL
MODEL 7
REMARK VINA RESULT:      -7.2      3.232      6.611
REMARK  Name = 
REMARK  9 active torsions:
REMARK  status: ('A' for Active; 'I' for Inactive)
REMARK    1  A    between atoms: C_1  and  N_2
REMARK    2  A    between atoms: N_2  and  C_3
REMARK    3  A    between atoms: C_3  and  C_4
REMARK    4  A    between atoms: C_4  and  O_5
REMARK    5  A    between atoms: C_4  and  C_6
REMARK    6  A    between atoms: C_6  and  N_7
REMARK    7  A    between atoms: C_15  and  O_16
REMARK    8  A    between atoms: O_16  and  C_17
REMARK    9  A    between atoms: C_17  and  C_18
REMARK                            x       y       z     vdW  Elec       q    Type
REMARK                         _______ _______ _______ _____ _____    ______ ____
ROOT
ATOM      1  N   UNL     1       2.276   7.505  18.249  0.00  0.00    +0.000 NA
ATOM      2  C   UNL     1       2.352   6.375  19.195  0.00  0.00    +0.000 C 
ATOM      3  C   UNL     1       3.774   5.961  19.617  0.00  0.00    +0.000 C 
ATOM      4  C   UNL     1       4.570   5.641  18.374  0.00  0.00    +0.000 A 
ATOM      5  C   UNL     1       4.379   6.519  17.287  0.00  0.00    +0.000 A 
ATOM      6  C   UNL     1       5.057   6.327  16.081  0.00  0.00    +0.000 A 
ATOM      7  C   UNL     1       5.960   5.284  15.962  0.00  0.00    +0.000 A 
ATOM      8  C   UNL     1       6.172   4.427  17.041  0.00  0.00    +0.000 A 
ATOM      9  C   UNL     1       5.448   4.561  18.239  0.00  0.00    +0.000 A 
ATOM     10  C   UNL     1       3.513   7.734  17.483  0.00  0.00    +0.000 C 
ENDROOT
BRANCH   1  11
ATOM     11  C   UNL     1       1.821   8.751  18.890  0.00  0.00    +0.000 C 
BRANCH  11  12
ATOM     12  C   UNL     1       1.160   9.773  17.926  0.00  0.00    +0.000 C 
BRANCH  12  13
ATOM     13  O   UNL     1       1.993  10.940  17.821  0.00  0.00    +0.000 OA
ATOM     14  H   UNL     1       2.896  10.640  17.644  0.00  0.00    +0.000 HD
ENDBRANCH  12  13
BRANCH  12  15
ATOM     15  C   UNL     1      -0.254  10.165  18.401  0.00  0.00    +0.000 C 
BRANCH  15  17
ATOM     16  C   UNL     1      -0.484  11.403  20.453  0.00  0.00    +0.000 C 
ATOM     17  N   UNL     1      -0.360  10.079  19.864  0.00  0.00    +0.000 NA
ATOM     18  H   UNL     1      -1.162   9.495  20.104  0.00  0.00    +0.000 HD
ENDBRANCH  15  17
ENDBRANCH  12  15
ENDBRANCH  11  12
ENDBRANCH   1  11
BRANCH   9  19
ATOM     19  O   UNL     1       5.538   3.662  19.281  0.00  0.00    +0.000 OA
BRANCH  19  20
ATOM     20  C   UNL     1       4.739   2.488  19.087  0.00  0.00    +0.000 C 
BRANCH  20  21
ATOM     21  C   UNL     1       3.258   2.667  19.320  0.00  0.00    +0.000 A 
ATOM     22  C   UNL     1       2.319   2.702  18.282  0.00  0.00    +0.000 A 
ATOM     23  C   UNL     1       0.950   2.731  18.573  0.00  0.00    +0.000 A 
ATOM     24  C   UNL     1       0.513   2.717  19.900  0.00  0.00    +0.000 A 
ATOM     25  C   UNL     1       1.444   2.689  20.927  0.00  0.00    +0.000 A 
ATOM     26  F   UNL     1       1.029   2.655  22.201  0.00  0.00    +0.000 F 
ATOM     27  C   UNL     1       2.805   2.665  20.652  0.00  0.00    +0.000 A 
ENDBRANCH  20  21
ENDBRANCH  19  20
ENDBRANCH   9  19
TORSDOF 8
ENDMDL
MODEL 8
REMARK VINA RESULT:      -7.1      3.313      6.325
REMARK  Name = 
REMARK  9 active torsions:
REMARK  status: ('A' for Active; 'I' for Inactive)
REMARK    1  A    between atoms: C_1  and  N_2
REMARK    2  A    between atoms: N_2  and  C_3
REMARK    3  A    between atoms: C_3  and  C_4
REMARK    4  A    between atoms: C_4  and  O_5
REMARK    5  A    between atoms: C_4  and  C_6
REMARK    6  A    between atoms: C_6  and  N_7
REMARK    7  A    between atoms: C_15  and  O_16
REMARK    8  A    between atoms: O_16  and  C_17
REMARK    9  A    between atoms: C_17  and  C_18
REMARK                            x       y       z     vdW  Elec       q    Type
REMARK                         _______ _______ _______ _____ _____    ______ ____
ROOT
ATOM      1  N   UNL     1       2.211   7.838  19.801  0.00  0.00    +0.000 NA
ATOM      2  C   UNL     1       2.697   7.365  18.490  0.00  0.00    +0.000 C 
ATOM      3  C   UNL     1       2.015   6.095  17.950  0.00  0.00    +0.000 C 
ATOM      4  C   UNL     1       2.164   4.996  18.975  0.00  0.00    +0.000 A 
ATOM      5  C   UNL     1       1.977   5.388  20.317  0.00  0.00    +0.000 A 
ATOM      6  C   UNL     1       2.091   4.463  21.358  0.00  0.00    +0.000 A 
ATOM      7  C   UNL     1       2.353   3.136  21.067  0.00  0.00    +0.000 A 
ATOM      8  C   UNL     1       2.516   2.737  19.741  0.00  0.00    +0.000 A 
ATOM      9  C   UNL     1       2.473   3.664  18.685  0.00  0.00    +0.000 A 
ATOM     10  C   UNL     1       1.541   6.800  20.604  0.00  0.00    +0.000 C 
ENDROOT
BRANCH   1  11
ATOM     11  C   UNL     1       1.366   9.039  19.693  0.00  0.00    +0.000 C 
BRANCH  11  12
ATOM     12  C   UNL     1       0.901   9.377  18.250  0.00  0.00    +0.000 C 
BRANCH  12  13
ATOM     13  O   UNL     1       1.895  10.193  17.607  0.00  0.00    +0.000 OA
ATOM     14  H   UNL     1       2.763   9.830  17.834  0.00  0.00    +0.000 HD
ENDBRANCH  12  13
BRANCH  12  15
ATOM     15  C   UNL     1      -0.463  10.097  18.250  0.00  0.00    +0.000 C 
BRANCH  15  17
ATOM     16  C   UNL     1      -2.632   9.976  17.212  0.00  0.00    +0.000 C 
ATOM     17  N   UNL     1      -1.199   9.830  17.007  0.00  0.00    +0.000 NA
ATOM     18  H   UNL     1      -0.866  10.466  16.281  0.00  0.00    +0.000 HD
ENDBRANCH  15  17
ENDBRANCH  12  15
ENDBRANCH  11  12
ENDBRANCH   1  11
BRANCH   9  19
ATOM     19  O   UNL     1       2.751   3.332  17.376  0.00  0.00    +0.000 OA
BRANCH  19  20
ATOM     20  C   UNL     1       4.140   3.064  17.142  0.00  0.00    +0.000 C 
BRANCH  20  21
ATOM     21  C   UNL     1       5.045   4.271  17.171  0.00  0.00    +0.000 A 
ATOM     22  C   UNL     1       5.051   5.247  16.168  0.00  0.00    +0.000 A 
ATOM     23  C   UNL     1       5.814   6.411  16.323  0.00  0.00    +0.000 A 
ATOM     24  C   UNL     1       6.566   6.609  17.483  0.00  0.00    +0.000 A 
ATOM     25  C   UNL     1       6.565   5.638  18.473  0.00  0.00    +0.000 A 
ATOM     26  F   UNL     1       7.269   5.833  19.598  0.00  0.00    +0.000 F 
ATOM     27  C   UNL     1       5.817   4.477  18.330  0.00  0.00    +0.000 A 
ENDBRANCH  20  21
ENDBRANCH  19  20
ENDBRANCH   9  19
TORSDOF 8
ENDMDL
MODEL 9
REMARK VINA RESULT:      -7.1      1.336      1.673
REMARK  Name = 
REMARK  9 active torsions:
REMARK  status: ('A' for Active; 'I' for Inactive)
REMARK    1  A    between atoms: C_1  and  N_2
REMARK    2  A    between atoms: N_2  and  C_3
REMARK    3  A    between atoms: C_3  and  C_4
REMARK    4  A    between atoms: C_4  and  O_5
REMARK    5  A    between atoms: C_4  and  C_6
REMARK    6  A    between atoms: C_6  and  N_7
REMARK    7  A    between atoms: C_15  and  O_16
REMARK    8  A    between atoms: O_16  and  C_17
REMARK    9  A    between atoms: C_17  and  C_18
REMARK                            x       y       z     vdW  Elec       q    Type
REMARK                         _______ _______ _______ _____ _____    ______ ____
ROOT
ATOM      1  N   UNL     1       4.596   4.275  16.766  0.00  0.00    +0.000 NA
ATOM      2  C   UNL     1       4.222   5.690  16.958  0.00  0.00    +0.000 C 
ATOM      3  C   UNL     1       4.083   6.145  18.422  0.00  0.00    +0.000 C 
ATOM      4  C   UNL     1       3.076   5.254  19.109  0.00  0.00    +0.000 A 
ATOM      5  C   UNL     1       3.166   3.881  18.797  0.00  0.00    +0.000 A 
ATOM      6  C   UNL     1       2.289   2.956  19.366  0.00  0.00    +0.000 A 
ATOM      7  C   UNL     1       1.341   3.384  20.280  0.00  0.00    +0.000 A 
ATOM      8  C   UNL     1       1.262   4.736  20.612  0.00  0.00    +0.000 A 
ATOM      9  C   UNL     1       2.090   5.693  19.998  0.00  0.00    +0.000 A 
ATOM     10  C   UNL     1       4.298   3.412  17.922  0.00  0.00    +0.000 C 
ENDROOT
BRANCH   1  11
ATOM     11  C   UNL     1       5.997   4.112  16.341  0.00  0.00    +0.000 C 
BRANCH  11  12
ATOM     12  C   UNL     1       6.734   5.439  16.016  0.00  0.00    +0.000 C 
BRANCH  12  13
ATOM     13  O   UNL     1       7.573   5.250  14.864  0.00  0.00    +0.000 OA
ATOM     14  H   UNL     1       8.490   5.381  15.144  0.00  0.00    +0.000 HD
ENDBRANCH  12  13
BRANCH  12  15
ATOM     15  C   UNL     1       7.575   5.927  17.214  0.00  0.00    +0.000 C 
BRANCH  15  17
ATOM     16  C   UNL     1       7.546   5.560  19.593  0.00  0.00    +0.000 C 
ATOM     17  N   UNL     1       7.595   4.922  18.286  0.00  0.00    +0.000 NA
ATOM     18  H   UNL     1       6.807   4.286  18.159  0.00  0.00    +0.000 HD
ENDBRANCH  15  17
ENDBRANCH  12  15
ENDBRANCH  11  12
ENDBRANCH   1  11
BRANCH   9  19
ATOM     19  O   UNL     1       1.959   7.050  20.205  0.00  0.00    +0.000 OA
BRANCH  19  20
ATOM     20  C   UNL     1       1.016   7.377  21.234  0.00  0.00    +0.000 C 
BRANCH  20  21
ATOM     21  C   UNL     1       0.553   8.813  21.253  0.00  0.00    +0.000 A 
ATOM     22  C   UNL     1       0.617   9.653  20.135  0.00  0.00    +0.000 A 
ATOM     23  C   UNL     1       0.044  10.930  20.180  0.00  0.00    +0.000 A 
ATOM     24  C   UNL     1      -0.602  11.370  21.337  0.00  0.00    +0.000 A 
ATOM     25  C   UNL     1      -0.659  10.540  22.447  0.00  0.00    +0.000 A 
ATOM     26  F   UNL     1      -1.297  10.949  23.553  0.00  0.00    +0.000 F 
ATOM     27  C   UNL     1      -0.091   9.273  22.417  0.00  0.00    +0.000 A 
ENDBRANCH  20  21
ENDBRANCH  19  20
ENDBRANCH   9  19
TORSDOF 8
ENDMDL
