MODEL 1
REMARK VINA RESULT:      -8.3      0.000      0.000
REMARK  Name = 
REMARK  3 active torsions:
REMARK  status: ('A' for Active; 'I' for Inactive)
REMARK    1  A    between atoms: C_1  and  C_2
REMARK    2  A    between atoms: C_5  and  C_6
REMARK    3  A    between atoms: C_6  and  N_7
REMARK                            x       y       z     vdW  Elec       q    Type
REMARK                         _______ _______ _______ _____ _____    ______ ____
ROOT
ATOM      1  N   UNL     1       4.903   3.764  18.184  0.00  0.00    +0.000 NA
ATOM      2  C   UNL     1       3.727   2.980  17.768  0.00  0.00    +0.000 C 
ATOM      3  C   UNL     1       2.525   3.856  17.389  0.00  0.00    +0.000 C 
ATOM      4  O   UNL     1       2.144   4.798  18.394  0.00  0.00    +0.000 OA
ATOM      5  C   UNL     1       3.196   5.509  19.073  0.00  0.00    +0.000 C 
ATOM      6  C   UNL     1       3.531   6.875  18.437  0.00  0.00    +0.000 C 
ATOM      7  C   UNL     1       2.311   7.776  18.325  0.00  0.00    +0.000 C 
ATOM      8  N   UNL     1       1.657   8.031  19.609  0.00  0.00    +0.000 N 
ATOM      9  C   UNL     1       0.787   9.123  19.593  0.00  0.00    +0.000 C 
ATOM     10  O   UNL     1       0.613   9.786  18.564  0.00  0.00    +0.000 OA
ATOM     11  N   UNL     1       0.141   9.508  20.755  0.00  0.00    +0.000 N 
ATOM     12  C   UNL     1      -0.638  10.743  20.783  0.00  0.00    +0.000 C 
ATOM     13  C   UNL     1      -0.368  11.321  22.165  0.00  0.00    +0.000 C 
ATOM     14  C   UNL     1      -0.281  10.077  23.031  0.00  0.00    +0.000 C 
ATOM     15  C   UNL     1       0.357   9.047  22.121  0.00  0.00    +0.000 C 
ATOM     16  C   UNL     1       1.428   6.814  20.393  0.00  0.00    +0.000 C 
ATOM     17  C   UNL     1       2.605   5.841  20.451  0.00  0.00    +0.000 C 
ATOM     18  C   UNL     1       4.466   4.623  19.303  0.00  0.00    +0.000 C 
ENDROOT
BRANCH   1  19
ATOM     19  C   UNL     1       5.493   4.532  17.080  0.00  0.00    +0.000 C 
BRANCH  19  24
ATOM     20  C   UNL     1       8.888   8.995  18.648  0.00  0.00    +0.000 C 
ATOM     21  C   UNL     1       8.039   7.824  18.247  0.00  0.00    +0.000 A 
ATOM     22  C   UNL     1       7.079   7.983  17.248  0.00  0.00    +0.000 A 
ATOM     23  C   UNL     1       6.258   6.918  16.887  0.00  0.00    +0.000 A 
ATOM     24  C   UNL     1       6.383   5.671  17.521  0.00  0.00    +0.000 A 
ATOM     25  C   UNL     1       7.331   5.516  18.541  0.00  0.00    +0.000 A 
ATOM     26  C   UNL     1       8.155   6.588  18.902  0.00  0.00    +0.000 A 
ENDBRANCH  19  24
ENDBRANCH   1  19
TORSDOF 2
ENDMDL
MODEL 2
REMARK VINA RESULT:      -8.2      2.687      7.865
REMARK  Name = 
REMARK  3 active torsions:
REMARK  status: ('A' for Active; 'I' for Inactive)
REMARK    1  A    between atoms: C_1  and  C_2
REMARK    2  A    between atoms: C_5  and  C_6
REMARK    3  A    between atoms: C_6  and  N_7
REMARK                            x       y       z     vdW  Elec       q    Type
REMARK                         _______ _______ _______ _____ _____    ______ ____
ROOT
ATOM      1  N   UNL     1       1.701   5.615  20.266  0.00  0.00    +0.000 NA
ATOM      2  C   UNL     1       2.304   4.477  20.982  0.00  0.00    +0.000 C 
ATOM      3  C   UNL     1       3.777   4.247  20.612  0.00  0.00    +0.000 C 
ATOM      4  O   UNL     1       4.016   4.115  19.209  0.00  0.00    +0.000 OA
ATOM      5  C   UNL     1       3.326   5.019  18.328  0.00  0.00    +0.000 C 
ATOM      6  C   UNL     1       4.138   6.284  17.977  0.00  0.00    +0.000 C 
ATOM      7  C   UNL     1       5.499   5.952  17.385  0.00  0.00    +0.000 C 
ATOM      8  N   UNL     1       5.422   5.124  16.181  0.00  0.00    +0.000 N 
ATOM      9  C   UNL     1       6.596   5.117  15.424  0.00  0.00    +0.000 C 
ATOM     10  O   UNL     1       7.588   5.765  15.778  0.00  0.00    +0.000 OA
ATOM     11  N   UNL     1       6.645   4.416  14.232  0.00  0.00    +0.000 N 
ATOM     12  C   UNL     1       7.809   4.540  13.359  0.00  0.00    +0.000 C 
ATOM     13  C   UNL     1       7.222   4.528  11.955  0.00  0.00    +0.000 C 
ATOM     14  C   UNL     1       6.068   3.550  12.088  0.00  0.00    +0.000 C 
ATOM     15  C   UNL     1       5.558   3.782  13.495  0.00  0.00    +0.000 C 
ATOM     16  C   UNL     1       4.540   3.963  16.332  0.00  0.00    +0.000 C 
ATOM     17  C   UNL     1       3.198   4.244  17.008  0.00  0.00    +0.000 C 
ATOM     18  C   UNL     1       1.878   5.351  18.823  0.00  0.00    +0.000 C 
ENDROOT
BRANCH   1  19
ATOM     19  C   UNL     1       2.265   6.907  20.677  0.00  0.00    +0.000 C 
BRANCH  19  24
ATOM     20  C   UNL     1      -1.213  11.446  19.582  0.00  0.00    +0.000 C 
ATOM     21  C   UNL     1      -0.319  10.267  19.831  0.00  0.00    +0.000 A 
ATOM     22  C   UNL     1      -0.420   9.574  21.039  0.00  0.00    +0.000 A 
ATOM     23  C   UNL     1       0.425   8.500  21.303  0.00  0.00    +0.000 A 
ATOM     24  C   UNL     1       1.388   8.097  20.363  0.00  0.00    +0.000 A 
ATOM     25  C   UNL     1       1.506   8.805  19.161  0.00  0.00    +0.000 A 
ATOM     26  C   UNL     1       0.656   9.885  18.897  0.00  0.00    +0.000 A 
ENDBRANCH  19  24
ENDBRANCH   1  19
TORSDOF 2
ENDMDL
MODEL 3
REMARK VINA RESULT:      -7.9      2.671      7.709
REMARK  Name = 
REMARK  3 active torsions:
REMARK  status: ('A' for Active; 'I' for Inactive)
REMARK    1  A    between atoms: C_1  and  C_2
REMARK    2  A    between atoms: C_5  and  C_6
REMARK    3  A    between atoms: C_6  and  N_7
REMARK                            x       y       z     vdW  Elec       q    Type
REMARK                         _______ _______ _______ _____ _____    ______ ____
ROOT
ATOM      1  N   UNL     1       1.562   5.073  20.401  0.00  0.00    +0.000 NA
ATOM      2  C   UNL     1       2.102   3.842  21.004  0.00  0.00    +0.000 C 
ATOM      3  C   UNL     1       3.573   3.591  20.641  0.00  0.00    +0.000 C 
ATOM      4  O   UNL     1       3.842   3.598  19.238  0.00  0.00    +0.000 OA
ATOM      5  C   UNL     1       3.210   4.619  18.444  0.00  0.00    +0.000 C 
ATOM      6  C   UNL     1       4.080   5.878  18.247  0.00  0.00    +0.000 C 
ATOM      7  C   UNL     1       5.441   5.554  17.650  0.00  0.00    +0.000 C 
ATOM      8  N   UNL     1       5.361   4.862  16.363  0.00  0.00    +0.000 N 
ATOM      9  C   UNL     1       6.552   4.886  15.634  0.00  0.00    +0.000 C 
ATOM     10  O   UNL     1       7.559   5.450  16.075  0.00  0.00    +0.000 OA
ATOM     11  N   UNL     1       6.602   4.313  14.376  0.00  0.00    +0.000 N 
ATOM     12  C   UNL     1       7.791   4.479  13.544  0.00  0.00    +0.000 C 
ATOM     13  C   UNL     1       7.240   4.640  12.135  0.00  0.00    +0.000 C 
ATOM     14  C   UNL     1       6.045   3.704  12.139  0.00  0.00    +0.000 C 
ATOM     15  C   UNL     1       5.510   3.806  13.553  0.00  0.00    +0.000 C 
ATOM     16  C   UNL     1       4.430   3.730  16.372  0.00  0.00    +0.000 C 
ATOM     17  C   UNL     1       3.084   3.993  17.047  0.00  0.00    +0.000 C 
ATOM     18  C   UNL     1       1.764   4.956  18.943  0.00  0.00    +0.000 C 
ENDROOT
BRANCH   1  19
ATOM     19  C   UNL     1       2.168   6.290  20.959  0.00  0.00    +0.000 C 
BRANCH  19  24
ATOM     20  C   UNL     1      -0.538  11.242  19.523  0.00  0.00    +0.000 C 
ATOM     21  C   UNL     1       0.157   9.974  19.926  0.00  0.00    +0.000 A 
ATOM     22  C   UNL     1       1.211   9.493  19.148  0.00  0.00    +0.000 A 
ATOM     23  C   UNL     1       1.844   8.300  19.485  0.00  0.00    +0.000 A 
ATOM     24  C   UNL     1       1.435   7.565  20.610  0.00  0.00    +0.000 A 
ATOM     25  C   UNL     1       0.362   8.034  21.379  0.00  0.00    +0.000 A 
ATOM     26  C   UNL     1      -0.273   9.234  21.038  0.00  0.00    +0.000 A 
ENDBRANCH  19  24
ENDBRANCH   1  19
TORSDOF 2
ENDMDL
MODEL 4
REMARK VINA RESULT:      -7.9      3.150      9.688
REMARK  Name = 
REMARK  3 active torsions:
REMARK  status: ('A' for Active; 'I' for Inactive)
REMARK    1  A    between atoms: C_1  and  C_2
REMARK    2  A    between atoms: C_5  and  C_6
REMARK    3  A    between atoms: C_6  and  N_7
REMARK                            x       y       z     vdW  Elec       q    Type
REMARK                         _______ _______ _______ _____ _____    ______ ____
ROOT
ATOM      1  N   UNL     1      -1.645  13.029  22.151  0.00  0.00    +0.000 NA
ATOM      2  C   UNL     1      -0.395  13.735  22.483  0.00  0.00    +0.000 C 
ATOM      3  C   UNL     1       0.748  13.426  21.505  0.00  0.00    +0.000 C 
ATOM      4  O   UNL     1       1.013  12.032  21.333  0.00  0.00    +0.000 OA
ATOM      5  C   UNL     1      -0.117  11.149  21.209  0.00  0.00    +0.000 C 
ATOM      6  C   UNL     1      -0.536  10.878  19.749  0.00  0.00    +0.000 C 
ATOM      7  C   UNL     1       0.612  10.338  18.909  0.00  0.00    +0.000 C 
ATOM      8  N   UNL     1       1.193   9.106  19.443  0.00  0.00    +0.000 N 
ATOM      9  C   UNL     1       1.974   8.404  18.521  0.00  0.00    +0.000 C 
ATOM     10  O   UNL     1       2.134   8.823  17.370  0.00  0.00    +0.000 OA
ATOM     11  N   UNL     1       2.542   7.194  18.878  0.00  0.00    +0.000 N 
ATOM     12  C   UNL     1       3.218   6.380  17.872  0.00  0.00    +0.000 C 
ATOM     13  C   UNL     1       2.851   4.950  18.243  0.00  0.00    +0.000 C 
ATOM     14  C   UNL     1       2.829   4.998  19.760  0.00  0.00    +0.000 C 
ATOM     15  C   UNL     1       2.311   6.387  20.071  0.00  0.00    +0.000 C 
ATOM     16  C   UNL     1       1.489   9.179  20.877  0.00  0.00    +0.000 C 
ATOM     17  C   UNL     1       0.392   9.801  21.741  0.00  0.00    +0.000 C 
ATOM     18  C   UNL     1      -1.321  11.588  22.110  0.00  0.00    +0.000 C 
ENDROOT
BRANCH   1  19
ATOM     19  C   UNL     1      -2.251  13.507  20.901  0.00  0.00    +0.000 C 
BRANCH  19  24
ATOM     20  C   UNL     1      -7.489  11.294  19.646  0.00  0.00    +0.000 C 
ATOM     21  C   UNL     1      -6.154  11.890  19.986  0.00  0.00    +0.000 A 
ATOM     22  C   UNL     1      -5.123  11.841  19.047  0.00  0.00    +0.000 A 
ATOM     23  C   UNL     1      -3.867  12.356  19.358  0.00  0.00    +0.000 A 
ATOM     24  C   UNL     1      -3.619  12.932  20.615  0.00  0.00    +0.000 A 
ATOM     25  C   UNL     1      -4.647  12.961  21.566  0.00  0.00    +0.000 A 
ATOM     26  C   UNL     1      -5.908  12.442  21.253  0.00  0.00    +0.000 A 
ENDBRANCH  19  24
ENDBRANCH   1  19
TORSDOF 2
ENDMDL
MODEL 5
REMARK VINA RESULT:      -7.9      3.419     10.107
REMARK  Name = 
REMARK  3 active torsions:
REMARK  status: ('A' for Active; 'I' for Inactive)
REMARK    1  A    between atoms: C_1  and  C_2
REMARK    2  A    between atoms: C_5  and  C_6
REMARK    3  A    between atoms: C_6  and  N_7
REMARK                            x       y       z     vdW  Elec       q    Type
REMARK                         _______ _______ _______ _____ _____    ______ ____
ROOT
ATOM      1  N   UNL     1      -2.082  13.422  22.684  0.00  0.00    +0.000 NA
ATOM      2  C   UNL     1      -0.849  14.163  22.999  0.00  0.00    +0.000 C 
ATOM      3  C   UNL     1       0.267  13.939  21.969  0.00  0.00    +0.000 C 
ATOM      4  O   UNL     1       0.580  12.564  21.732  0.00  0.00    +0.000 OA
ATOM      5  C   UNL     1      -0.520  11.642  21.614  0.00  0.00    +0.000 C 
ATOM      6  C   UNL     1      -0.982  11.411  20.159  0.00  0.00    +0.000 C 
ATOM      7  C   UNL     1       0.154  10.951  19.258  0.00  0.00    +0.000 C 
ATOM      8  N   UNL     1       0.802   9.723  19.720  0.00  0.00    +0.000 N 
ATOM      9  C   UNL     1       1.574   9.089  18.744  0.00  0.00    +0.000 C 
ATOM     10  O   UNL     1       1.675   9.559  17.605  0.00  0.00    +0.000 OA
ATOM     11  N   UNL     1       2.200   7.890  19.031  0.00  0.00    +0.000 N 
ATOM     12  C   UNL     1       2.870   7.143  17.970  0.00  0.00    +0.000 C 
ATOM     13  C   UNL     1       2.572   5.686  18.296  0.00  0.00    +0.000 C 
ATOM     14  C   UNL     1       2.605   5.674  19.813  0.00  0.00    +0.000 C 
ATOM     15  C   UNL     1       2.046   7.029  20.198  0.00  0.00    +0.000 C 
ATOM     16  C   UNL     1       1.147   9.752  21.144  0.00  0.00    +0.000 C 
ATOM     17  C   UNL     1       0.060  10.296  22.072  0.00  0.00    +0.000 C 
ATOM     18  C   UNL     1      -1.705  11.998  22.574  0.00  0.00    +0.000 C 
ENDROOT
BRANCH   1  19
ATOM     19  C   UNL     1      -2.753  13.923  21.477  0.00  0.00    +0.000 C 
BRANCH  19  24
ATOM     20  C   UNL     1      -7.870  11.336  20.466  0.00  0.00    +0.000 C 
ATOM     21  C   UNL     1      -6.536  11.977  20.710  0.00  0.00    +0.000 A 
ATOM     22  C   UNL     1      -6.290  12.604  21.933  0.00  0.00    +0.000 A 
ATOM     23  C   UNL     1      -5.070  13.236  22.164  0.00  0.00    +0.000 A 
ATOM     24  C   UNL     1      -4.073  13.252  21.175  0.00  0.00    +0.000 A 
ATOM     25  C   UNL     1      -4.327  12.644  19.939  0.00  0.00    +0.000 A 
ATOM     26  C   UNL     1      -5.553  12.009  19.709  0.00  0.00    +0.000 A 
ENDBRANCH  19  24
ENDBRANCH   1  19
TORSDOF 2
ENDMDL
MODEL 6
REMARK VINA RESULT:      -7.9      2.342      9.092
REMARK  Name = 
REMARK  3 active torsions:
REMARK  status: ('A' for Active; 'I' for Inactive)
REMARK    1  A    between atoms: C_1  and  C_2
REMARK    2  A    between atoms: C_5  and  C_6
REMARK    3  A    between atoms: C_6  and  N_7
REMARK                            x       y       z     vdW  Elec       q    Type
REMARK                         _______ _______ _______ _____ _____    ______ ____
ROOT
ATOM      1  N   UNL     1      -0.162  12.208  20.275  0.00  0.00    +0.000 NA
ATOM      2  C   UNL     1      -1.268  11.914  19.347  0.00  0.00    +0.000 C 
ATOM      3  C   UNL     1      -1.404  10.417  19.030  0.00  0.00    +0.000 C 
ATOM      4  O   UNL     1      -0.202   9.807  18.555  0.00  0.00    +0.000 OA
ATOM      5  C   UNL     1       1.029  10.156  19.215  0.00  0.00    +0.000 C 
ATOM      6  C   UNL     1       1.419   9.188  20.352  0.00  0.00    +0.000 C 
ATOM      7  C   UNL     1       1.498   7.744  19.881  0.00  0.00    +0.000 C 
ATOM      8  N   UNL     1       2.442   7.543  18.781  0.00  0.00    +0.000 N 
ATOM      9  C   UNL     1       2.805   6.208  18.585  0.00  0.00    +0.000 C 
ATOM     10  O   UNL     1       2.344   5.310  19.298  0.00  0.00    +0.000 OA
ATOM     11  N   UNL     1       3.732   5.881  17.611  0.00  0.00    +0.000 N 
ATOM     12  C   UNL     1       4.236   4.514  17.512  0.00  0.00    +0.000 C 
ATOM     13  C   UNL     1       5.705   4.686  17.155  0.00  0.00    +0.000 C 
ATOM     14  C   UNL     1       5.684   5.899  16.244  0.00  0.00    +0.000 C 
ATOM     15  C   UNL     1       4.579   6.763  16.817  0.00  0.00    +0.000 C 
ATOM     16  C   UNL     1       2.282   8.515  17.696  0.00  0.00    +0.000 C 
ATOM     17  C   UNL     1       2.107   9.968  18.138  0.00  0.00    +0.000 C 
ATOM     18  C   UNL     1       1.064  11.656  19.662  0.00  0.00    +0.000 C 
ENDROOT
BRANCH   1  19
ATOM     19  C   UNL     1      -0.401  11.687  21.627  0.00  0.00    +0.000 C 
BRANCH  19  24
ATOM     20  C   UNL     1      -3.377  15.318  25.071  0.00  0.00    +0.000 C 
ATOM     21  C   UNL     1      -2.619  14.356  24.203  0.00  0.00    +0.000 A 
ATOM     22  C   UNL     1      -1.389  14.739  23.668  0.00  0.00    +0.000 A 
ATOM     23  C   UNL     1      -0.688  13.874  22.831  0.00  0.00    +0.000 A 
ATOM     24  C   UNL     1      -1.206  12.608  22.515  0.00  0.00    +0.000 A 
ATOM     25  C   UNL     1      -2.452  12.231  23.032  0.00  0.00    +0.000 A 
ATOM     26  C   UNL     1      -3.155  13.102  23.873  0.00  0.00    +0.000 A 
ENDBRANCH  19  24
ENDBRANCH   1  19
TORSDOF 2
ENDMDL
MODEL 7
REMARK VINA RESULT:      -7.6      2.683      8.133
REMARK  Name = 
REMARK  3 active torsions:
REMARK  status: ('A' for Active; 'I' for Inactive)
REMARK    1  A    between atoms: C_1  and  C_2
REMARK    2  A    between atoms: C_5  and  C_6
REMARK    3  A    between atoms: C_6  and  N_7
REMARK                            x       y       z     vdW  Elec       q    Type
REMARK                         _______ _______ _______ _____ _____    ______ ____
ROOT
ATOM      1  N   UNL     1       1.622   6.201  20.003  0.00  0.00    +0.000 NA
ATOM      2  C   UNL     1       2.196   5.119  20.822  0.00  0.00    +0.000 C 
ATOM      3  C   UNL     1       3.662   4.818  20.477  0.00  0.00    +0.000 C 
ATOM      4  O   UNL     1       3.896   4.549  19.093  0.00  0.00    +0.000 OA
ATOM      5  C   UNL     1       3.228   5.385  18.130  0.00  0.00    +0.000 C 
ATOM      6  C   UNL     1       4.072   6.591  17.664  0.00  0.00    +0.000 C 
ATOM      7  C   UNL     1       5.423   6.169  17.106  0.00  0.00    +0.000 C 
ATOM      8  N   UNL     1       5.323   5.235  15.985  0.00  0.00    +0.000 N 
ATOM      9  C   UNL     1       6.495   5.127  15.232  0.00  0.00    +0.000 C 
ATOM     10  O   UNL     1       7.503   5.779  15.525  0.00  0.00    +0.000 OA
ATOM     11  N   UNL     1       6.523   4.317  14.111  0.00  0.00    +0.000 N 
ATOM     12  C   UNL     1       7.689   4.328  13.231  0.00  0.00    +0.000 C 
ATOM     13  C   UNL     1       7.100   4.200  11.834  0.00  0.00    +0.000 C 
ATOM     14  C   UNL     1       5.921   3.270  12.056  0.00  0.00    +0.000 C 
ATOM     15  C   UNL     1       5.420   3.645  13.435  0.00  0.00    +0.000 C 
ATOM     16  C   UNL     1       4.411   4.117  16.242  0.00  0.00    +0.000 C 
ATOM     17  C   UNL     1       3.078   4.494  16.888  0.00  0.00    +0.000 C 
ATOM     18  C   UNL     1       1.790   5.799  18.591  0.00  0.00    +0.000 C 
ENDROOT
BRANCH   1  19
ATOM     19  C   UNL     1       2.220   7.510  20.292  0.00  0.00    +0.000 C 
BRANCH  19  24
ATOM     20  C   UNL     1      -1.450  11.275  22.794  0.00  0.00    +0.000 C 
ATOM     21  C   UNL     1      -0.527  10.299  22.124  0.00  0.00    +0.000 A 
ATOM     22  C   UNL     1       0.250   9.443  22.907  0.00  0.00    +0.000 A 
ATOM     23  C   UNL     1       1.139   8.556  22.304  0.00  0.00    +0.000 A 
ATOM     24  C   UNL     1       1.266   8.508  20.907  0.00  0.00    +0.000 A 
ATOM     25  C   UNL     1       0.504   9.382  20.121  0.00  0.00    +0.000 A 
ATOM     26  C   UNL     1      -0.388  10.273  20.728  0.00  0.00    +0.000 A 
ENDBRANCH  19  24
ENDBRANCH   1  19
TORSDOF 2
ENDMDL
MODEL 8
REMARK VINA RESULT:      -7.6      2.945      9.152
REMARK  Name = 
REMARK  3 active torsions:
REMARK  status: ('A' for Active; 'I' for Inactive)
REMARK    1  A    between atoms: C_1  and  C_2
REMARK    2  A    between atoms: C_5  and  C_6
REMARK    3  A    between atoms: C_6  and  N_7
REMARK                            x       y       z     vdW  Elec       q    Type
REMARK                         _______ _______ _______ _____ _____    ______ ____
ROOT
ATOM      1  N   UNL     1      -1.158  12.222  21.258  0.00  0.00    +0.000 NA
ATOM      2  C   UNL     1       0.058  12.873  21.778  0.00  0.00    +0.000 C 
ATOM      3  C   UNL     1       1.322  12.502  20.987  0.00  0.00    +0.000 C 
ATOM      4  O   UNL     1       1.544  11.096  20.861  0.00  0.00    +0.000 OA
ATOM      5  C   UNL     1       0.406  10.265  20.567  0.00  0.00    +0.000 C 
ATOM      6  C   UNL     1       0.204  10.000  19.060  0.00  0.00    +0.000 C 
ATOM      7  C   UNL     1       1.441   9.400  18.408  0.00  0.00    +0.000 C 
ATOM      8  N   UNL     1       1.875   8.147  19.027  0.00  0.00    +0.000 N 
ATOM      9  C   UNL     1       2.754   7.401  18.238  0.00  0.00    +0.000 C 
ATOM     10  O   UNL     1       3.108   7.803  17.124  0.00  0.00    +0.000 OA
ATOM     11  N   UNL     1       3.202   6.170  18.680  0.00  0.00    +0.000 N 
ATOM     12  C   UNL     1       3.986   5.316  17.792  0.00  0.00    +0.000 C 
ATOM     13  C   UNL     1       3.499   3.909  18.105  0.00  0.00    +0.000 C 
ATOM     14  C   UNL     1       3.247   3.971  19.601  0.00  0.00    +0.000 C 
ATOM     15  C   UNL     1       2.754   5.386  19.825  0.00  0.00    +0.000 C 
ATOM     16  C   UNL     1       1.950   8.220  20.489  0.00  0.00    +0.000 C 
ATOM     17  C   UNL     1       0.763   8.900  21.173  0.00  0.00    +0.000 C 
ATOM     18  C   UNL     1      -0.899  10.768  21.271  0.00  0.00    +0.000 C 
ENDROOT
BRANCH   1  19
ATOM     19  C   UNL     1      -1.542  12.716  19.929  0.00  0.00    +0.000 C 
BRANCH  19  24
ATOM     20  C   UNL     1      -6.973  11.258  18.418  0.00  0.00    +0.000 C 
ATOM     21  C   UNL     1      -5.563  11.602  18.800  0.00  0.00    +0.000 A 
ATOM     22  C   UNL     1      -5.334  12.438  19.893  0.00  0.00    +0.000 A 
ATOM     23  C   UNL     1      -4.034  12.798  20.241  0.00  0.00    +0.000 A 
ATOM     24  C   UNL     1      -2.938  12.326  19.501  0.00  0.00    +0.000 A 
ATOM     25  C   UNL     1      -3.168  11.505  18.389  0.00  0.00    +0.000 A 
ATOM     26  C   UNL     1      -4.474  11.145  18.041  0.00  0.00    +0.000 A 
ENDBRANCH  19  24
ENDBRANCH   1  19
TORSDOF 2
ENDMDL
MODEL 9
REMARK VINA RESULT:      -7.5      3.233      6.122
REMARK  Name = 
REMARK  3 active torsions:
REMARK  status: ('A' for Active; 'I' for Inactive)
REMARK    1  A    between atoms: C_1  and  C_2
REMARK    2  A    between atoms: C_5  and  C_6
REMARK    3  A    between atoms: C_6  and  N_7
REMARK                            x       y       z     vdW  Elec       q    Type
REMARK                         _______ _______ _______ _____ _____    ______ ____
ROOT
ATOM      1  N   UNL     1       1.459   9.499  17.852  0.00  0.00    +0.000 NA
ATOM      2  C   UNL     1       2.156  10.787  17.690  0.00  0.00    +0.000 C 
ATOM      3  C   UNL     1       1.966  11.728  18.889  0.00  0.00    +0.000 C 
ATOM      4  O   UNL     1       0.601  11.960  19.243  0.00  0.00    +0.000 OA
ATOM      5  C   UNL     1      -0.290  10.828  19.241  0.00  0.00    +0.000 C 
ATOM      6  C   UNL     1      -0.429  10.145  20.617  0.00  0.00    +0.000 C 
ATOM      7  C   UNL     1      -0.861  11.117  21.704  0.00  0.00    +0.000 C 
ATOM      8  N   UNL     1      -2.126  11.791  21.412  0.00  0.00    +0.000 N 
ATOM      9  C   UNL     1      -2.721  12.387  22.526  0.00  0.00    +0.000 C 
ATOM     10  O   UNL     1      -2.189  12.329  23.641  0.00  0.00    +0.000 OA
ATOM     11  N   UNL     1      -3.947  13.014  22.402  0.00  0.00    +0.000 N 
ATOM     12  C   UNL     1      -4.647  13.493  23.591  0.00  0.00    +0.000 C 
ATOM     13  C   UNL     1      -6.113  13.205  23.300  0.00  0.00    +0.000 C 
ATOM     14  C   UNL     1      -6.211  13.467  21.808  0.00  0.00    +0.000 C 
ATOM     15  C   UNL     1      -4.869  13.013  21.272  0.00  0.00    +0.000 C 
ATOM     16  C   UNL     1      -2.186  12.348  20.057  0.00  0.00    +0.000 C 
ATOM     17  C   UNL     1      -1.672  11.431  18.948  0.00  0.00    +0.000 C 
ATOM     18  C   UNL     1       0.036   9.813  18.094  0.00  0.00    +0.000 C 
ENDROOT
BRANCH   1  19
ATOM     19  C   UNL     1       2.042   8.669  18.915  0.00  0.00    +0.000 C 
BRANCH  19  24
ATOM     20  C   UNL     1       4.479   3.769  16.927  0.00  0.00    +0.000 C 
ATOM     21  C   UNL     1       3.820   5.017  17.436  0.00  0.00    +0.000 A 
ATOM     22  C   UNL     1       4.330   6.262  17.063  0.00  0.00    +0.000 A 
ATOM     23  C   UNL     1       3.754   7.431  17.555  0.00  0.00    +0.000 A 
ATOM     24  C   UNL     1       2.656   7.376  18.428  0.00  0.00    +0.000 A 
ATOM     25  C   UNL     1       2.158   6.128  18.821  0.00  0.00    +0.000 A 
ATOM     26  C   UNL     1       2.738   4.954  18.326  0.00  0.00    +0.000 A 
ENDBRANCH  19  24
ENDBRANCH   1  19
TORSDOF 2
ENDMDL
