MODEL 1
REMARK VINA RESULT:      -9.0      0.000      0.000
REMARK  Name = 
REMARK  5 active torsions:
REMARK  status: ('A' for Active; 'I' for Inactive)
REMARK    1  A    between atoms: C_1  and  C_2
REMARK    2  A    between atoms: C_2  and  C_4
REMARK    3  A    between atoms: C_7  and  N_8
REMARK    4  A    between atoms: N_11  and  S_12
REMARK    5  A    between atoms: S_12  and  C_15
REMARK                            x       y       z     vdW  Elec       q    Type
REMARK                         _______ _______ _______ _____ _____    ______ ____
ROOT
ATOM      1  S   UNL     1       5.867   5.475  16.380  0.00  0.00    +0.000 S 
ATOM      2  O   UNL     1       6.000   6.802  15.819  0.00  0.00    +0.000 OA
ATOM      3  O   UNL     1       6.223   4.332  15.559  0.00  0.00    +0.000 OA
ENDROOT
BRANCH   1   4
ATOM      4  C   UNL     1       4.181   5.248  16.916  0.00  0.00    +0.000 C 
ATOM      5  C   UNL     1       3.682   3.799  16.987  0.00  0.00    +0.000 C 
ATOM      6  C   UNL     1       4.306   2.932  18.090  0.00  0.00    +0.000 C 
ATOM      7  C   UNL     1       3.526   1.639  18.374  0.00  0.00    +0.000 C 
ATOM      8  C   UNL     1       2.181   1.848  19.083  0.00  0.00    +0.000 C 
ATOM      9  C   UNL     1       2.325   2.291  20.544  0.00  0.00    +0.000 C 
ATOM     10  C   UNL     1       1.144   3.133  21.050  0.00  0.00    +0.000 C 
ATOM     11  C   UNL     1       1.006   4.513  20.389  0.00  0.00    +0.000 C 
ATOM     12  C   UNL     1       2.159   5.466  20.720  0.00  0.00    +0.000 C 
ATOM     13  C   UNL     1       2.152   6.750  19.879  0.00  0.00    +0.000 C 
ATOM     14  C   UNL     1       2.526   6.542  18.409  0.00  0.00    +0.000 C 
ATOM     15  C   UNL     1       3.935   5.992  18.207  0.00  0.00    +0.000 C 
ATOM     16  O   UNL     1       4.812   6.109  19.063  0.00  0.00    +0.000 OA
ENDBRANCH   1   4
BRANCH   1  20
ATOM     17  N   UNL     1       7.559   7.636  17.689  0.00  0.00    +0.000 N 
ATOM     18  C   UNL     1       7.578   6.415  18.311  0.00  0.00    +0.000 C 
ATOM     19  O   UNL     1       8.181   6.137  19.336  0.00  0.00    +0.000 OA
ATOM     20  N   UNL     1       6.800   5.405  17.732  0.00  0.00    +0.000 N 
ATOM     21  H   UNL     1       7.025   7.675  16.826  0.00  0.00    +0.000 HD
ATOM     22  H   UNL     1       6.657   4.588  18.331  0.00  0.00    +0.000 HD
BRANCH  17  26
ATOM     23  C   UNL     1       9.256  11.344  18.791  0.00  0.00    +0.000 A 
ATOM     24  C   UNL     1       9.546  10.203  19.549  0.00  0.00    +0.000 A 
ATOM     25  C   UNL     1       8.989   8.965  19.207  0.00  0.00    +0.000 A 
ATOM     26  C   UNL     1       8.149   8.843  18.102  0.00  0.00    +0.000 A 
ATOM     27  C   UNL     1       7.856   9.987  17.347  0.00  0.00    +0.000 A 
ATOM     28  C   UNL     1       8.397  11.229  17.693  0.00  0.00    +0.000 A 
BRANCH  23  30
ATOM     29  C   UNL     1      11.297  12.770  19.470  0.00  0.00    +0.000 C 
ATOM     30  C   UNL     1       9.835  12.680  19.116  0.00  0.00    +0.000 C 
ATOM     31  O   UNL     1       9.126  13.683  19.079  0.00  0.00    +0.000 OA
ENDBRANCH  23  30
ENDBRANCH  17  26
ENDBRANCH   1  20
TORSDOF 4
ENDMDL
MODEL 2
REMARK VINA RESULT:      -8.7      0.565      1.094
REMARK  Name = 
REMARK  5 active torsions:
REMARK  status: ('A' for Active; 'I' for Inactive)
REMARK    1  A    between atoms: C_1  and  C_2
REMARK    2  A    between atoms: C_2  and  C_4
REMARK    3  A    between atoms: C_7  and  N_8
REMARK    4  A    between atoms: N_11  and  S_12
REMARK    5  A    between atoms: S_12  and  C_15
REMARK                            x       y       z     vdW  Elec       q    Type
REMARK                         _______ _______ _______ _____ _____    ______ ____
ROOT
ATOM      1  S   UNL     1       5.685   5.627  16.230  0.00  0.00    +0.000 S 
ATOM      2  O   UNL     1       5.761   6.978  15.719  0.00  0.00    +0.000 OA
ATOM      3  O   UNL     1       6.015   4.526  15.345  0.00  0.00    +0.000 OA
ENDROOT
BRANCH   1   4
ATOM      4  C   UNL     1       4.037   5.342  16.850  0.00  0.00    +0.000 C 
ATOM      5  C   UNL     1       3.589   3.877  16.937  0.00  0.00    +0.000 C 
ATOM      6  C   UNL     1       4.297   3.025  18.001  0.00  0.00    +0.000 C 
ATOM      7  C   UNL     1       3.574   1.706  18.316  0.00  0.00    +0.000 C 
ATOM      8  C   UNL     1       2.261   1.867  19.093  0.00  0.00    +0.000 C 
ATOM      9  C   UNL     1       2.464   2.308  20.549  0.00  0.00    +0.000 C 
ATOM     10  C   UNL     1       1.284   3.108  21.119  0.00  0.00    +0.000 C 
ATOM     11  C   UNL     1       1.068   4.485  20.475  0.00  0.00    +0.000 C 
ATOM     12  C   UNL     1       2.205   5.474  20.753  0.00  0.00    +0.000 C 
ATOM     13  C   UNL     1       2.113   6.762  19.921  0.00  0.00    +0.000 C 
ATOM     14  C   UNL     1       2.418   6.574  18.434  0.00  0.00    +0.000 C 
ATOM     15  C   UNL     1       3.832   6.071  18.156  0.00  0.00    +0.000 C 
ATOM     16  O   UNL     1       4.748   6.212  18.968  0.00  0.00    +0.000 OA
ENDBRANCH   1   4
BRANCH   1  20
ATOM     17  N   UNL     1       7.435   7.759  17.510  0.00  0.00    +0.000 N 
ATOM     18  C   UNL     1       7.497   6.519  18.091  0.00  0.00    +0.000 C 
ATOM     19  O   UNL     1       8.160   6.215  19.070  0.00  0.00    +0.000 OA
ATOM     20  N   UNL     1       6.694   5.522  17.525  0.00  0.00    +0.000 N 
ATOM     21  H   UNL     1       6.853   7.821  16.680  0.00  0.00    +0.000 HD
ATOM     22  H   UNL     1       6.591   4.685  18.105  0.00  0.00    +0.000 HD
BRANCH  17  26
ATOM     23  C   UNL     1       9.325  11.271  18.900  0.00  0.00    +0.000 A 
ATOM     24  C   UNL     1       8.484  11.340  17.783  0.00  0.00    +0.000 A 
ATOM     25  C   UNL     1       7.853  10.187  17.300  0.00  0.00    +0.000 A 
ATOM     26  C   UNL     1       8.039   8.957  17.927  0.00  0.00    +0.000 A 
ATOM     27  C   UNL     1       8.884   8.890  19.043  0.00  0.00    +0.000 A 
ATOM     28  C   UNL     1       9.529  10.035  19.521  0.00  0.00    +0.000 A 
BRANCH  23  30
ATOM     29  C   UNL     1       9.643  13.833  18.907  0.00  0.00    +0.000 C 
ATOM     30  C   UNL     1      10.010  12.477  19.452  0.00  0.00    +0.000 C 
ATOM     31  O   UNL     1      10.845  12.354  20.345  0.00  0.00    +0.000 OA
ENDBRANCH  23  30
ENDBRANCH  17  26
ENDBRANCH   1  20
TORSDOF 4
ENDMDL
MODEL 3
REMARK VINA RESULT:      -8.6      6.521      9.850
REMARK  Name = 
REMARK  5 active torsions:
REMARK  status: ('A' for Active; 'I' for Inactive)
REMARK    1  A    between atoms: C_1  and  C_2
REMARK    2  A    between atoms: C_2  and  C_4
REMARK    3  A    between atoms: C_7  and  N_8
REMARK    4  A    between atoms: N_11  and  S_12
REMARK    5  A    between atoms: S_12  and  C_15
REMARK                            x       y       z     vdW  Elec       q    Type
REMARK                         _______ _______ _______ _____ _____    ______ ____
ROOT
ATOM      1  S   UNL     1       0.499  11.864  19.709  0.00  0.00    +0.000 S 
ATOM      2  O   UNL     1       1.197  11.473  20.914  0.00  0.00    +0.000 OA
ATOM      3  O   UNL     1       0.344  13.278  19.419  0.00  0.00    +0.000 OA
ENDROOT
BRANCH   1   4
ATOM      4  C   UNL     1      -1.131  11.139  19.733  0.00  0.00    +0.000 C 
ATOM      5  C   UNL     1      -2.104  11.692  20.782  0.00  0.00    +0.000 C 
ATOM      6  C   UNL     1      -2.586  13.132  20.552  0.00  0.00    +0.000 C 
ATOM      7  C   UNL     1      -3.823  13.509  21.382  0.00  0.00    +0.000 C 
ATOM      8  C   UNL     1      -5.125  12.836  20.929  0.00  0.00    +0.000 C 
ATOM      9  C   UNL     1      -5.648  13.360  19.586  0.00  0.00    +0.000 C 
ATOM     10  C   UNL     1      -6.471  12.328  18.802  0.00  0.00    +0.000 C 
ATOM     11  C   UNL     1      -5.672  11.117  18.296  0.00  0.00    +0.000 C 
ATOM     12  C   UNL     1      -4.629  11.475  17.232  0.00  0.00    +0.000 C 
ATOM     13  C   UNL     1      -3.672  10.321  16.900  0.00  0.00    +0.000 C 
ATOM     14  C   UNL     1      -2.670   9.995  18.010  0.00  0.00    +0.000 C 
ATOM     15  C   UNL     1      -1.732  11.150  18.347  0.00  0.00    +0.000 C 
ATOM     16  O   UNL     1      -1.507  12.064  17.553  0.00  0.00    +0.000 OA
ENDBRANCH   1   4
BRANCH   1  20
ATOM     17  N   UNL     1       1.601   9.052  19.362  0.00  0.00    +0.000 N 
ATOM     18  C   UNL     1       1.794   9.896  18.299  0.00  0.00    +0.000 C 
ATOM     19  O   UNL     1       2.334   9.612  17.242  0.00  0.00    +0.000 OA
ATOM     20  N   UNL     1       1.288  11.195  18.431  0.00  0.00    +0.000 N 
ATOM     21  H   UNL     1       1.158   9.471  20.174  0.00  0.00    +0.000 HD
ATOM     22  H   UNL     1       1.247  11.721  17.556  0.00  0.00    +0.000 HD
BRANCH  17  26
ATOM     23  C   UNL     1       2.433   4.937  19.831  0.00  0.00    +0.000 A 
ATOM     24  C   UNL     1       2.833   5.590  18.660  0.00  0.00    +0.000 A 
ATOM     25  C   UNL     1       2.562   6.952  18.479  0.00  0.00    +0.000 A 
ATOM     26  C   UNL     1       1.901   7.683  19.464  0.00  0.00    +0.000 A 
ATOM     27  C   UNL     1       1.498   7.027  20.635  0.00  0.00    +0.000 A 
ATOM     28  C   UNL     1       1.753   5.664  20.814  0.00  0.00    +0.000 A 
BRANCH  23  30
ATOM     29  C   UNL     1       2.413   2.906  21.424  0.00  0.00    +0.000 C 
ATOM     30  C   UNL     1       2.710   3.490  20.067  0.00  0.00    +0.000 C 
ATOM     31  O   UNL     1       3.160   2.795  19.159  0.00  0.00    +0.000 OA
ENDBRANCH  23  30
ENDBRANCH  17  26
ENDBRANCH   1  20
TORSDOF 4
ENDMDL
MODEL 4
REMARK VINA RESULT:      -8.5      6.305      9.422
REMARK  Name = 
REMARK  5 active torsions:
REMARK  status: ('A' for Active; 'I' for Inactive)
REMARK    1  A    between atoms: C_1  and  C_2
REMARK    2  A    between atoms: C_2  and  C_4
REMARK    3  A    between atoms: C_7  and  N_8
REMARK    4  A    between atoms: N_11  and  S_12
REMARK    5  A    between atoms: S_12  and  C_15
REMARK                            x       y       z     vdW  Elec       q    Type
REMARK                         _______ _______ _______ _____ _____    ______ ____
ROOT
ATOM      1  S   UNL     1       0.508  10.749  19.860  0.00  0.00    +0.000 S 
ATOM      2  O   UNL     1      -0.098   9.565  20.429  0.00  0.00    +0.000 OA
ATOM      3  O   UNL     1       1.459  11.499  20.659  0.00  0.00    +0.000 OA
ENDROOT
BRANCH   1   4
ATOM      4  C   UNL     1      -0.787  11.874  19.369  0.00  0.00    +0.000 C 
ATOM      5  C   UNL     1      -1.585  11.486  18.118  0.00  0.00    +0.000 C 
ATOM      6  C   UNL     1      -2.500  10.261  18.263  0.00  0.00    +0.000 C 
ATOM      7  C   UNL     1      -3.546  10.136  17.145  0.00  0.00    +0.000 C 
ATOM      8  C   UNL     1      -4.670  11.179  17.202  0.00  0.00    +0.000 C 
ATOM      9  C   UNL     1      -5.639  10.967  18.373  0.00  0.00    +0.000 C 
ATOM     10  C   UNL     1      -6.299  12.262  18.866  0.00  0.00    +0.000 C 
ATOM     11  C   UNL     1      -5.339  13.265  19.523  0.00  0.00    +0.000 C 
ATOM     12  C   UNL     1      -4.742  12.765  20.842  0.00  0.00    +0.000 C 
ATOM     13  C   UNL     1      -3.608  13.652  21.377  0.00  0.00    +0.000 C 
ATOM     14  C   UNL     1      -2.312  13.572  20.567  0.00  0.00    +0.000 C 
ATOM     15  C   UNL     1      -1.690  12.179  20.540  0.00  0.00    +0.000 C 
ATOM     16  O   UNL     1      -1.942  11.333  21.399  0.00  0.00    +0.000 OA
ENDBRANCH   1   4
BRANCH   1  20
ATOM     17  N   UNL     1       2.002   8.181  19.214  0.00  0.00    +0.000 N 
ATOM     18  C   UNL     1       1.973   9.114  18.210  0.00  0.00    +0.000 C 
ATOM     19  O   UNL     1       2.464   8.993  17.099  0.00  0.00    +0.000 OA
ATOM     20  N   UNL     1       1.284  10.303  18.480  0.00  0.00    +0.000 N 
ATOM     21  H   UNL     1       1.567   8.467  20.086  0.00  0.00    +0.000 HD
ATOM     22  H   UNL     1       1.091  10.874  17.655  0.00  0.00    +0.000 HD
BRANCH  17  26
ATOM     23  C   UNL     1       3.460   4.217  19.273  0.00  0.00    +0.000 A 
ATOM     24  C   UNL     1       3.916   5.102  18.289  0.00  0.00    +0.000 A 
ATOM     25  C   UNL     1       3.441   6.419  18.245  0.00  0.00    +0.000 A 
ATOM     26  C   UNL     1       2.518   6.874  19.185  0.00  0.00    +0.000 A 
ATOM     27  C   UNL     1       2.060   5.986  20.167  0.00  0.00    +0.000 A 
ATOM     28  C   UNL     1       2.520   4.665  20.207  0.00  0.00    +0.000 A 
BRANCH  23  30
ATOM     29  C   UNL     1       3.246   1.747  18.554  0.00  0.00    +0.000 C 
ATOM     30  C   UNL     1       3.948   2.809  19.361  0.00  0.00    +0.000 C 
ATOM     31  O   UNL     1       4.913   2.536  20.071  0.00  0.00    +0.000 OA
ENDBRANCH  23  30
ENDBRANCH  17  26
ENDBRANCH   1  20
TORSDOF 4
ENDMDL
MODEL 5
REMARK VINA RESULT:      -8.5      6.564      9.405
REMARK  Name = 
REMARK  5 active torsions:
REMARK  status: ('A' for Active; 'I' for Inactive)
REMARK    1  A    between atoms: C_1  and  C_2
REMARK    2  A    between atoms: C_2  and  C_4
REMARK    3  A    between atoms: C_7  and  N_8
REMARK    4  A    between atoms: N_11  and  S_12
REMARK    5  A    between atoms: S_12  and  C_15
REMARK                            x       y       z     vdW  Elec       q    Type
REMARK                         _______ _______ _______ _____ _____    ______ ____
ROOT
ATOM      1  S   UNL     1       0.705  11.783  20.197  0.00  0.00    +0.000 S 
ATOM      2  O   UNL     1       1.370  12.611  21.179  0.00  0.00    +0.000 OA
ATOM      3  O   UNL     1       1.449  11.351  19.029  0.00  0.00    +0.000 OA
ENDROOT
BRANCH   1   4
ATOM      4  C   UNL     1      -0.751  12.638  19.620  0.00  0.00    +0.000 C 
ATOM      5  C   UNL     1      -1.368  12.121  18.315  0.00  0.00    +0.000 C 
ATOM      6  C   UNL     1      -2.029  10.737  18.391  0.00  0.00    +0.000 C 
ATOM      7  C   UNL     1      -2.951  10.427  17.201  0.00  0.00    +0.000 C 
ATOM      8  C   UNL     1      -4.261  11.225  17.183  0.00  0.00    +0.000 C 
ATOM      9  C   UNL     1      -5.246  10.806  18.281  0.00  0.00    +0.000 C 
ATOM     10  C   UNL     1      -6.183  11.935  18.731  0.00  0.00    +0.000 C 
ATOM     11  C   UNL     1      -5.489  13.098  19.458  0.00  0.00    +0.000 C 
ATOM     12  C   UNL     1      -4.895  12.702  20.814  0.00  0.00    +0.000 C 
ATOM     13  C   UNL     1      -4.000  13.787  21.430  0.00  0.00    +0.000 C 
ATOM     14  C   UNL     1      -2.661  13.980  20.714  0.00  0.00    +0.000 C 
ATOM     15  C   UNL     1      -1.775  12.738  20.726  0.00  0.00    +0.000 C 
ATOM     16  O   UNL     1      -1.912  11.844  21.562  0.00  0.00    +0.000 OA
ENDBRANCH   1   4
BRANCH   1  20
ATOM     17  N   UNL     1       1.483   8.878  19.754  0.00  0.00    +0.000 N 
ATOM     18  C   UNL     1       0.545   9.094  20.730  0.00  0.00    +0.000 C 
ATOM     19  O   UNL     1       0.029   8.242  21.435  0.00  0.00    +0.000 OA
ATOM     20  N   UNL     1       0.176  10.425  20.959  0.00  0.00    +0.000 N 
ATOM     21  H   UNL     1       1.779   9.705  19.245  0.00  0.00    +0.000 HD
ATOM     22  H   UNL     1      -0.345  10.574  21.826  0.00  0.00    +0.000 HD
BRANCH  17  26
ATOM     23  C   UNL     1       3.416   5.336  18.503  0.00  0.00    +0.000 A 
ATOM     24  C   UNL     1       2.770   5.365  19.745  0.00  0.00    +0.000 A 
ATOM     25  C   UNL     1       2.129   6.530  20.184  0.00  0.00    +0.000 A 
ATOM     26  C   UNL     1       2.111   7.675  19.390  0.00  0.00    +0.000 A 
ATOM     27  C   UNL     1       2.761   7.645  18.148  0.00  0.00    +0.000 A 
ATOM     28  C   UNL     1       3.416   6.489  17.712  0.00  0.00    +0.000 A 
BRANCH  23  30
ATOM     29  C   UNL     1       4.721   4.146  16.621  0.00  0.00    +0.000 C 
ATOM     30  C   UNL     1       4.103   4.112  17.995  0.00  0.00    +0.000 C 
ATOM     31  O   UNL     1       4.167   3.107  18.698  0.00  0.00    +0.000 OA
ENDBRANCH  23  30
ENDBRANCH  17  26
ENDBRANCH   1  20
TORSDOF 4
ENDMDL
MODEL 6
REMARK VINA RESULT:      -8.3      6.597      9.807
REMARK  Name = 
REMARK  5 active torsions:
REMARK  status: ('A' for Active; 'I' for Inactive)
REMARK    1  A    between atoms: C_1  and  C_2
REMARK    2  A    between atoms: C_2  and  C_4
REMARK    3  A    between atoms: C_7  and  N_8
REMARK    4  A    between atoms: N_11  and  S_12
REMARK    5  A    between atoms: S_12  and  C_15
REMARK                            x       y       z     vdW  Elec       q    Type
REMARK                         _______ _______ _______ _____ _____    ______ ____
ROOT
ATOM      1  S   UNL     1       0.457  12.024  19.805  0.00  0.00    +0.000 S 
ATOM      2  O   UNL     1       1.158  11.618  21.003  0.00  0.00    +0.000 OA
ATOM      3  O   UNL     1       0.268  13.440  19.553  0.00  0.00    +0.000 OA
ENDROOT
BRANCH   1   4
ATOM      4  C   UNL     1      -1.154  11.258  19.798  0.00  0.00    +0.000 C 
ATOM      5  C   UNL     1      -2.176  11.820  20.794  0.00  0.00    +0.000 C 
ATOM      6  C   UNL     1      -2.685  13.238  20.499  0.00  0.00    +0.000 C 
ATOM      7  C   UNL     1      -3.959  13.610  21.273  0.00  0.00    +0.000 C 
ATOM      8  C   UNL     1      -5.228  12.888  20.800  0.00  0.00    +0.000 C 
ATOM      9  C   UNL     1      -5.717  13.353  19.423  0.00  0.00    +0.000 C 
ATOM     10  C   UNL     1      -6.486  12.274  18.647  0.00  0.00    +0.000 C 
ATOM     11  C   UNL     1      -5.640  11.068  18.210  0.00  0.00    +0.000 C 
ATOM     12  C   UNL     1      -4.570  11.418  17.170  0.00  0.00    +0.000 C 
ATOM     13  C   UNL     1      -3.574  10.279  16.911  0.00  0.00    +0.000 C 
ATOM     14  C   UNL     1      -2.603  10.017  18.065  0.00  0.00    +0.000 C 
ATOM     15  C   UNL     1      -1.706  11.207  18.394  0.00  0.00    +0.000 C 
ATOM     16  O   UNL     1      -1.477  12.099  17.577  0.00  0.00    +0.000 OA
ENDBRANCH   1   4
BRANCH   1  20
ATOM     17  N   UNL     1       1.564   9.228  19.354  0.00  0.00    +0.000 N 
ATOM     18  C   UNL     1       1.777  10.118  18.334  0.00  0.00    +0.000 C 
ATOM     19  O   UNL     1       2.338   9.879  17.276  0.00  0.00    +0.000 OA
ATOM     20  N   UNL     1       1.270  11.410  18.514  0.00  0.00    +0.000 N 
ATOM     21  H   UNL     1       1.106   9.611  20.176  0.00  0.00    +0.000 HD
ATOM     22  H   UNL     1       1.247  11.975  17.662  0.00  0.00    +0.000 HD
BRANCH  17  26
ATOM     23  C   UNL     1       2.506   5.110  19.324  0.00  0.00    +0.000 A 
ATOM     24  C   UNL     1       1.972   5.684  20.483  0.00  0.00    +0.000 A 
ATOM     25  C   UNL     1       1.659   7.049  20.519  0.00  0.00    +0.000 A 
ATOM     26  C   UNL     1       1.861   7.855  19.401  0.00  0.00    +0.000 A 
ATOM     27  C   UNL     1       2.399   7.280  18.242  0.00  0.00    +0.000 A 
ATOM     28  C   UNL     1       2.727   5.921  18.205  0.00  0.00    +0.000 A 
BRANCH  23  30
ATOM     29  C   UNL     1       4.085   3.246  18.492  0.00  0.00    +0.000 C 
ATOM     30  C   UNL     1       2.845   3.659  19.241  0.00  0.00    +0.000 C 
ATOM     31  O   UNL     1       2.124   2.828  19.789  0.00  0.00    +0.000 OA
ENDBRANCH  23  30
ENDBRANCH  17  26
ENDBRANCH   1  20
TORSDOF 4
ENDMDL
MODEL 7
REMARK VINA RESULT:      -8.2      6.966      9.677
REMARK  Name = 
REMARK  5 active torsions:
REMARK  status: ('A' for Active; 'I' for Inactive)
REMARK    1  A    between atoms: C_1  and  C_2
REMARK    2  A    between atoms: C_2  and  C_4
REMARK    3  A    between atoms: C_7  and  N_8
REMARK    4  A    between atoms: N_11  and  S_12
REMARK    5  A    between atoms: S_12  and  C_15
REMARK                            x       y       z     vdW  Elec       q    Type
REMARK                         _______ _______ _______ _____ _____    ______ ____
ROOT
ATOM      1  S   UNL     1       0.119  12.288  20.838  0.00  0.00    +0.000 S 
ATOM      2  O   UNL     1       0.464  13.104  21.982  0.00  0.00    +0.000 OA
ATOM      3  O   UNL     1       1.119  12.070  19.810  0.00  0.00    +0.000 OA
ENDROOT
BRANCH   1   4
ATOM      4  C   UNL     1      -1.319  12.989  20.049  0.00  0.00    +0.000 C 
ATOM      5  C   UNL     1      -1.676  12.426  18.667  0.00  0.00    +0.000 C 
ATOM      6  C   UNL     1      -2.187  10.978  18.648  0.00  0.00    +0.000 C 
ATOM      7  C   UNL     1      -2.883  10.587  17.335  0.00  0.00    +0.000 C 
ATOM      8  C   UNL     1      -4.254  11.239  17.120  0.00  0.00    +0.000 C 
ATOM      9  C   UNL     1      -5.340  10.702  18.061  0.00  0.00    +0.000 C 
ATOM     10  C   UNL     1      -6.450  11.718  18.363  0.00  0.00    +0.000 C 
ATOM     11  C   UNL     1      -6.002  12.938  19.181  0.00  0.00    +0.000 C 
ATOM     12  C   UNL     1      -5.577  12.591  20.612  0.00  0.00    +0.000 C 
ATOM     13  C   UNL     1      -4.905  13.758  21.351  0.00  0.00    +0.000 C 
ATOM     14  C   UNL     1      -3.504  14.103  20.842  0.00  0.00    +0.000 C 
ATOM     15  C   UNL     1      -2.500  12.963  20.989  0.00  0.00    +0.000 C 
ATOM     16  O   UNL     1      -2.662  12.049  21.798  0.00  0.00    +0.000 OA
ENDBRANCH   1   4
BRANCH   1  20
ATOM     17  N   UNL     1       1.059   9.525  19.987  0.00  0.00    +0.000 N 
ATOM     18  C   UNL     1       0.113   9.546  20.978  0.00  0.00    +0.000 C 
ATOM     19  O   UNL     1      -0.352   8.573  21.550  0.00  0.00    +0.000 OA
ATOM     20  N   UNL     1      -0.330  10.807  21.394  0.00  0.00    +0.000 N 
ATOM     21  H   UNL     1       1.307  10.432  19.604  0.00  0.00    +0.000 HD
ATOM     22  H   UNL     1      -0.857  10.800  22.271  0.00  0.00    +0.000 HD
BRANCH  17  26
ATOM     23  C   UNL     1       3.167   6.307  18.241  0.00  0.00    +0.000 A 
ATOM     24  C   UNL     1       2.662   6.174  19.541  0.00  0.00    +0.000 A 
ATOM     25  C   UNL     1       1.967   7.231  20.143  0.00  0.00    +0.000 A 
ATOM     26  C   UNL     1       1.754   8.425  19.457  0.00  0.00    +0.000 A 
ATOM     27  C   UNL     1       2.263   8.557  18.157  0.00  0.00    +0.000 A 
ATOM     28  C   UNL     1       2.970   7.511  17.557  0.00  0.00    +0.000 A 
BRANCH  23  30
ATOM     29  C   UNL     1       3.219   3.873  17.384  0.00  0.00    +0.000 C 
ATOM     30  C   UNL     1       3.905   5.203  17.561  0.00  0.00    +0.000 C 
ATOM     31  O   UNL     1       5.045   5.392  17.145  0.00  0.00    +0.000 OA
ENDBRANCH  23  30
ENDBRANCH  17  26
ENDBRANCH   1  20
TORSDOF 4
ENDMDL
MODEL 8
REMARK VINA RESULT:      -8.2      6.249      9.672
REMARK  Name = 
REMARK  5 active torsions:
REMARK  status: ('A' for Active; 'I' for Inactive)
REMARK    1  A    between atoms: C_1  and  C_2
REMARK    2  A    between atoms: C_2  and  C_4
REMARK    3  A    between atoms: C_7  and  N_8
REMARK    4  A    between atoms: N_11  and  S_12
REMARK    5  A    between atoms: S_12  and  C_15
REMARK                            x       y       z     vdW  Elec       q    Type
REMARK                         _______ _______ _______ _____ _____    ______ ____
ROOT
ATOM      1  S   UNL     1       0.837  10.641  18.733  0.00  0.00    +0.000 S 
ATOM      2  O   UNL     1       2.154  10.619  18.136  0.00  0.00    +0.000 OA
ATOM      3  O   UNL     1      -0.251   9.968  18.048  0.00  0.00    +0.000 OA
ENDROOT
BRANCH   1   4
ATOM      4  C   UNL     1       0.349  12.339  18.978  0.00  0.00    +0.000 C 
ATOM      5  C   UNL     1      -1.134  12.580  19.287  0.00  0.00    +0.000 C 
ATOM      6  C   UNL     1      -1.620  12.087  20.658  0.00  0.00    +0.000 C 
ATOM      7  C   UNL     1      -2.975  12.674  21.081  0.00  0.00    +0.000 C 
ATOM      8  C   UNL     1      -2.938  14.162  21.454  0.00  0.00    +0.000 C 
ATOM      9  C   UNL     1      -2.207  14.441  22.773  0.00  0.00    +0.000 C 
ATOM     10  C   UNL     1      -1.566  15.835  22.838  0.00  0.00    +0.000 C 
ATOM     11  C   UNL     1      -0.401  16.055  21.862  0.00  0.00    +0.000 C 
ATOM     12  C   UNL     1       0.828  15.194  22.176  0.00  0.00    +0.000 C 
ATOM     13  C   UNL     1       1.897  15.230  21.075  0.00  0.00    +0.000 C 
ATOM     14  C   UNL     1       1.504  14.496  19.791  0.00  0.00    +0.000 C 
ATOM     15  C   UNL     1       1.250  13.004  19.991  0.00  0.00    +0.000 C 
ATOM     16  O   UNL     1       1.716  12.383  20.947  0.00  0.00    +0.000 OA
ENDBRANCH   1   4
BRANCH   1  20
ATOM     17  N   UNL     1       1.705   7.843  19.545  0.00  0.00    +0.000 N 
ATOM     18  C   UNL     1       1.348   8.672  20.577  0.00  0.00    +0.000 C 
ATOM     19  O   UNL     1       1.373   8.394  21.766  0.00  0.00    +0.000 OA
ATOM     20  N   UNL     1       0.952   9.969  20.229  0.00  0.00    +0.000 N 
ATOM     21  H   UNL     1       1.591   8.233  18.615  0.00  0.00    +0.000 HD
ATOM     22  H   UNL     1       0.909  10.620  21.016  0.00  0.00    +0.000 HD
BRANCH  17  26
ATOM     23  C   UNL     1       3.422   3.983  19.594  0.00  0.00    +0.000 A 
ATOM     24  C   UNL     1       2.351   4.270  20.449  0.00  0.00    +0.000 A 
ATOM     25  C   UNL     1       1.771   5.545  20.456  0.00  0.00    +0.000 A 
ATOM     26  C   UNL     1       2.239   6.544  19.605  0.00  0.00    +0.000 A 
ATOM     27  C   UNL     1       3.313   6.256  18.752  0.00  0.00    +0.000 A 
ATOM     28  C   UNL     1       3.906   4.990  18.752  0.00  0.00    +0.000 A 
BRANCH  23  30
ATOM     29  C   UNL     1       3.525   1.609  18.586  0.00  0.00    +0.000 C 
ATOM     30  C   UNL     1       4.062   2.636  19.550  0.00  0.00    +0.000 C 
ATOM     31  O   UNL     1       5.017   2.385  20.280  0.00  0.00    +0.000 OA
ENDBRANCH  23  30
ENDBRANCH  17  26
ENDBRANCH   1  20
TORSDOF 4
ENDMDL
MODEL 9
REMARK VINA RESULT:      -8.2      6.562      9.527
REMARK  Name = 
REMARK  5 active torsions:
REMARK  status: ('A' for Active; 'I' for Inactive)
REMARK    1  A    between atoms: C_1  and  C_2
REMARK    2  A    between atoms: C_2  and  C_4
REMARK    3  A    between atoms: C_7  and  N_8
REMARK    4  A    between atoms: N_11  and  S_12
REMARK    5  A    between atoms: S_12  and  C_15
REMARK                            x       y       z     vdW  Elec       q    Type
REMARK                         _______ _______ _______ _____ _____    ______ ____
ROOT
ATOM      1  S   UNL     1       0.706  11.790  20.251  0.00  0.00    +0.000 S 
ATOM      2  O   UNL     1       1.370  12.616  21.236  0.00  0.00    +0.000 OA
ATOM      3  O   UNL     1       1.454  11.357  19.085  0.00  0.00    +0.000 OA
ENDROOT
BRANCH   1   4
ATOM      4  C   UNL     1      -0.745  12.650  19.669  0.00  0.00    +0.000 C 
ATOM      5  C   UNL     1      -1.351  12.142  18.354  0.00  0.00    +0.000 C 
ATOM      6  C   UNL     1      -2.014  10.758  18.415  0.00  0.00    +0.000 C 
ATOM      7  C   UNL     1      -2.926  10.457  17.216  0.00  0.00    +0.000 C 
ATOM      8  C   UNL     1      -4.236  11.255  17.193  0.00  0.00    +0.000 C 
ATOM      9  C   UNL     1      -5.229  10.828  18.281  0.00  0.00    +0.000 C 
ATOM     10  C   UNL     1      -6.169  11.955  18.731  0.00  0.00    +0.000 C 
ATOM     11  C   UNL     1      -5.481  13.112  19.471  0.00  0.00    +0.000 C 
ATOM     12  C   UNL     1      -4.898  12.707  20.830  0.00  0.00    +0.000 C 
ATOM     13  C   UNL     1      -4.008  13.787  21.460  0.00  0.00    +0.000 C 
ATOM     14  C   UNL     1      -2.663  13.984  20.756  0.00  0.00    +0.000 C 
ATOM     15  C   UNL     1      -1.777  12.742  20.766  0.00  0.00    +0.000 C 
ATOM     16  O   UNL     1      -1.921  11.842  21.595  0.00  0.00    +0.000 OA
ENDBRANCH   1   4
BRANCH   1  20
ATOM     17  N   UNL     1       1.452   8.880  19.786  0.00  0.00    +0.000 N 
ATOM     18  C   UNL     1       0.525   9.100  20.770  0.00  0.00    +0.000 C 
ATOM     19  O   UNL     1       0.006   8.249  21.475  0.00  0.00    +0.000 OA
ATOM     20  N   UNL     1       0.170  10.433  21.010  0.00  0.00    +0.000 N 
ATOM     21  H   UNL     1       1.752   9.707  19.279  0.00  0.00    +0.000 HD
ATOM     22  H   UNL     1      -0.342  10.583  21.882  0.00  0.00    +0.000 HD
BRANCH  17  26
ATOM     23  C   UNL     1       3.249   5.182  18.814  0.00  0.00    +0.000 A 
ATOM     24  C   UNL     1       3.335   6.247  17.909  0.00  0.00    +0.000 A 
ATOM     25  C   UNL     1       2.740   7.480  18.206  0.00  0.00    +0.000 A 
ATOM     26  C   UNL     1       2.066   7.673  19.410  0.00  0.00    +0.000 A 
ATOM     27  C   UNL     1       1.978   6.604  20.313  0.00  0.00    +0.000 A 
ATOM     28  C   UNL     1       2.556   5.367  20.015  0.00  0.00    +0.000 A 
BRANCH  23  30
ATOM     29  C   UNL     1       3.035   2.614  18.680  0.00  0.00    +0.000 C 
ATOM     30  C   UNL     1       3.876   3.856  18.539  0.00  0.00    +0.000 C 
ATOM     31  O   UNL     1       5.053   3.793  18.192  0.00  0.00    +0.000 OA
ENDBRANCH  23  30
ENDBRANCH  17  26
ENDBRANCH   1  20
TORSDOF 4
ENDMDL
