MODEL 1
REMARK VINA RESULT:      -6.3      0.000      0.000
REMARK  Name = 
REMARK  5 active torsions:
REMARK  status: ('A' for Active; 'I' for Inactive)
REMARK    1  A    between atoms: N_1  and  C_2
REMARK    2  A    between atoms: N_10  and  C_11
REMARK    3  A    between atoms: C_11  and  C_12
REMARK    4  A    between atoms: C_13  and  C_14
REMARK    5  A    between atoms: C_14  and  O_15
REMARK                            x       y       z     vdW  Elec       q    Type
REMARK                         _______ _______ _______ _____ _____    ______ ____
ROOT
ATOM      1  C   UNL     1       7.032   6.171  16.793  0.00  0.00    +0.000 A 
ATOM      2  N   UNL     1       7.378   5.692  15.576  0.00  0.00    +0.000 NA
ATOM      3  C   UNL     1       6.798   4.549  15.149  0.00  0.00    +0.000 A 
ATOM      4  N   UNL     1       5.893   3.777  15.787  0.00  0.00    +0.000 NA
ATOM      5  C   UNL     1       5.605   4.284  16.998  0.00  0.00    +0.000 A 
ATOM      6  C   UNL     1       6.121   5.436  17.570  0.00  0.00    +0.000 A 
ATOM      7  N   UNL     1       5.600   5.631  18.834  0.00  0.00    +0.000 NA
ATOM      8  C   UNL     1       4.762   4.631  19.011  0.00  0.00    +0.000 A 
ATOM      9  N   UNL     1       4.725   3.798  17.925  0.00  0.00    +0.000 N 
ENDROOT
BRANCH   1  10
ATOM     10  N   UNL     1       7.598   7.368  17.215  0.00  0.00    +0.000 N 
ATOM     11  H   UNL     1       7.092   8.175  16.881  0.00  0.00    +0.000 HD
ATOM     12  H   UNL     1       8.610   7.381  17.163  0.00  0.00    +0.000 HD
ENDBRANCH   1  10
BRANCH   9  13
ATOM     13  C   UNL     1       3.817   2.679  17.743  0.00  0.00    +0.000 C 
BRANCH  13  14
ATOM     14  C   UNL     1       2.400   3.106  17.485  0.00  0.00    +0.000 C 
ATOM     15  C   UNL     1       1.405   3.051  18.388  0.00  0.00    +0.000 C 
BRANCH  15  16
ATOM     16  C   UNL     1       1.501   2.564  19.798  0.00  0.00    +0.000 C 
BRANCH  16  17
ATOM     17  O   UNL     1       0.501   3.216  20.563  0.00  0.00    +0.000 OA
ATOM     18  H   UNL     1      -0.252   2.604  20.631  0.00  0.00    +0.000 HD
ENDBRANCH  16  17
ENDBRANCH  15  16
ENDBRANCH  13  14
ENDBRANCH   9  13
TORSDOF 5
ENDMDL
MODEL 2
REMARK VINA RESULT:      -6.2      1.602      2.539
REMARK  Name = 
REMARK  5 active torsions:
REMARK  status: ('A' for Active; 'I' for Inactive)
REMARK    1  A    between atoms: N_1  and  C_2
REMARK    2  A    between atoms: N_10  and  C_11
REMARK    3  A    between atoms: C_11  and  C_12
REMARK    4  A    between atoms: C_13  and  C_14
REMARK    5  A    between atoms: C_14  and  O_15
REMARK                            x       y       z     vdW  Elec       q    Type
REMARK                         _______ _______ _______ _____ _____    ______ ____
ROOT
ATOM      1  C   UNL     1       6.488   4.211  15.883  0.00  0.00    +0.000 A 
ATOM      2  N   UNL     1       7.664   4.498  16.487  0.00  0.00    +0.000 NA
ATOM      3  C   UNL     1       7.670   4.670  17.827  0.00  0.00    +0.000 A 
ATOM      4  N   UNL     1       6.634   4.601  18.687  0.00  0.00    +0.000 NA
ATOM      5  C   UNL     1       5.489   4.339  18.034  0.00  0.00    +0.000 A 
ATOM      6  C   UNL     1       5.326   4.146  16.671  0.00  0.00    +0.000 A 
ATOM      7  N   UNL     1       4.001   3.911  16.363  0.00  0.00    +0.000 NA
ATOM      8  C   UNL     1       3.377   3.932  17.522  0.00  0.00    +0.000 A 
ATOM      9  N   UNL     1       4.238   4.178  18.560  0.00  0.00    +0.000 N 
ENDROOT
BRANCH   1  10
ATOM     10  N   UNL     1       6.489   3.995  14.510  0.00  0.00    +0.000 N 
ATOM     11  H   UNL     1       6.860   3.090  14.260  0.00  0.00    +0.000 HD
ATOM     12  H   UNL     1       6.785   4.800  13.971  0.00  0.00    +0.000 HD
ENDBRANCH   1  10
BRANCH   9  13
ATOM     13  C   UNL     1       3.899   4.140  19.972  0.00  0.00    +0.000 C 
BRANCH  13  14
ATOM     14  C   UNL     1       2.645   4.900  20.298  0.00  0.00    +0.000 C 
ATOM     15  C   UNL     1       1.481   4.339  20.669  0.00  0.00    +0.000 C 
BRANCH  15  16
ATOM     16  C   UNL     1       1.201   2.879  20.830  0.00  0.00    +0.000 C 
BRANCH  16  17
ATOM     17  O   UNL     1       1.615   2.486  22.127  0.00  0.00    +0.000 OA
ATOM     18  H   UNL     1       0.924   1.902  22.484  0.00  0.00    +0.000 HD
ENDBRANCH  16  17
ENDBRANCH  15  16
ENDBRANCH  13  14
ENDBRANCH   9  13
TORSDOF 5
ENDMDL
MODEL 3
REMARK VINA RESULT:      -6.1      1.733      2.272
REMARK  Name = 
REMARK  5 active torsions:
REMARK  status: ('A' for Active; 'I' for Inactive)
REMARK    1  A    between atoms: N_1  and  C_2
REMARK    2  A    between atoms: N_10  and  C_11
REMARK    3  A    between atoms: C_11  and  C_12
REMARK    4  A    between atoms: C_13  and  C_14
REMARK    5  A    between atoms: C_14  and  O_15
REMARK                            x       y       z     vdW  Elec       q    Type
REMARK                         _______ _______ _______ _____ _____    ______ ____
ROOT
ATOM      1  C   UNL     1       6.679   4.941  17.182  0.00  0.00    +0.000 A 
ATOM      2  N   UNL     1       6.447   5.894  16.249  0.00  0.00    +0.000 NA
ATOM      3  C   UNL     1       5.235   6.491  16.231  0.00  0.00    +0.000 A 
ATOM      4  N   UNL     1       4.175   6.263  17.032  0.00  0.00    +0.000 NA
ATOM      5  C   UNL     1       4.449   5.293  17.921  0.00  0.00    +0.000 A 
ATOM      6  C   UNL     1       5.636   4.590  18.056  0.00  0.00    +0.000 A 
ATOM      7  N   UNL     1       5.542   3.659  19.072  0.00  0.00    +0.000 NA
ATOM      8  C   UNL     1       4.331   3.816  19.562  0.00  0.00    +0.000 A 
ATOM      9  N   UNL     1       3.638   4.798  18.904  0.00  0.00    +0.000 N 
ENDROOT
BRANCH   1  10
ATOM     10  N   UNL     1       7.938   4.356  17.227  0.00  0.00    +0.000 N 
ATOM     11  H   UNL     1       7.917   3.418  17.600  0.00  0.00    +0.000 HD
ATOM     12  H   UNL     1       8.668   4.983  17.545  0.00  0.00    +0.000 HD
ENDBRANCH   1  10
BRANCH   9  13
ATOM     13  C   UNL     1       2.329   5.309  19.275  0.00  0.00    +0.000 C 
BRANCH  13  14
ATOM     14  C   UNL     1       1.675   4.514  20.368  0.00  0.00    +0.000 C 
ATOM     15  C   UNL     1       0.992   3.370  20.183  0.00  0.00    +0.000 C 
BRANCH  15  16
ATOM     16  C   UNL     1       0.748   2.672  18.884  0.00  0.00    +0.000 C 
BRANCH  16  17
ATOM     17  O   UNL     1       1.652   1.585  18.785  0.00  0.00    +0.000 OA
ATOM     18  H   UNL     1       2.464   1.924  18.370  0.00  0.00    +0.000 HD
ENDBRANCH  16  17
ENDBRANCH  15  16
ENDBRANCH  13  14
ENDBRANCH   9  13
TORSDOF 5
ENDMDL
MODEL 4
REMARK VINA RESULT:      -6.1      1.254      1.262
REMARK  Name = 
REMARK  5 active torsions:
REMARK  status: ('A' for Active; 'I' for Inactive)
REMARK    1  A    between atoms: N_1  and  C_2
REMARK    2  A    between atoms: N_10  and  C_11
REMARK    3  A    between atoms: C_11  and  C_12
REMARK    4  A    between atoms: C_13  and  C_14
REMARK    5  A    between atoms: C_14  and  O_15
REMARK                            x       y       z     vdW  Elec       q    Type
REMARK                         _______ _______ _______ _____ _____    ______ ____
ROOT
ATOM      1  C   UNL     1       7.222   5.369  18.287  0.00  0.00    +0.000 A 
ATOM      2  N   UNL     1       7.715   4.975  17.090  0.00  0.00    +0.000 NA
ATOM      3  C   UNL     1       6.885   4.339  16.234  0.00  0.00    +0.000 A 
ATOM      4  N   UNL     1       5.586   4.019  16.405  0.00  0.00    +0.000 NA
ATOM      5  C   UNL     1       5.155   4.410  17.616  0.00  0.00    +0.000 A 
ATOM      6  C   UNL     1       5.886   5.062  18.597  0.00  0.00    +0.000 A 
ATOM      7  N   UNL     1       5.111   5.290  19.717  0.00  0.00    +0.000 NA
ATOM      8  C   UNL     1       3.924   4.811  19.408  0.00  0.00    +0.000 A 
ATOM      9  N   UNL     1       3.901   4.278  18.146  0.00  0.00    +0.000 N 
ENDROOT
BRANCH   1  10
ATOM     10  N   UNL     1       8.063   6.058  19.151  0.00  0.00    +0.000 N 
ATOM     11  H   UNL     1       7.561   6.522  19.894  0.00  0.00    +0.000 HD
ATOM     12  H   UNL     1       8.802   6.568  18.681  0.00  0.00    +0.000 HD
ENDBRANCH   1  10
BRANCH   9  13
ATOM     13  C   UNL     1       2.724   3.786  17.452  0.00  0.00    +0.000 C 
BRANCH  13  14
ATOM     14  C   UNL     1       2.305   2.416  17.901  0.00  0.00    +0.000 C 
ATOM     15  C   UNL     1       1.414   2.166  18.877  0.00  0.00    +0.000 C 
BRANCH  15  16
ATOM     16  C   UNL     1       0.675   3.176  19.696  0.00  0.00    +0.000 C 
BRANCH  16  17
ATOM     17  O   UNL     1       0.848   2.852  21.065  0.00  0.00    +0.000 OA
ATOM     18  H   UNL     1       0.492   1.955  21.194  0.00  0.00    +0.000 HD
ENDBRANCH  16  17
ENDBRANCH  15  16
ENDBRANCH  13  14
ENDBRANCH   9  13
TORSDOF 5
ENDMDL
MODEL 5
REMARK VINA RESULT:      -6.0      1.483      1.622
REMARK  Name = 
REMARK  5 active torsions:
REMARK  status: ('A' for Active; 'I' for Inactive)
REMARK    1  A    between atoms: N_1  and  C_2
REMARK    2  A    between atoms: N_10  and  C_11
REMARK    3  A    between atoms: C_11  and  C_12
REMARK    4  A    between atoms: C_13  and  C_14
REMARK    5  A    between atoms: C_14  and  O_15
REMARK                            x       y       z     vdW  Elec       q    Type
REMARK                         _______ _______ _______ _____ _____    ______ ____
ROOT
ATOM      1  C   UNL     1       7.247   4.524  17.292  0.00  0.00    +0.000 A 
ATOM      2  N   UNL     1       7.234   4.911  15.995  0.00  0.00    +0.000 NA
ATOM      3  C   UNL     1       6.047   5.230  15.434  0.00  0.00    +0.000 A 
ATOM      4  N   UNL     1       4.821   5.213  15.996  0.00  0.00    +0.000 NA
ATOM      5  C   UNL     1       4.887   4.800  17.273  0.00  0.00    +0.000 A 
ATOM      6  C   UNL     1       6.023   4.435  17.978  0.00  0.00    +0.000 A 
ATOM      7  N   UNL     1       5.700   4.052  19.265  0.00  0.00    +0.000 NA
ATOM      8  C   UNL     1       4.396   4.212  19.346  0.00  0.00    +0.000 A 
ATOM      9  N   UNL     1       3.864   4.670  18.170  0.00  0.00    +0.000 N 
ENDROOT
BRANCH   1  10
ATOM     10  N   UNL     1       8.471   4.235  17.881  0.00  0.00    +0.000 N 
ATOM     11  H   UNL     1       9.158   4.959  17.726  0.00  0.00    +0.000 HD
ATOM     12  H   UNL     1       8.759   3.270  17.769  0.00  0.00    +0.000 HD
ENDBRANCH   1  10
BRANCH   9  13
ATOM     13  C   UNL     1       2.483   5.071  17.961  0.00  0.00    +0.000 C 
BRANCH  13  14
ATOM     14  C   UNL     1       1.533   3.909  17.915  0.00  0.00    +0.000 C 
ATOM     15  C   UNL     1       0.870   3.416  18.976  0.00  0.00    +0.000 C 
BRANCH  15  16
ATOM     16  C   UNL     1       0.943   3.910  20.386  0.00  0.00    +0.000 C 
BRANCH  16  17
ATOM     17  O   UNL     1       1.268   2.815  21.225  0.00  0.00    +0.000 OA
ATOM     18  H   UNL     1       0.881   2.999  22.099  0.00  0.00    +0.000 HD
ENDBRANCH  16  17
ENDBRANCH  15  16
ENDBRANCH  13  14
ENDBRANCH   9  13
TORSDOF 5
ENDMDL
MODEL 6
REMARK VINA RESULT:      -6.0      2.774      5.220
REMARK  Name = 
REMARK  5 active torsions:
REMARK  status: ('A' for Active; 'I' for Inactive)
REMARK    1  A    between atoms: N_1  and  C_2
REMARK    2  A    between atoms: N_10  and  C_11
REMARK    3  A    between atoms: C_11  and  C_12
REMARK    4  A    between atoms: C_13  and  C_14
REMARK    5  A    between atoms: C_14  and  O_15
REMARK                            x       y       z     vdW  Elec       q    Type
REMARK                         _______ _______ _______ _____ _____    ______ ____
ROOT
ATOM      1  C   UNL     1       1.767   3.585  19.287  0.00  0.00    +0.000 A 
ATOM      2  N   UNL     1       2.137   2.373  18.811  0.00  0.00    +0.000 NA
ATOM      3  C   UNL     1       3.092   2.324  17.857  0.00  0.00    +0.000 A 
ATOM      4  N   UNL     1       3.754   3.347  17.278  0.00  0.00    +0.000 NA
ATOM      5  C   UNL     1       3.332   4.526  17.768  0.00  0.00    +0.000 A 
ATOM      6  C   UNL     1       2.363   4.733  18.737  0.00  0.00    +0.000 A 
ATOM      7  N   UNL     1       2.187   6.082  18.974  0.00  0.00    +0.000 NA
ATOM      8  C   UNL     1       3.055   6.679  18.184  0.00  0.00    +0.000 A 
ATOM      9  N   UNL     1       3.775   5.778  17.444  0.00  0.00    +0.000 N 
ENDROOT
BRANCH   1  10
ATOM     10  N   UNL     1       0.814   3.633  20.296  0.00  0.00    +0.000 N 
ATOM     11  H   UNL     1       0.126   4.357  20.146  0.00  0.00    +0.000 HD
ATOM     12  H   UNL     1       1.199   3.523  21.227  0.00  0.00    +0.000 HD
ENDBRANCH   1  10
BRANCH   9  13
ATOM     13  C   UNL     1       4.895   6.095  16.575  0.00  0.00    +0.000 C 
BRANCH  13  14
ATOM     14  C   UNL     1       6.028   6.769  17.296  0.00  0.00    +0.000 C 
ATOM     15  C   UNL     1       7.129   6.145  17.750  0.00  0.00    +0.000 C 
BRANCH  15  16
ATOM     16  C   UNL     1       7.445   4.688  17.635  0.00  0.00    +0.000 C 
BRANCH  16  17
ATOM     17  O   UNL     1       6.625   3.981  18.549  0.00  0.00    +0.000 OA
ATOM     18  H   UNL     1       6.628   4.481  19.383  0.00  0.00    +0.000 HD
ENDBRANCH  16  17
ENDBRANCH  15  16
ENDBRANCH  13  14
ENDBRANCH   9  13
TORSDOF 5
ENDMDL
MODEL 7
REMARK VINA RESULT:      -6.0      2.870      5.326
REMARK  Name = 
REMARK  5 active torsions:
REMARK  status: ('A' for Active; 'I' for Inactive)
REMARK    1  A    between atoms: N_1  and  C_2
REMARK    2  A    between atoms: N_10  and  C_11
REMARK    3  A    between atoms: C_11  and  C_12
REMARK    4  A    between atoms: C_13  and  C_14
REMARK    5  A    between atoms: C_14  and  O_15
REMARK                            x       y       z     vdW  Elec       q    Type
REMARK                         _______ _______ _______ _____ _____    ______ ____
ROOT
ATOM      1  C   UNL     1       1.725   3.109  19.651  0.00  0.00    +0.000 A 
ATOM      2  N   UNL     1       2.189   1.980  19.068  0.00  0.00    +0.000 NA
ATOM      3  C   UNL     1       3.273   2.072  18.266  0.00  0.00    +0.000 A 
ATOM      4  N   UNL     1       3.986   3.170  17.941  0.00  0.00    +0.000 NA
ATOM      5  C   UNL     1       3.469   4.264  18.526  0.00  0.00    +0.000 A 
ATOM      6  C   UNL     1       2.366   4.327  19.362  0.00  0.00    +0.000 A 
ATOM      7  N   UNL     1       2.124   5.627  19.759  0.00  0.00    +0.000 NA
ATOM      8  C   UNL     1       3.082   6.334  19.198  0.00  0.00    +0.000 A 
ATOM      9  N   UNL     1       3.923   5.552  18.451  0.00  0.00    +0.000 N 
ENDROOT
BRANCH   1  10
ATOM     10  N   UNL     1       0.635   3.009  20.506  0.00  0.00    +0.000 N 
ATOM     11  H   UNL     1       0.657   2.167  21.065  0.00  0.00    +0.000 HD
ATOM     12  H   UNL     1      -0.244   3.279  20.081  0.00  0.00    +0.000 HD
ENDBRANCH   1  10
BRANCH   9  13
ATOM     13  C   UNL     1       5.149   5.994  17.809  0.00  0.00    +0.000 C 
BRANCH  13  14
ATOM     14  C   UNL     1       4.992   6.218  16.332  0.00  0.00    +0.000 C 
ATOM     15  C   UNL     1       5.654   5.540  15.378  0.00  0.00    +0.000 C 
BRANCH  15  16
ATOM     16  C   UNL     1       6.658   4.452  15.585  0.00  0.00    +0.000 C 
BRANCH  16  17
ATOM     17  O   UNL     1       5.962   3.253  15.877  0.00  0.00    +0.000 OA
ATOM     18  H   UNL     1       5.035   3.494  16.049  0.00  0.00    +0.000 HD
ENDBRANCH  16  17
ENDBRANCH  15  16
ENDBRANCH  13  14
ENDBRANCH   9  13
TORSDOF 5
ENDMDL
MODEL 8
REMARK VINA RESULT:      -5.9      1.645      2.565
REMARK  Name = 
REMARK  5 active torsions:
REMARK  status: ('A' for Active; 'I' for Inactive)
REMARK    1  A    between atoms: N_1  and  C_2
REMARK    2  A    between atoms: N_10  and  C_11
REMARK    3  A    between atoms: C_11  and  C_12
REMARK    4  A    between atoms: C_13  and  C_14
REMARK    5  A    between atoms: C_14  and  O_15
REMARK                            x       y       z     vdW  Elec       q    Type
REMARK                         _______ _______ _______ _____ _____    ______ ____
ROOT
ATOM      1  C   UNL     1       6.960   5.315  16.813  0.00  0.00    +0.000 A 
ATOM      2  N   UNL     1       7.712   5.896  17.777  0.00  0.00    +0.000 NA
ATOM      3  C   UNL     1       7.357   5.706  19.066  0.00  0.00    +0.000 A 
ATOM      4  N   UNL     1       6.317   5.001  19.556  0.00  0.00    +0.000 NA
ATOM      5  C   UNL     1       5.591   4.468  18.558  0.00  0.00    +0.000 A 
ATOM      6  C   UNL     1       5.826   4.580  17.197  0.00  0.00    +0.000 A 
ATOM      7  N   UNL     1       4.859   3.909  16.475  0.00  0.00    +0.000 NA
ATOM      8  C   UNL     1       4.070   3.375  17.384  0.00  0.00    +0.000 A 
ATOM      9  N   UNL     1       4.478   3.679  18.656  0.00  0.00    +0.000 N 
ENDROOT
BRANCH   1  10
ATOM     10  N   UNL     1       7.348   5.477  15.489  0.00  0.00    +0.000 N 
ATOM     11  H   UNL     1       6.587   5.772  14.894  0.00  0.00    +0.000 HD
ATOM     12  H   UNL     1       7.963   4.746  15.152  0.00  0.00    +0.000 HD
ENDBRANCH   1  10
BRANCH   9  13
ATOM     13  C   UNL     1       3.909   3.146  19.882  0.00  0.00    +0.000 C 
BRANCH  13  14
ATOM     14  C   UNL     1       2.414   3.010  19.826  0.00  0.00    +0.000 C 
ATOM     15  C   UNL     1       1.542   3.972  20.179  0.00  0.00    +0.000 C 
BRANCH  15  16
ATOM     16  C   UNL     1       1.873   5.338  20.688  0.00  0.00    +0.000 C 
BRANCH  16  17
ATOM     17  O   UNL     1       2.260   6.142  19.587  0.00  0.00    +0.000 OA
ATOM     18  H   UNL     1       1.703   5.881  18.832  0.00  0.00    +0.000 HD
ENDBRANCH  16  17
ENDBRANCH  15  16
ENDBRANCH  13  14
ENDBRANCH   9  13
TORSDOF 5
ENDMDL
MODEL 9
REMARK VINA RESULT:      -5.9      1.334      2.370
REMARK  Name = 
REMARK  5 active torsions:
REMARK  status: ('A' for Active; 'I' for Inactive)
REMARK    1  A    between atoms: N_1  and  C_2
REMARK    2  A    between atoms: N_10  and  C_11
REMARK    3  A    between atoms: C_11  and  C_12
REMARK    4  A    between atoms: C_13  and  C_14
REMARK    5  A    between atoms: C_14  and  O_15
REMARK                            x       y       z     vdW  Elec       q    Type
REMARK                         _______ _______ _______ _____ _____    ______ ____
ROOT
ATOM      1  C   UNL     1       7.060   5.483  16.833  0.00  0.00    +0.000 A 
ATOM      2  N   UNL     1       7.762   6.039  17.847  0.00  0.00    +0.000 NA
ATOM      3  C   UNL     1       7.375   5.773  19.114  0.00  0.00    +0.000 A 
ATOM      4  N   UNL     1       6.345   5.011  19.535  0.00  0.00    +0.000 NA
ATOM      5  C   UNL     1       5.669   4.504  18.490  0.00  0.00    +0.000 A 
ATOM      6  C   UNL     1       5.941   4.692  17.144  0.00  0.00    +0.000 A 
ATOM      7  N   UNL     1       5.020   4.027  16.360  0.00  0.00    +0.000 NA
ATOM      8  C   UNL     1       4.222   3.422  17.216  0.00  0.00    +0.000 A 
ATOM      9  N   UNL     1       4.582   3.675  18.514  0.00  0.00    +0.000 N 
ENDROOT
BRANCH   1  10
ATOM     10  N   UNL     1       7.482   5.723  15.531  0.00  0.00    +0.000 N 
ATOM     11  H   UNL     1       7.655   6.702  15.353  0.00  0.00    +0.000 HD
ATOM     12  H   UNL     1       6.975   5.192  14.833  0.00  0.00    +0.000 HD
ENDBRANCH   1  10
BRANCH   9  13
ATOM     13  C   UNL     1       3.994   3.063  19.693  0.00  0.00    +0.000 C 
BRANCH  13  14
ATOM     14  C   UNL     1       2.804   3.815  20.215  0.00  0.00    +0.000 C 
ATOM     15  C   UNL     1       1.548   3.682  19.753  0.00  0.00    +0.000 C 
BRANCH  15  16
ATOM     16  C   UNL     1       1.089   2.782  18.650  0.00  0.00    +0.000 C 
BRANCH  16  17
ATOM     17  O   UNL     1       1.322   1.441  19.044  0.00  0.00    +0.000 OA
ATOM     18  H   UNL     1       0.961   0.870  18.344  0.00  0.00    +0.000 HD
ENDBRANCH  16  17
ENDBRANCH  15  16
ENDBRANCH  13  14
ENDBRANCH   9  13
TORSDOF 5
ENDMDL
