MODEL 1
REMARK VINA RESULT:      -7.5      0.000      0.000
REMARK  Name = 
REMARK  2 active torsions:
REMARK  status: ('A' for Active; 'I' for Inactive)
REMARK    1  A    between atoms: N_1  and  C_2
REMARK    2  A    between atoms: C_2  and  C_3
REMARK                            x       y       z     vdW  Elec       q    Type
REMARK                         _______ _______ _______ _____ _____    ______ ____
ROOT
ATOM      1  C   UNL     1       4.977  10.676  26.071  0.00  0.00    +0.000 C 
ATOM      2  O   UNL     1       4.429   9.977  25.209  0.00  0.00    +0.000 OA
ATOM      3  N   UNL     1       5.848  11.706  25.719  0.00  0.00    +0.000 N 
ATOM      4  C   UNL     1       6.413  11.594  24.375  0.00  0.00    +0.000 C 
ATOM      5  C   UNL     1       7.815  12.189  24.252  0.00  0.00    +0.000 C 
ATOM      6  N   UNL     1       7.711  13.590  23.872  0.00  0.00    +0.000 N 
ATOM      7  C   UNL     1       6.781  14.445  24.457  0.00  0.00    +0.000 A 
ATOM      8  C   UNL     1       6.009  14.247  25.630  0.00  0.00    +0.000 A 
ATOM      9  C   UNL     1       5.207  15.348  26.005  0.00  0.00    +0.000 A 
ATOM     10  C   UNL     1       5.103  16.497  25.214  0.00  0.00    +0.000 A 
ATOM     11  C   UNL     1       5.762  16.594  23.984  0.00  0.00    +0.000 A 
ATOM     12  C   UNL     1       6.614  15.553  23.586  0.00  0.00    +0.000 A 
ATOM     13  C   UNL     1       7.335  15.185  22.452  0.00  0.00    +0.000 A 
ATOM     14  C   UNL     1       7.369  15.777  21.153  0.00  0.00    +0.000 A 
ATOM     15  C   UNL     1       7.922  15.006  20.071  0.00  0.00    +0.000 A 
ATOM     16  C   UNL     1       8.448  13.709  20.355  0.00  0.00    +0.000 A 
ATOM     17  C   UNL     1       9.222  12.921  19.514  0.00  0.00    +0.000 A 
ATOM     18  C   UNL     1       8.984  11.929  18.543  0.00  0.00    +0.000 A 
ATOM     19  C   UNL     1      10.066  11.134  18.133  0.00  0.00    +0.000 A 
ATOM     20  C   UNL     1      11.361  11.421  18.570  0.00  0.00    +0.000 A 
ATOM     21  C   UNL     1      11.577  12.300  19.632  0.00  0.00    +0.000 A 
ATOM     22  C   UNL     1      10.415  12.774  20.234  0.00  0.00    +0.000 A 
ATOM     23  N   UNL     1      10.079  12.956  21.575  0.00  0.00    +0.000 N 
ATOM     24  C   UNL     1       8.855  13.560  21.639  0.00  0.00    +0.000 A 
ATOM     25  C   UNL     1       8.095  14.081  22.654  0.00  0.00    +0.000 A 
ATOM     26  C   UNL     1       7.917  15.810  18.889  0.00  0.00    +0.000 C 
ATOM     27  O   UNL     1       8.340  15.629  17.748  0.00  0.00    +0.000 OA
ATOM     28  N   UNL     1       7.342  16.977  19.312  0.00  0.00    +0.000 N 
ATOM     29  C   UNL     1       6.972  17.047  20.633  0.00  0.00    +0.000 C 
ATOM     30  O   UNL     1       6.467  18.044  21.136  0.00  0.00    +0.000 OA
ATOM     31  C   UNL     1       6.024  12.971  26.479  0.00  0.00    +0.000 C 
ATOM     32  H   UNL     1      10.669  12.692  22.351  0.00  0.00    +0.000 HD
ATOM     33  H   UNL     1       7.246  17.764  18.694  0.00  0.00    +0.000 HD
ENDROOT
BRANCH   1  34
ATOM     34  C   UNL     1       4.852  10.254  27.538  0.00  0.00    +0.000 C 
BRANCH  34  35
ATOM     35  N   UNL     1       4.358   8.889  27.714  0.00  0.00    +0.000 NA
ATOM     36  H   UNL     1       4.585   8.599  28.668  0.00  0.00    +0.000 HD
ATOM     37  H   UNL     1       4.911   8.272  27.115  0.00  0.00    +0.000 HD
ENDBRANCH  34  35
ENDBRANCH   1  34
TORSDOF 2
ENDMDL
MODEL 2
REMARK VINA RESULT:      -7.5      8.958     11.017
REMARK  Name = 
REMARK  2 active torsions:
REMARK  status: ('A' for Active; 'I' for Inactive)
REMARK    1  A    between atoms: N_1  and  C_2
REMARK    2  A    between atoms: C_2  and  C_3
REMARK                            x       y       z     vdW  Elec       q    Type
REMARK                         _______ _______ _______ _____ _____    ______ ____
ROOT
ATOM      1  C   UNL     1       1.637   8.289  20.245  0.00  0.00    +0.000 C 
ATOM      2  O   UNL     1       1.546   8.129  21.470  0.00  0.00    +0.000 OA
ATOM      3  N   UNL     1       0.998   9.350  19.607  0.00  0.00    +0.000 N 
ATOM      4  C   UNL     1      -0.113   9.934  20.359  0.00  0.00    +0.000 C 
ATOM      5  C   UNL     1      -1.218  10.501  19.471  0.00  0.00    +0.000 C 
ATOM      6  N   UNL     1      -0.938  11.902  19.189  0.00  0.00    +0.000 N 
ATOM      7  C   UNL     1       0.338  12.345  18.857  0.00  0.00    +0.000 A 
ATOM      8  C   UNL     1       1.471  11.582  18.474  0.00  0.00    +0.000 A 
ATOM      9  C   UNL     1       2.608  12.344  18.123  0.00  0.00    +0.000 A 
ATOM     10  C   UNL     1       2.642  13.736  18.256  0.00  0.00    +0.000 A 
ATOM     11  C   UNL     1       1.556  14.442  18.784  0.00  0.00    +0.000 A 
ATOM     12  C   UNL     1       0.380  13.743  19.099  0.00  0.00    +0.000 A 
ATOM     13  C   UNL     1      -0.836  14.000  19.729  0.00  0.00    +0.000 A 
ATOM     14  C   UNL     1      -1.289  15.170  20.410  0.00  0.00    +0.000 A 
ATOM     15  C   UNL     1      -2.441  15.053  21.264  0.00  0.00    +0.000 A 
ATOM     16  C   UNL     1      -3.099  13.790  21.355  0.00  0.00    +0.000 A 
ATOM     17  C   UNL     1      -4.339  13.535  21.927  0.00  0.00    +0.000 A 
ATOM     18  C   UNL     1      -4.819  13.177  23.201  0.00  0.00    +0.000 A 
ATOM     19  C   UNL     1      -6.134  12.695  23.299  0.00  0.00    +0.000 A 
ATOM     20  C   UNL     1      -6.980  12.712  22.187  0.00  0.00    +0.000 A 
ATOM     21  C   UNL     1      -6.469  12.927  20.906  0.00  0.00    +0.000 A 
ATOM     22  C   UNL     1      -5.083  13.035  20.849  0.00  0.00    +0.000 A 
ATOM     23  N   UNL     1      -4.154  12.511  19.951  0.00  0.00    +0.000 N 
ATOM     24  C   UNL     1      -2.918  13.006  20.264  0.00  0.00    +0.000 A 
ATOM     25  C   UNL     1      -1.682  12.943  19.676  0.00  0.00    +0.000 A 
ATOM     26  C   UNL     1      -2.754  16.347  21.786  0.00  0.00    +0.000 C 
ATOM     27  O   UNL     1      -3.670  16.769  22.491  0.00  0.00    +0.000 OA
ATOM     28  N   UNL     1      -1.773  17.139  21.255  0.00  0.00    +0.000 N 
ATOM     29  C   UNL     1      -0.852  16.530  20.439  0.00  0.00    +0.000 C 
ATOM     30  O   UNL     1       0.060  17.135  19.888  0.00  0.00    +0.000 OA
ATOM     31  C   UNL     1       1.507  10.052  18.400  0.00  0.00    +0.000 C 
ATOM     32  H   UNL     1      -4.384  11.886  19.192  0.00  0.00    +0.000 HD
ATOM     33  H   UNL     1      -1.763  18.132  21.415  0.00  0.00    +0.000 HD
ENDROOT
BRANCH   1  34
ATOM     34  C   UNL     1       2.286   7.180  19.412  0.00  0.00    +0.000 C 
BRANCH  34  35
ATOM     35  N   UNL     1       2.875   6.111  20.218  0.00  0.00    +0.000 NA
ATOM     36  H   UNL     1       2.685   5.226  19.743  0.00  0.00    +0.000 HD
ATOM     37  H   UNL     1       2.354   6.053  21.096  0.00  0.00    +0.000 HD
ENDBRANCH  34  35
ENDBRANCH   1  34
TORSDOF 2
ENDMDL
MODEL 3
REMARK VINA RESULT:      -7.2     10.594     11.648
REMARK  Name = 
REMARK  2 active torsions:
REMARK  status: ('A' for Active; 'I' for Inactive)
REMARK    1  A    between atoms: N_1  and  C_2
REMARK    2  A    between atoms: C_2  and  C_3
REMARK                            x       y       z     vdW  Elec       q    Type
REMARK                         _______ _______ _______ _____ _____    ______ ____
ROOT
ATOM      1  C   UNL     1      -6.424  12.889  23.916  0.00  0.00    +0.000 C 
ATOM      2  O   UNL     1      -5.712  12.323  24.757  0.00  0.00    +0.000 OA
ATOM      3  N   UNL     1      -5.984  13.078  22.608  0.00  0.00    +0.000 N 
ATOM      4  C   UNL     1      -4.533  13.009  22.436  0.00  0.00    +0.000 C 
ATOM      5  C   UNL     1      -4.010  13.894  21.307  0.00  0.00    +0.000 C 
ATOM      6  N   UNL     1      -3.990  13.131  20.068  0.00  0.00    +0.000 N 
ATOM      7  C   UNL     1      -5.044  12.301  19.696  0.00  0.00    +0.000 A 
ATOM      8  C   UNL     1      -6.356  12.240  20.231  0.00  0.00    +0.000 A 
ATOM      9  C   UNL     1      -7.222  11.336  19.576  0.00  0.00    +0.000 A 
ATOM     10  C   UNL     1      -6.780  10.488  18.555  0.00  0.00    +0.000 A 
ATOM     11  C   UNL     1      -5.439  10.468  18.158  0.00  0.00    +0.000 A 
ATOM     12  C   UNL     1      -4.545  11.383  18.736  0.00  0.00    +0.000 A 
ATOM     13  C   UNL     1      -3.173  11.626  18.737  0.00  0.00    +0.000 A 
ATOM     14  C   UNL     1      -2.107  10.878  18.149  0.00  0.00    +0.000 A 
ATOM     15  C   UNL     1      -0.765  11.154  18.589  0.00  0.00    +0.000 A 
ATOM     16  C   UNL     1      -0.560  12.185  19.554  0.00  0.00    +0.000 A 
ATOM     17  C   UNL     1       0.653  12.752  19.923  0.00  0.00    +0.000 A 
ATOM     18  C   UNL     1       1.640  12.502  20.896  0.00  0.00    +0.000 A 
ATOM     19  C   UNL     1       2.581  13.511  21.155  0.00  0.00    +0.000 A 
ATOM     20  C   UNL     1       2.622  14.662  20.364  0.00  0.00    +0.000 A 
ATOM     21  C   UNL     1       1.567  14.974  19.505  0.00  0.00    +0.000 A 
ATOM     22  C   UNL     1       0.486  14.100  19.578  0.00  0.00    +0.000 A 
ATOM     23  N   UNL     1      -0.888  14.332  19.590  0.00  0.00    +0.000 N 
ATOM     24  C   UNL     1      -1.534  13.128  19.555  0.00  0.00    +0.000 A 
ATOM     25  C   UNL     1      -2.844  12.744  19.427  0.00  0.00    +0.000 A 
ATOM     26  C   UNL     1       0.138  10.347  17.828  0.00  0.00    +0.000 C 
ATOM     27  O   UNL     1       1.365  10.273  17.785  0.00  0.00    +0.000 OA
ATOM     28  N   UNL     1      -0.699   9.625  17.021  0.00  0.00    +0.000 N 
ATOM     29  C   UNL     1      -2.045   9.861  17.149  0.00  0.00    +0.000 C 
ATOM     30  O   UNL     1      -2.893   9.295  16.468  0.00  0.00    +0.000 OA
ATOM     31  C   UNL     1      -6.859  13.086  21.406  0.00  0.00    +0.000 C 
ATOM     32  H   UNL     1      -1.312  15.248  19.604  0.00  0.00    +0.000 HD
ATOM     33  H   UNL     1      -0.337   8.992  16.329  0.00  0.00    +0.000 HD
ENDROOT
BRANCH   1  34
ATOM     34  C   UNL     1      -7.711  13.571  24.392  0.00  0.00    +0.000 C 
BRANCH  34  35
ATOM     35  N   UNL     1      -7.730  15.014  24.155  0.00  0.00    +0.000 NA
ATOM     36  H   UNL     1      -7.094  15.208  23.378  0.00  0.00    +0.000 HD
ATOM     37  H   UNL     1      -7.304  15.474  24.962  0.00  0.00    +0.000 HD
ENDBRANCH  34  35
ENDBRANCH   1  34
TORSDOF 2
ENDMDL
MODEL 4
REMARK VINA RESULT:      -7.0     10.395     12.657
REMARK  Name = 
REMARK  2 active torsions:
REMARK  status: ('A' for Active; 'I' for Inactive)
REMARK    1  A    between atoms: N_1  and  C_2
REMARK    2  A    between atoms: C_2  and  C_3
REMARK                            x       y       z     vdW  Elec       q    Type
REMARK                         _______ _______ _______ _____ _____    ______ ____
ROOT
ATOM      1  C   UNL     1       2.179  14.697  20.921  0.00  0.00    +0.000 C 
ATOM      2  O   UNL     1       1.909  15.847  20.550  0.00  0.00    +0.000 OA
ATOM      3  N   UNL     1       1.196  13.711  20.988  0.00  0.00    +0.000 N 
ATOM      4  C   UNL     1      -0.174  14.219  21.057  0.00  0.00    +0.000 C 
ATOM      5  C   UNL     1      -1.120  13.313  21.843  0.00  0.00    +0.000 C 
ATOM      6  N   UNL     1      -1.736  12.358  20.933  0.00  0.00    +0.000 N 
ATOM      7  C   UNL     1      -1.003  11.697  19.952  0.00  0.00    +0.000 A 
ATOM      8  C   UNL     1       0.405  11.592  19.816  0.00  0.00    +0.000 A 
ATOM      9  C   UNL     1       0.838  10.778  18.746  0.00  0.00    +0.000 A 
ATOM     10  C   UNL     1      -0.055  10.216  17.828  0.00  0.00    +0.000 A 
ATOM     11  C   UNL     1      -1.429  10.469  17.905  0.00  0.00    +0.000 A 
ATOM     12  C   UNL     1      -1.922  11.226  18.979  0.00  0.00    +0.000 A 
ATOM     13  C   UNL     1      -3.130  11.799  19.369  0.00  0.00    +0.000 A 
ATOM     14  C   UNL     1      -4.375  11.881  18.674  0.00  0.00    +0.000 A 
ATOM     15  C   UNL     1      -5.356  12.821  19.150  0.00  0.00    +0.000 A 
ATOM     16  C   UNL     1      -5.055  13.592  20.313  0.00  0.00    +0.000 A 
ATOM     17  C   UNL     1      -5.941  14.365  21.052  0.00  0.00    +0.000 A 
ATOM     18  C   UNL     1      -6.381  15.702  21.040  0.00  0.00    +0.000 A 
ATOM     19  C   UNL     1      -7.059  16.184  22.170  0.00  0.00    +0.000 A 
ATOM     20  C   UNL     1      -7.412  15.317  23.208  0.00  0.00    +0.000 A 
ATOM     21  C   UNL     1      -6.856  14.040  23.289  0.00  0.00    +0.000 A 
ATOM     22  C   UNL     1      -5.898  13.765  22.318  0.00  0.00    +0.000 A 
ATOM     23  N   UNL     1      -4.662  13.124  22.397  0.00  0.00    +0.000 N 
ATOM     24  C   UNL     1      -4.152  13.003  21.135  0.00  0.00    +0.000 A 
ATOM     25  C   UNL     1      -3.063  12.369  20.596  0.00  0.00    +0.000 A 
ATOM     26  C   UNL     1      -6.537  12.687  18.356  0.00  0.00    +0.000 C 
ATOM     27  O   UNL     1      -7.650  13.208  18.412  0.00  0.00    +0.000 OA
ATOM     28  N   UNL     1      -6.192  11.722  17.449  0.00  0.00    +0.000 N 
ATOM     29  C   UNL     1      -4.929  11.195  17.550  0.00  0.00    +0.000 C 
ATOM     30  O   UNL     1      -4.510  10.311  16.812  0.00  0.00    +0.000 OA
ATOM     31  C   UNL     1       1.423  12.262  20.745  0.00  0.00    +0.000 C 
ATOM     32  H   UNL     1      -4.243  12.797  23.255  0.00  0.00    +0.000 HD
ATOM     33  H   UNL     1      -6.856  11.380  16.776  0.00  0.00    +0.000 HD
ENDROOT
BRANCH   1  34
ATOM     34  C   UNL     1       3.566  14.429  21.513  0.00  0.00    +0.000 C 
BRANCH  34  35
ATOM     35  N   UNL     1       3.709  14.881  22.897  0.00  0.00    +0.000 NA
ATOM     36  H   UNL     1       2.948  15.536  23.088  0.00  0.00    +0.000 HD
ATOM     37  H   UNL     1       4.560  15.443  22.960  0.00  0.00    +0.000 HD
ENDBRANCH  34  35
ENDBRANCH   1  34
TORSDOF 2
ENDMDL
MODEL 5
REMARK VINA RESULT:      -7.0      7.263     10.046
REMARK  Name = 
REMARK  2 active torsions:
REMARK  status: ('A' for Active; 'I' for Inactive)
REMARK    1  A    between atoms: N_1  and  C_2
REMARK    2  A    between atoms: C_2  and  C_3
REMARK                            x       y       z     vdW  Elec       q    Type
REMARK                         _______ _______ _______ _____ _____    ______ ____
ROOT
ATOM      1  C   UNL     1       4.971  16.585  19.819  0.00  0.00    +0.000 C 
ATOM      2  O   UNL     1       5.254  16.394  21.009  0.00  0.00    +0.000 OA
ATOM      3  N   UNL     1       3.769  16.131  19.281  0.00  0.00    +0.000 N 
ATOM      4  C   UNL     1       3.128  15.057  20.040  0.00  0.00    +0.000 C 
ATOM      5  C   UNL     1       2.321  14.094  19.171  0.00  0.00    +0.000 C 
ATOM      6  N   UNL     1       0.949  14.569  19.075  0.00  0.00    +0.000 N 
ATOM      7  C   UNL     1       0.647  15.911  18.863  0.00  0.00    +0.000 A 
ATOM      8  C   UNL     1       1.508  16.960  18.449  0.00  0.00    +0.000 A 
ATOM      9  C   UNL     1       0.873  18.206  18.250  0.00  0.00    +0.000 A 
ATOM     10  C   UNL     1      -0.478  18.409  18.550  0.00  0.00    +0.000 A 
ATOM     11  C   UNL     1      -1.261  17.390  19.104  0.00  0.00    +0.000 A 
ATOM     12  C   UNL     1      -0.696  16.116  19.273  0.00  0.00    +0.000 A 
ATOM     13  C   UNL     1      -1.042  14.904  19.866  0.00  0.00    +0.000 A 
ATOM     14  C   UNL     1      -2.179  14.561  20.659  0.00  0.00    +0.000 A 
ATOM     15  C   UNL     1      -2.124  13.349  21.433  0.00  0.00    +0.000 A 
ATOM     16  C   UNL     1      -0.959  12.530  21.338  0.00  0.00    +0.000 A 
ATOM     17  C   UNL     1      -0.811  11.233  21.812  0.00  0.00    +0.000 A 
ATOM     18  C   UNL     1      -0.380  10.628  23.008  0.00  0.00    +0.000 A 
ATOM     19  C   UNL     1      -0.072   9.258  22.981  0.00  0.00    +0.000 A 
ATOM     20  C   UNL     1      -0.329   8.497  21.838  0.00  0.00    +0.000 A 
ATOM     21  C   UNL     1      -0.615   9.114  20.619  0.00  0.00    +0.000 A 
ATOM     22  C   UNL     1      -0.540  10.504  20.646  0.00  0.00    +0.000 A 
ATOM     23  N   UNL     1      -0.000  11.416  19.740  0.00  0.00    +0.000 N 
ATOM     24  C   UNL     1      -0.285  12.680  20.172  0.00  0.00    +0.000 A 
ATOM     25  C   UNL     1      -0.122  13.935  19.644  0.00  0.00    +0.000 A 
ATOM     26  C   UNL     1      -3.381  13.170  22.090  0.00  0.00    +0.000 C 
ATOM     27  O   UNL     1      -3.841  12.272  22.793  0.00  0.00    +0.000 OA
ATOM     28  N   UNL     1      -4.089  14.278  21.709  0.00  0.00    +0.000 N 
ATOM     29  C   UNL     1      -3.455  15.165  20.873  0.00  0.00    +0.000 C 
ATOM     30  O   UNL     1      -3.990  16.182  20.445  0.00  0.00    +0.000 OA
ATOM     31  C   UNL     1       3.011  16.805  18.194  0.00  0.00    +0.000 C 
ATOM     32  H   UNL     1       0.499  11.158  18.901  0.00  0.00    +0.000 HD
ATOM     33  H   UNL     1      -5.047  14.405  21.986  0.00  0.00    +0.000 HD
ENDROOT
BRANCH   1  34
ATOM     34  C   UNL     1       6.057  17.141  18.892  0.00  0.00    +0.000 C 
BRANCH  34  35
ATOM     35  N   UNL     1       6.983  18.056  19.559  0.00  0.00    +0.000 NA
ATOM     36  H   UNL     1       7.686  17.490  20.038  0.00  0.00    +0.000 HD
ATOM     37  H   UNL     1       6.474  18.531  20.308  0.00  0.00    +0.000 HD
ENDBRANCH  34  35
ENDBRANCH   1  34
TORSDOF 2
ENDMDL
MODEL 6
REMARK VINA RESULT:      -6.9     10.082     12.572
REMARK  Name = 
REMARK  2 active torsions:
REMARK  status: ('A' for Active; 'I' for Inactive)
REMARK    1  A    between atoms: N_1  and  C_2
REMARK    2  A    between atoms: C_2  and  C_3
REMARK                            x       y       z     vdW  Elec       q    Type
REMARK                         _______ _______ _______ _____ _____    ______ ____
ROOT
ATOM      1  C   UNL     1       1.283  16.689  22.010  0.00  0.00    +0.000 C 
ATOM      2  O   UNL     1       0.637  17.715  21.760  0.00  0.00    +0.000 OA
ATOM      3  N   UNL     1       0.689  15.430  21.952  0.00  0.00    +0.000 N 
ATOM      4  C   UNL     1      -0.770  15.439  22.051  0.00  0.00    +0.000 C 
ATOM      5  C   UNL     1      -1.343  14.190  22.717  0.00  0.00    +0.000 C 
ATOM      6  N   UNL     1      -1.621  13.187  21.699  0.00  0.00    +0.000 N 
ATOM      7  C   UNL     1      -0.727  12.919  20.666  0.00  0.00    +0.000 A 
ATOM      8  C   UNL     1       0.631  13.307  20.545  0.00  0.00    +0.000 A 
ATOM      9  C   UNL     1       1.292  12.806  19.401  0.00  0.00    +0.000 A 
ATOM     10  C   UNL     1       0.621  12.079  18.412  0.00  0.00    +0.000 A 
ATOM     11  C   UNL     1      -0.756  11.847  18.491  0.00  0.00    +0.000 A 
ATOM     12  C   UNL     1      -1.453  12.275  19.631  0.00  0.00    +0.000 A 
ATOM     13  C   UNL     1      -2.776  12.365  20.059  0.00  0.00    +0.000 A 
ATOM     14  C   UNL     1      -3.990  12.099  19.354  0.00  0.00    +0.000 A 
ATOM     15  C   UNL     1      -5.219  12.599  19.910  0.00  0.00    +0.000 A 
ATOM     16  C   UNL     1      -5.172  13.297  21.155  0.00  0.00    +0.000 A 
ATOM     17  C   UNL     1      -6.252  13.644  21.957  0.00  0.00    +0.000 A 
ATOM     18  C   UNL     1      -7.115  14.749  22.080  0.00  0.00    +0.000 A 
ATOM     19  C   UNL     1      -7.894  14.851  23.244  0.00  0.00    +0.000 A 
ATOM     20  C   UNL     1      -7.915  13.811  24.176  0.00  0.00    +0.000 A 
ATOM     21  C   UNL     1      -6.962  12.792  24.129  0.00  0.00    +0.000 A 
ATOM     22  C   UNL     1      -5.986  12.960  23.151  0.00  0.00    +0.000 A 
ATOM     23  N   UNL     1      -4.606  12.766  23.183  0.00  0.00    +0.000 N 
ATOM     24  C   UNL     1      -4.109  12.959  21.925  0.00  0.00    +0.000 A 
ATOM     25  C   UNL     1      -2.881  12.789  21.341  0.00  0.00    +0.000 A 
ATOM     26  C   UNL     1      -6.303  12.163  19.085  0.00  0.00    +0.000 C 
ATOM     27  O   UNL     1      -7.524  12.272  19.177  0.00  0.00    +0.000 OA
ATOM     28  N   UNL     1      -5.672  11.473  18.087  0.00  0.00    +0.000 N 
ATOM     29  C   UNL     1      -4.303  11.392  18.153  0.00  0.00    +0.000 C 
ATOM     30  O   UNL     1      -3.626  10.784  17.331  0.00  0.00    +0.000 OA
ATOM     31  C   UNL     1       1.384  14.176  21.559  0.00  0.00    +0.000 C 
ATOM     32  H   UNL     1      -4.085  12.508  24.009  0.00  0.00    +0.000 HD
ATOM     33  H   UNL     1      -6.195  11.003  17.368  0.00  0.00    +0.000 HD
ENDROOT
BRANCH   1  34
ATOM     34  C   UNL     1       2.691  16.840  22.595  0.00  0.00    +0.000 C 
BRANCH  34  35
ATOM     35  N   UNL     1       2.740  16.687  24.049  0.00  0.00    +0.000 NA
ATOM     36  H   UNL     1       3.650  17.030  24.364  0.00  0.00    +0.000 HD
ATOM     37  H   UNL     1       2.749  15.687  24.262  0.00  0.00    +0.000 HD
ENDBRANCH  34  35
ENDBRANCH   1  34
TORSDOF 2
ENDMDL
MODEL 7
REMARK VINA RESULT:      -6.9      9.768     12.196
REMARK  Name = 
REMARK  2 active torsions:
REMARK  status: ('A' for Active; 'I' for Inactive)
REMARK    1  A    between atoms: N_1  and  C_2
REMARK    2  A    between atoms: C_2  and  C_3
REMARK                            x       y       z     vdW  Elec       q    Type
REMARK                         _______ _______ _______ _____ _____    ______ ____
ROOT
ATOM      1  C   UNL     1       1.119  17.640  20.602  0.00  0.00    +0.000 C 
ATOM      2  O   UNL     1       0.390  18.386  19.935  0.00  0.00    +0.000 OA
ATOM      3  N   UNL     1       0.769  16.313  20.840  0.00  0.00    +0.000 N 
ATOM      4  C   UNL     1      -0.656  16.020  20.678  0.00  0.00    +0.000 C 
ATOM      5  C   UNL     1      -1.156  14.904  21.593  0.00  0.00    +0.000 C 
ATOM      6  N   UNL     1      -1.023  13.626  20.909  0.00  0.00    +0.000 N 
ATOM      7  C   UNL     1       0.117  13.295  20.182  0.00  0.00    +0.000 A 
ATOM      8  C   UNL     1       1.385  13.931  20.181  0.00  0.00    +0.000 A 
ATOM      9  C   UNL     1       2.365  13.299  19.384  0.00  0.00    +0.000 A 
ATOM     10  C   UNL     1       2.069  12.198  18.573  0.00  0.00    +0.000 A 
ATOM     11  C   UNL     1       0.768  11.692  18.482  0.00  0.00    +0.000 A 
ATOM     12  C   UNL     1      -0.235  12.247  19.292  0.00  0.00    +0.000 A 
ATOM     13  C   UNL     1      -1.617  12.150  19.436  0.00  0.00    +0.000 A 
ATOM     14  C   UNL     1      -2.575  11.436  18.653  0.00  0.00    +0.000 A 
ATOM     15  C   UNL     1      -3.964  11.779  18.803  0.00  0.00    +0.000 A 
ATOM     16  C   UNL     1      -4.321  12.782  19.755  0.00  0.00    +0.000 A 
ATOM     17  C   UNL     1      -5.599  13.082  20.209  0.00  0.00    +0.000 A 
ATOM     18  C   UNL     1      -6.635  13.956  19.830  0.00  0.00    +0.000 A 
ATOM     19  C   UNL     1      -7.668  14.194  20.751  0.00  0.00    +0.000 A 
ATOM     20  C   UNL     1      -7.735  13.469  21.943  0.00  0.00    +0.000 A 
ATOM     21  C   UNL     1      -6.643  12.718  22.383  0.00  0.00    +0.000 A 
ATOM     22  C   UNL     1      -5.508  12.829  21.585  0.00  0.00    +0.000 A 
ATOM     23  N   UNL     1      -4.160  12.966  21.913  0.00  0.00    +0.000 N 
ATOM     24  C   UNL     1      -3.424  12.915  20.763  0.00  0.00    +0.000 A 
ATOM     25  C   UNL     1      -2.083  12.873  20.483  0.00  0.00    +0.000 A 
ATOM     26  C   UNL     1      -4.741  10.903  17.983  0.00  0.00    +0.000 C 
ATOM     27  O   UNL     1      -5.952  10.756  17.825  0.00  0.00    +0.000 OA
ATOM     28  N   UNL     1      -3.792  10.127  17.375  0.00  0.00    +0.000 N 
ATOM     29  C   UNL     1      -2.482  10.378  17.699  0.00  0.00    +0.000 C 
ATOM     30  O   UNL     1      -1.543   9.737  17.238  0.00  0.00    +0.000 OA
ATOM     31  C   UNL     1       1.730  15.189  20.985  0.00  0.00    +0.000 C 
ATOM     32  H   UNL     1      -3.810  13.067  22.855  0.00  0.00    +0.000 HD
ATOM     33  H   UNL     1      -4.051   9.374  16.762  0.00  0.00    +0.000 HD
ENDROOT
BRANCH   1  34
ATOM     34  C   UNL     1       2.310  18.257  21.342  0.00  0.00    +0.000 C 
BRANCH  34  35
ATOM     35  N   UNL     1       3.458  18.530  20.479  0.00  0.00    +0.000 NA
ATOM     36  H   UNL     1       3.356  17.956  19.639  0.00  0.00    +0.000 HD
ATOM     37  H   UNL     1       4.295  18.169  20.942  0.00  0.00    +0.000 HD
ENDBRANCH  34  35
ENDBRANCH   1  34
TORSDOF 2
ENDMDL
MODEL 8
REMARK VINA RESULT:      -6.9      8.346      9.353
REMARK  Name = 
REMARK  2 active torsions:
REMARK  status: ('A' for Active; 'I' for Inactive)
REMARK    1  A    between atoms: N_1  and  C_2
REMARK    2  A    between atoms: C_2  and  C_3
REMARK                            x       y       z     vdW  Elec       q    Type
REMARK                         _______ _______ _______ _____ _____    ______ ____
ROOT
ATOM      1  C   UNL     1      -6.569  13.720  22.309  0.00  0.00    +0.000 C 
ATOM      2  O   UNL     1      -6.718  13.749  21.080  0.00  0.00    +0.000 OA
ATOM      3  N   UNL     1      -5.304  13.594  22.880  0.00  0.00    +0.000 N 
ATOM      4  C   UNL     1      -4.285  13.041  21.987  0.00  0.00    +0.000 C 
ATOM      5  C   UNL     1      -3.211  12.235  22.715  0.00  0.00    +0.000 C 
ATOM      6  N   UNL     1      -2.116  13.119  23.087  0.00  0.00    +0.000 N 
ATOM      7  C   UNL     1      -2.340  14.381  23.628  0.00  0.00    +0.000 A 
ATOM      8  C   UNL     1      -3.542  14.922  24.152  0.00  0.00    +0.000 A 
ATOM      9  C   UNL     1      -3.420  16.218  24.701  0.00  0.00    +0.000 A 
ATOM     10  C   UNL     1      -2.230  16.949  24.627  0.00  0.00    +0.000 A 
ATOM     11  C   UNL     1      -1.107  16.443  23.964  0.00  0.00    +0.000 A 
ATOM     12  C   UNL     1      -1.154  15.139  23.447  0.00  0.00    +0.000 A 
ATOM     13  C   UNL     1      -0.363  14.316  22.647  0.00  0.00    +0.000 A 
ATOM     14  C   UNL     1       0.848  14.605  21.948  0.00  0.00    +0.000 A 
ATOM     15  C   UNL     1       1.273  13.688  20.923  0.00  0.00    +0.000 A 
ATOM     16  C   UNL     1       0.490  12.518  20.686  0.00  0.00    +0.000 A 
ATOM     17  C   UNL     1       0.850  11.415  19.922  0.00  0.00    +0.000 A 
ATOM     18  C   UNL     1       0.717  11.021  18.577  0.00  0.00    +0.000 A 
ATOM     19  C   UNL     1       0.936   9.671  18.260  0.00  0.00    +0.000 A 
ATOM     20  C   UNL     1       1.415   8.785  19.228  0.00  0.00    +0.000 A 
ATOM     21  C   UNL     1       1.408   9.134  20.579  0.00  0.00    +0.000 A 
ATOM     22  C   UNL     1       0.826  10.368  20.853  0.00  0.00    +0.000 A 
ATOM     23  N   UNL     1      -0.045  10.773  21.863  0.00  0.00    +0.000 N 
ATOM     24  C   UNL     1      -0.233  12.123  21.762  0.00  0.00    +0.000 A 
ATOM     25  C   UNL     1      -0.867  13.064  22.531  0.00  0.00    +0.000 A 
ATOM     26  C   UNL     1       2.530  14.132  20.407  0.00  0.00    +0.000 C 
ATOM     27  O   UNL     1       3.315  13.660  19.586  0.00  0.00    +0.000 OA
ATOM     28  N   UNL     1       2.763  15.282  21.111  0.00  0.00    +0.000 N 
ATOM     29  C   UNL     1       1.818  15.650  22.035  0.00  0.00    +0.000 C 
ATOM     30  O   UNL     1       1.923  16.646  22.743  0.00  0.00    +0.000 OA
ATOM     31  C   UNL     1      -4.890  14.192  24.175  0.00  0.00    +0.000 C 
ATOM     32  H   UNL     1      -0.444  10.154  22.554  0.00  0.00    +0.000 HD
ATOM     33  H   UNL     1       3.616  15.802  20.991  0.00  0.00    +0.000 HD
ENDROOT
BRANCH   1  34
ATOM     34  C   UNL     1      -7.816  13.607  23.191  0.00  0.00    +0.000 C 
BRANCH  34  35
ATOM     35  N   UNL     1      -7.911  12.337  23.910  0.00  0.00    +0.000 NA
ATOM     36  H   UNL     1      -8.011  12.551  24.904  0.00  0.00    +0.000 HD
ATOM     37  H   UNL     1      -7.009  11.861  23.834  0.00  0.00    +0.000 HD
ENDBRANCH  34  35
ENDBRANCH   1  34
TORSDOF 2
ENDMDL
MODEL 9
REMARK VINA RESULT:      -6.8     10.193     12.835
REMARK  Name = 
REMARK  2 active torsions:
REMARK  status: ('A' for Active; 'I' for Inactive)
REMARK    1  A    between atoms: N_1  and  C_2
REMARK    2  A    between atoms: C_2  and  C_3
REMARK                            x       y       z     vdW  Elec       q    Type
REMARK                         _______ _______ _______ _____ _____    ______ ____
ROOT
ATOM      1  C   UNL     1       2.260  14.773  18.853  0.00  0.00    +0.000 C 
ATOM      2  O   UNL     1       1.937  15.832  18.300  0.00  0.00    +0.000 OA
ATOM      3  N   UNL     1       1.307  13.951  19.453  0.00  0.00    +0.000 N 
ATOM      4  C   UNL     1       0.052  14.622  19.793  0.00  0.00    +0.000 C 
ATOM      5  C   UNL     1      -0.637  14.037  21.024  0.00  0.00    +0.000 C 
ATOM      6  N   UNL     1      -1.549  12.981  20.609  0.00  0.00    +0.000 N 
ATOM      7  C   UNL     1      -1.192  12.033  19.655  0.00  0.00    +0.000 A 
ATOM      8  C   UNL     1       0.096  11.732  19.141  0.00  0.00    +0.000 A 
ATOM      9  C   UNL     1       0.134  10.652  18.232  0.00  0.00    +0.000 A 
ATOM     10  C   UNL     1      -1.026  10.007  17.792  0.00  0.00    +0.000 A 
ATOM     11  C   UNL     1      -2.294  10.432  18.204  0.00  0.00    +0.000 A 
ATOM     12  C   UNL     1      -2.390  11.466  19.148  0.00  0.00    +0.000 A 
ATOM     13  C   UNL     1      -3.387  12.253  19.719  0.00  0.00    +0.000 A 
ATOM     14  C   UNL     1      -4.783  12.323  19.425  0.00  0.00    +0.000 A 
ATOM     15  C   UNL     1      -5.522  13.457  19.915  0.00  0.00    +0.000 A 
ATOM     16  C   UNL     1      -4.838  14.430  20.704  0.00  0.00    +0.000 A 
ATOM     17  C   UNL     1      -5.411  15.450  21.451  0.00  0.00    +0.000 A 
ATOM     18  C   UNL     1      -5.775  16.793  21.232  0.00  0.00    +0.000 A 
ATOM     19  C   UNL     1      -6.040  17.596  22.353  0.00  0.00    +0.000 A 
ATOM     20  C   UNL     1      -6.085  17.035  23.632  0.00  0.00    +0.000 A 
ATOM     21  C   UNL     1      -5.587  15.752  23.865  0.00  0.00    +0.000 A 
ATOM     22  C   UNL     1      -4.997  15.152  22.757  0.00  0.00    +0.000 A 
ATOM     23  N   UNL     1      -3.828  14.403  22.627  0.00  0.00    +0.000 N 
ATOM     24  C   UNL     1      -3.748  13.939  21.344  0.00  0.00    +0.000 A 
ATOM     25  C   UNL     1      -2.912  13.074  20.686  0.00  0.00    +0.000 A 
ATOM     26  C   UNL     1      -6.899  13.289  19.566  0.00  0.00    +0.000 C 
ATOM     27  O   UNL     1      -7.913  13.938  19.814  0.00  0.00    +0.000 OA
ATOM     28  N   UNL     1      -6.899  12.110  18.872  0.00  0.00    +0.000 N 
ATOM     29  C   UNL     1      -5.692  11.472  18.726  0.00  0.00    +0.000 C 
ATOM     30  O   UNL     1      -5.566  10.400  18.144  0.00  0.00    +0.000 OA
ATOM     31  C   UNL     1       1.383  12.469  19.528  0.00  0.00    +0.000 C 
ATOM     32  H   UNL     1      -3.175  14.231  23.377  0.00  0.00    +0.000 HD
ATOM     33  H   UNL     1      -7.755  11.705  18.534  0.00  0.00    +0.000 HD
ENDROOT
BRANCH   1  34
ATOM     34  C   UNL     1       3.750  14.482  19.057  0.00  0.00    +0.000 C 
BRANCH  34  35
ATOM     35  N   UNL     1       4.457  14.157  17.818  0.00  0.00    +0.000 NA
ATOM     36  H   UNL     1       4.545  15.020  17.277  0.00  0.00    +0.000 HD
ATOM     37  H   UNL     1       3.851  13.556  17.256  0.00  0.00    +0.000 HD
ENDBRANCH  34  35
ENDBRANCH   1  34
TORSDOF 2
ENDMDL
