MODEL 1
REMARK VINA RESULT:      -6.9      0.000      0.000
REMARK  Name = 
REMARK  9 active torsions:
REMARK  status: ('A' for Active; 'I' for Inactive)
REMARK    1  A    between atoms: C_1  and  C_2
REMARK    2  A    between atoms: C_2  and  C_3
REMARK    3  A    between atoms: C_3  and  C_4
REMARK    4  A    between atoms: C_3  and  C_6
REMARK    5  A    between atoms: C_4  and  C_5
REMARK    6  A    between atoms: C_11  and  C_12
REMARK    7  A    between atoms: C_13  and  C_14
REMARK    8  A    between atoms: N_16  and  C_17
REMARK    9  A    between atoms: N_16  and  C_18
REMARK                            x       y       z     vdW  Elec       q    Type
REMARK                         _______ _______ _______ _____ _____    ______ ____
ROOT
ATOM      1  C   UNL     1       6.008   4.003  13.994  0.00  0.00    +0.000 C 
ATOM      2  O   UNL     1       4.832   4.355  14.006  0.00  0.00    +0.000 OA
ATOM      3  N   UNL     1       6.819   3.922  15.107  0.00  0.00    +0.000 N 
ATOM      4  C   UNL     1       6.422   4.232  16.387  0.00  0.00    +0.000 A 
ATOM      5  N   UNL     1       7.280   4.588  17.309  0.00  0.00    +0.000 NA
ATOM      6  C   UNL     1       6.614   4.989  18.475  0.00  0.00    +0.000 A 
ATOM      7  C   UNL     1       7.473   5.685  19.467  0.00  0.00    +0.000 C 
ATOM      8  C   UNL     1       5.240   4.749  18.471  0.00  0.00    +0.000 A 
ATOM      9  S   UNL     1       4.819   4.092  16.912  0.00  0.00    +0.000 S 
ATOM     10  H   UNL     1       7.821   3.917  14.998  0.00  0.00    +0.000 HD
ENDROOT
BRANCH   8  11
ATOM     11  C   UNL     1       4.099   5.012  19.354  0.00  0.00    +0.000 C 
ATOM     12  O   UNL     1       3.642   6.161  19.433  0.00  0.00    +0.000 OA
ATOM     13  N   UNL     1       3.448   4.003  20.085  0.00  0.00    +0.000 N 
ATOM     14  C   UNL     1       3.803   2.601  20.161  0.00  0.00    +0.000 C 
ATOM     15  C   UNL     1       2.248   4.361  20.838  0.00  0.00    +0.000 C 
ENDBRANCH   8  11
BRANCH   1  16
ATOM     16  C   UNL     1       6.683   3.572  12.674  0.00  0.00    +0.000 C 
BRANCH  16  18
ATOM     17  C   UNL     1       4.464   3.293  11.355  0.00  0.00    +0.000 C 
ATOM     18  C   UNL     1       5.719   2.633  11.905  0.00  0.00    +0.000 C 
ENDBRANCH  16  18
BRANCH  16  19
ATOM     19  C   UNL     1       7.207   4.743  11.820  0.00  0.00    +0.000 C 
ATOM     20  C   UNL     1       8.166   5.682  12.536  0.00  0.00    +0.000 C 
ENDBRANCH  16  19
ENDBRANCH   1  16
TORSDOF 4
ENDMDL
MODEL 2
REMARK VINA RESULT:      -6.9      1.193      1.641
REMARK  Name = 
REMARK  9 active torsions:
REMARK  status: ('A' for Active; 'I' for Inactive)
REMARK    1  A    between atoms: C_1  and  C_2
REMARK    2  A    between atoms: C_2  and  C_3
REMARK    3  A    between atoms: C_3  and  C_4
REMARK    4  A    between atoms: C_3  and  C_6
REMARK    5  A    between atoms: C_4  and  C_5
REMARK    6  A    between atoms: C_11  and  C_12
REMARK    7  A    between atoms: C_13  and  C_14
REMARK    8  A    between atoms: N_16  and  C_17
REMARK    9  A    between atoms: N_16  and  C_18
REMARK                            x       y       z     vdW  Elec       q    Type
REMARK                         _______ _______ _______ _____ _____    ______ ____
ROOT
ATOM      1  C   UNL     1       6.063   3.903  13.728  0.00  0.00    +0.000 C 
ATOM      2  O   UNL     1       4.886   4.251  13.733  0.00  0.00    +0.000 OA
ATOM      3  N   UNL     1       6.878   3.860  14.841  0.00  0.00    +0.000 N 
ATOM      4  C   UNL     1       6.484   4.209  16.112  0.00  0.00    +0.000 A 
ATOM      5  N   UNL     1       7.342   4.597  17.020  0.00  0.00    +0.000 NA
ATOM      6  C   UNL     1       6.678   5.031  18.175  0.00  0.00    +0.000 A 
ATOM      7  C   UNL     1       7.537   5.762  19.142  0.00  0.00    +0.000 C 
ATOM      8  C   UNL     1       5.305   4.785  18.183  0.00  0.00    +0.000 A 
ATOM      9  S   UNL     1       4.883   4.079  16.646  0.00  0.00    +0.000 S 
ATOM     10  H   UNL     1       7.879   3.857  14.730  0.00  0.00    +0.000 HD
ENDROOT
BRANCH   8  11
ATOM     11  C   UNL     1       4.165   5.071  19.060  0.00  0.00    +0.000 C 
ATOM     12  O   UNL     1       3.925   4.316  20.013  0.00  0.00    +0.000 OA
ATOM     13  N   UNL     1       3.350   6.206  18.910  0.00  0.00    +0.000 N 
ATOM     14  C   UNL     1       3.428   7.216  17.876  0.00  0.00    +0.000 C 
ATOM     15  C   UNL     1       2.317   6.452  19.914  0.00  0.00    +0.000 C 
ENDBRANCH   8  11
BRANCH   1  16
ATOM     16  C   UNL     1       6.736   3.434  12.421  0.00  0.00    +0.000 C 
BRANCH  16  18
ATOM     17  C   UNL     1       6.372   1.230  11.098  0.00  0.00    +0.000 C 
ATOM     18  C   UNL     1       5.757   2.500  11.664  0.00  0.00    +0.000 C 
ENDBRANCH  16  18
BRANCH  16  19
ATOM     19  C   UNL     1       7.289   4.578  11.548  0.00  0.00    +0.000 C 
ATOM     20  C   UNL     1       8.078   5.639  12.301  0.00  0.00    +0.000 C 
ENDBRANCH  16  19
ENDBRANCH   1  16
TORSDOF 4
ENDMDL
MODEL 3
REMARK VINA RESULT:      -6.5      3.617      7.907
REMARK  Name = 
REMARK  9 active torsions:
REMARK  status: ('A' for Active; 'I' for Inactive)
REMARK    1  A    between atoms: C_1  and  C_2
REMARK    2  A    between atoms: C_2  and  C_3
REMARK    3  A    between atoms: C_3  and  C_4
REMARK    4  A    between atoms: C_3  and  C_6
REMARK    5  A    between atoms: C_4  and  C_5
REMARK    6  A    between atoms: C_11  and  C_12
REMARK    7  A    between atoms: C_13  and  C_14
REMARK    8  A    between atoms: N_16  and  C_17
REMARK    9  A    between atoms: N_16  and  C_18
REMARK                            x       y       z     vdW  Elec       q    Type
REMARK                         _______ _______ _______ _____ _____    ______ ____
ROOT
ATOM      1  C   UNL     1       1.548   8.262  19.693  0.00  0.00    +0.000 C 
ATOM      2  O   UNL     1       1.698   8.518  18.502  0.00  0.00    +0.000 OA
ATOM      3  N   UNL     1       2.081   7.165  20.338  0.00  0.00    +0.000 N 
ATOM      4  C   UNL     1       2.851   6.200  19.731  0.00  0.00    +0.000 A 
ATOM      5  N   UNL     1       2.947   4.988  20.214  0.00  0.00    +0.000 NA
ATOM      6  C   UNL     1       3.668   4.163  19.340  0.00  0.00    +0.000 A 
ATOM      7  C   UNL     1       3.581   2.712  19.650  0.00  0.00    +0.000 C 
ATOM      8  C   UNL     1       4.270   4.831  18.275  0.00  0.00    +0.000 A 
ATOM      9  S   UNL     1       3.812   6.510  18.373  0.00  0.00    +0.000 S 
ATOM     10  H   UNL     1       1.688   6.858  21.214  0.00  0.00    +0.000 HD
ENDROOT
BRANCH   8  11
ATOM     11  C   UNL     1       5.048   4.477  17.083  0.00  0.00    +0.000 C 
ATOM     12  O   UNL     1       4.461   4.080  16.067  0.00  0.00    +0.000 OA
ATOM     13  N   UNL     1       6.445   4.619  17.011  0.00  0.00    +0.000 N 
ATOM     14  C   UNL     1       7.343   5.049  18.063  0.00  0.00    +0.000 C 
ATOM     15  C   UNL     1       7.102   4.348  15.734  0.00  0.00    +0.000 C 
ENDBRANCH   8  11
BRANCH   1  16
ATOM     16  C   UNL     1       0.743   9.214  20.604  0.00  0.00    +0.000 C 
BRANCH  16  18
ATOM     17  C   UNL     1       0.187   9.426  23.131  0.00  0.00    +0.000 C 
ATOM     18  C   UNL     1       1.190   8.996  22.071  0.00  0.00    +0.000 C 
ENDBRANCH  16  18
BRANCH  16  19
ATOM     19  C   UNL     1       0.781  10.692  20.165  0.00  0.00    +0.000 C 
ATOM     20  C   UNL     1      -0.574  11.299  19.833  0.00  0.00    +0.000 C 
ENDBRANCH  16  19
ENDBRANCH   1  16
TORSDOF 4
ENDMDL
MODEL 4
REMARK VINA RESULT:      -6.4      3.929      8.245
REMARK  Name = 
REMARK  9 active torsions:
REMARK  status: ('A' for Active; 'I' for Inactive)
REMARK    1  A    between atoms: C_1  and  C_2
REMARK    2  A    between atoms: C_2  and  C_3
REMARK    3  A    between atoms: C_3  and  C_4
REMARK    4  A    between atoms: C_3  and  C_6
REMARK    5  A    between atoms: C_4  and  C_5
REMARK    6  A    between atoms: C_11  and  C_12
REMARK    7  A    between atoms: C_13  and  C_14
REMARK    8  A    between atoms: N_16  and  C_17
REMARK    9  A    between atoms: N_16  and  C_18
REMARK                            x       y       z     vdW  Elec       q    Type
REMARK                         _______ _______ _______ _____ _____    ______ ____
ROOT
ATOM      1  C   UNL     1       1.398   8.548  20.162  0.00  0.00    +0.000 C 
ATOM      2  O   UNL     1       1.544   8.736  18.958  0.00  0.00    +0.000 OA
ATOM      3  N   UNL     1       1.718   7.380  20.824  0.00  0.00    +0.000 N 
ATOM      4  C   UNL     1       2.241   6.260  20.221  0.00  0.00    +0.000 A 
ATOM      5  N   UNL     1       2.104   5.068  20.742  0.00  0.00    +0.000 NA
ATOM      6  C   UNL     1       2.596   4.087  19.869  0.00  0.00    +0.000 A 
ATOM      7  C   UNL     1       2.222   2.696  20.232  0.00  0.00    +0.000 C 
ATOM      8  C   UNL     1       3.276   4.587  18.759  0.00  0.00    +0.000 A 
ATOM      9  S   UNL     1       3.184   6.326  18.817  0.00  0.00    +0.000 S 
ATOM     10  H   UNL     1       1.310   7.185  21.724  0.00  0.00    +0.000 HD
ENDROOT
BRANCH   8  11
ATOM     11  C   UNL     1       3.909   4.046  17.552  0.00  0.00    +0.000 C 
ATOM     12  O   UNL     1       3.207   3.502  16.687  0.00  0.00    +0.000 OA
ATOM     13  N   UNL     1       5.285   4.164  17.290  0.00  0.00    +0.000 N 
ATOM     14  C   UNL     1       6.298   4.744  18.147  0.00  0.00    +0.000 C 
ATOM     15  C   UNL     1       5.786   3.694  16.000  0.00  0.00    +0.000 C 
ENDBRANCH   8  11
BRANCH   1  16
ATOM     16  C   UNL     1       0.851   9.671  21.070  0.00  0.00    +0.000 C 
BRANCH  16  18
ATOM     17  C   UNL     1      -0.962  11.267  20.118  0.00  0.00    +0.000 C 
ATOM     18  C   UNL     1       0.512  10.902  20.190  0.00  0.00    +0.000 C 
ENDBRANCH  16  18
BRANCH  16  19
ATOM     19  C   UNL     1      -0.310   9.236  21.986  0.00  0.00    +0.000 C 
ATOM     20  C   UNL     1      -0.114   9.544  23.463  0.00  0.00    +0.000 C 
ENDBRANCH  16  19
ENDBRANCH   1  16
TORSDOF 4
ENDMDL
MODEL 5
REMARK VINA RESULT:      -6.4      4.939      6.632
REMARK  Name = 
REMARK  9 active torsions:
REMARK  status: ('A' for Active; 'I' for Inactive)
REMARK    1  A    between atoms: C_1  and  C_2
REMARK    2  A    between atoms: C_2  and  C_3
REMARK    3  A    between atoms: C_3  and  C_4
REMARK    4  A    between atoms: C_3  and  C_6
REMARK    5  A    between atoms: C_4  and  C_5
REMARK    6  A    between atoms: C_11  and  C_12
REMARK    7  A    between atoms: C_13  and  C_14
REMARK    8  A    between atoms: N_16  and  C_17
REMARK    9  A    between atoms: N_16  and  C_18
REMARK                            x       y       z     vdW  Elec       q    Type
REMARK                         _______ _______ _______ _____ _____    ______ ____
ROOT
ATOM      1  C   UNL     1       3.927   6.258  17.869  0.00  0.00    +0.000 C 
ATOM      2  O   UNL     1       4.265   7.215  17.179  0.00  0.00    +0.000 OA
ATOM      3  N   UNL     1       2.973   6.300  18.865  0.00  0.00    +0.000 N 
ATOM      4  C   UNL     1       2.271   7.427  19.228  0.00  0.00    +0.000 A 
ATOM      5  N   UNL     1       1.746   7.561  20.418  0.00  0.00    +0.000 NA
ATOM      6  C   UNL     1       1.214   8.847  20.583  0.00  0.00    +0.000 A 
ATOM      7  C   UNL     1       0.864   9.195  21.984  0.00  0.00    +0.000 C 
ATOM      8  C   UNL     1       1.188   9.617  19.421  0.00  0.00    +0.000 A 
ATOM      9  S   UNL     1       1.942   8.691  18.151  0.00  0.00    +0.000 S 
ATOM     10  H   UNL     1       2.955   5.584  19.574  0.00  0.00    +0.000 HD
ENDROOT
BRANCH   8  11
ATOM     11  C   UNL     1       0.820  10.986  19.045  0.00  0.00    +0.000 C 
ATOM     12  O   UNL     1       1.690  11.868  19.023  0.00  0.00    +0.000 OA
ATOM     13  N   UNL     1      -0.480  11.347  18.646  0.00  0.00    +0.000 N 
ATOM     14  C   UNL     1      -1.654  10.502  18.602  0.00  0.00    +0.000 C 
ATOM     15  C   UNL     1      -0.704  12.714  18.178  0.00  0.00    +0.000 C 
ENDBRANCH   8  11
BRANCH   1  16
ATOM     16  C   UNL     1       4.551   4.865  17.636  0.00  0.00    +0.000 C 
BRANCH  16  18
ATOM     17  C   UNL     1       2.673   3.108  17.281  0.00  0.00    +0.000 C 
ATOM     18  C   UNL     1       3.619   3.792  18.255  0.00  0.00    +0.000 C 
ENDBRANCH  16  18
BRANCH  16  19
ATOM     19  C   UNL     1       4.926   4.577  16.169  0.00  0.00    +0.000 C 
ATOM     20  C   UNL     1       6.403   4.309  15.924  0.00  0.00    +0.000 C 
ENDBRANCH  16  19
ENDBRANCH   1  16
TORSDOF 4
ENDMDL
MODEL 6
REMARK VINA RESULT:      -6.4      4.974      7.109
REMARK  Name = 
REMARK  9 active torsions:
REMARK  status: ('A' for Active; 'I' for Inactive)
REMARK    1  A    between atoms: C_1  and  C_2
REMARK    2  A    between atoms: C_2  and  C_3
REMARK    3  A    between atoms: C_3  and  C_4
REMARK    4  A    between atoms: C_3  and  C_6
REMARK    5  A    between atoms: C_4  and  C_5
REMARK    6  A    between atoms: C_11  and  C_12
REMARK    7  A    between atoms: C_13  and  C_14
REMARK    8  A    between atoms: N_16  and  C_17
REMARK    9  A    between atoms: N_16  and  C_18
REMARK                            x       y       z     vdW  Elec       q    Type
REMARK                         _______ _______ _______ _____ _____    ______ ____
ROOT
ATOM      1  C   UNL     1       3.797   6.323  17.958  0.00  0.00    +0.000 C 
ATOM      2  O   UNL     1       4.127   7.289  17.276  0.00  0.00    +0.000 OA
ATOM      3  N   UNL     1       2.856   6.353  18.966  0.00  0.00    +0.000 N 
ATOM      4  C   UNL     1       2.159   7.475  19.351  0.00  0.00    +0.000 A 
ATOM      5  N   UNL     1       1.649   7.593  20.550  0.00  0.00    +0.000 NA
ATOM      6  C   UNL     1       1.119   8.877  20.738  0.00  0.00    +0.000 A 
ATOM      7  C   UNL     1       0.786   9.207  22.148  0.00  0.00    +0.000 C 
ATOM      8  C   UNL     1       1.078   9.662  19.586  0.00  0.00    +0.000 A 
ATOM      9  S   UNL     1       1.817   8.753  18.295  0.00  0.00    +0.000 S 
ATOM     10  H   UNL     1       2.846   5.628  19.665  0.00  0.00    +0.000 HD
ENDROOT
BRANCH   8  11
ATOM     11  C   UNL     1       0.706  11.036  19.232  0.00  0.00    +0.000 C 
ATOM     12  O   UNL     1       1.535  11.947  19.367  0.00  0.00    +0.000 OA
ATOM     13  N   UNL     1      -0.544  11.373  18.684  0.00  0.00    +0.000 N 
ATOM     14  C   UNL     1      -1.668  10.491  18.445  0.00  0.00    +0.000 C 
ATOM     15  C   UNL     1      -0.762  12.754  18.259  0.00  0.00    +0.000 C 
ENDBRANCH   8  11
BRANCH   1  16
ATOM     16  C   UNL     1       4.418   4.933  17.699  0.00  0.00    +0.000 C 
BRANCH  16  18
ATOM     17  C   UNL     1       6.495   5.378  19.192  0.00  0.00    +0.000 C 
ATOM     18  C   UNL     1       5.261   4.527  18.935  0.00  0.00    +0.000 C 
ENDBRANCH  16  18
BRANCH  16  19
ATOM     19  C   UNL     1       3.402   3.856  17.271  0.00  0.00    +0.000 C 
ATOM     20  C   UNL     1       3.620   2.483  17.890  0.00  0.00    +0.000 C 
ENDBRANCH  16  19
ENDBRANCH   1  16
TORSDOF 4
ENDMDL
MODEL 7
REMARK VINA RESULT:      -6.4      4.328      7.849
REMARK  Name = 
REMARK  9 active torsions:
REMARK  status: ('A' for Active; 'I' for Inactive)
REMARK    1  A    between atoms: C_1  and  C_2
REMARK    2  A    between atoms: C_2  and  C_3
REMARK    3  A    between atoms: C_3  and  C_4
REMARK    4  A    between atoms: C_3  and  C_6
REMARK    5  A    between atoms: C_4  and  C_5
REMARK    6  A    between atoms: C_11  and  C_12
REMARK    7  A    between atoms: C_13  and  C_14
REMARK    8  A    between atoms: N_16  and  C_17
REMARK    9  A    between atoms: N_16  and  C_18
REMARK                            x       y       z     vdW  Elec       q    Type
REMARK                         _______ _______ _______ _____ _____    ______ ____
ROOT
ATOM      1  C   UNL     1       1.196   8.511  20.345  0.00  0.00    +0.000 C 
ATOM      2  O   UNL     1       1.366   7.718  21.267  0.00  0.00    +0.000 OA
ATOM      3  N   UNL     1       1.739   8.382  19.083  0.00  0.00    +0.000 N 
ATOM      4  C   UNL     1       2.553   7.346  18.685  0.00  0.00    +0.000 A 
ATOM      5  N   UNL     1       3.398   7.474  17.694  0.00  0.00    +0.000 NA
ATOM      6  C   UNL     1       4.205   6.333  17.583  0.00  0.00    +0.000 A 
ATOM      7  C   UNL     1       5.381   6.495  16.689  0.00  0.00    +0.000 C 
ATOM      8  C   UNL     1       3.821   5.269  18.398  0.00  0.00    +0.000 A 
ATOM      9  S   UNL     1       2.473   5.800  19.367  0.00  0.00    +0.000 S 
ATOM     10  H   UNL     1       1.810   9.188  18.483  0.00  0.00    +0.000 HD
ENDROOT
BRANCH   8  11
ATOM     11  C   UNL     1       4.317   3.927  18.720  0.00  0.00    +0.000 C 
ATOM     12  O   UNL     1       5.357   3.804  19.383  0.00  0.00    +0.000 OA
ATOM     13  N   UNL     1       3.635   2.751  18.361  0.00  0.00    +0.000 N 
ATOM     14  C   UNL     1       2.418   2.642  17.584  0.00  0.00    +0.000 C 
ATOM     15  C   UNL     1       4.160   1.474  18.839  0.00  0.00    +0.000 C 
ENDBRANCH   8  11
BRANCH   1  16
ATOM     16  C   UNL     1       0.293   9.749  20.532  0.00  0.00    +0.000 C 
BRANCH  16  18
ATOM     17  C   UNL     1      -0.713  10.237  22.875  0.00  0.00    +0.000 C 
ATOM     18  C   UNL     1       0.502  10.305  21.964  0.00  0.00    +0.000 C 
ENDBRANCH  16  18
BRANCH  16  19
ATOM     19  C   UNL     1       0.448  10.817  19.432  0.00  0.00    +0.000 C 
ATOM     20  C   UNL     1      -0.734  10.936  18.480  0.00  0.00    +0.000 C 
ENDBRANCH  16  19
ENDBRANCH   1  16
TORSDOF 4
ENDMDL
MODEL 8
REMARK VINA RESULT:      -6.3      4.358      7.772
REMARK  Name = 
REMARK  9 active torsions:
REMARK  status: ('A' for Active; 'I' for Inactive)
REMARK    1  A    between atoms: C_1  and  C_2
REMARK    2  A    between atoms: C_2  and  C_3
REMARK    3  A    between atoms: C_3  and  C_4
REMARK    4  A    between atoms: C_3  and  C_6
REMARK    5  A    between atoms: C_4  and  C_5
REMARK    6  A    between atoms: C_11  and  C_12
REMARK    7  A    between atoms: C_13  and  C_14
REMARK    8  A    between atoms: N_16  and  C_17
REMARK    9  A    between atoms: N_16  and  C_18
REMARK                            x       y       z     vdW  Elec       q    Type
REMARK                         _______ _______ _______ _____ _____    ______ ____
ROOT
ATOM      1  C   UNL     1       1.354   8.669  20.153  0.00  0.00    +0.000 C 
ATOM      2  O   UNL     1       1.484   7.901  21.102  0.00  0.00    +0.000 OA
ATOM      3  N   UNL     1       1.897   8.475  18.899  0.00  0.00    +0.000 N 
ATOM      4  C   UNL     1       2.667   7.392  18.541  0.00  0.00    +0.000 A 
ATOM      5  N   UNL     1       3.521   7.449  17.552  0.00  0.00    +0.000 NA
ATOM      6  C   UNL     1       4.279   6.272  17.484  0.00  0.00    +0.000 A 
ATOM      7  C   UNL     1       5.465   6.353  16.593  0.00  0.00    +0.000 C 
ATOM      8  C   UNL     1       3.845   5.253  18.331  0.00  0.00    +0.000 A 
ATOM      9  S   UNL     1       2.517   5.874  19.274  0.00  0.00    +0.000 S 
ATOM     10  H   UNL     1       2.006   9.256  18.273  0.00  0.00    +0.000 HD
ENDROOT
BRANCH   8  11
ATOM     11  C   UNL     1       4.281   3.902  18.701  0.00  0.00    +0.000 C 
ATOM     12  O   UNL     1       5.301   3.759  19.391  0.00  0.00    +0.000 OA
ATOM     13  N   UNL     1       3.560   2.745  18.359  0.00  0.00    +0.000 N 
ATOM     14  C   UNL     1       2.357   2.661  17.558  0.00  0.00    +0.000 C 
ATOM     15  C   UNL     1       4.025   1.462  18.884  0.00  0.00    +0.000 C 
ENDBRANCH   8  11
BRANCH   1  16
ATOM     16  C   UNL     1       0.505   9.950  20.293  0.00  0.00    +0.000 C 
BRANCH  16  18
ATOM     17  C   UNL     1      -1.269  11.179  18.849  0.00  0.00    +0.000 C 
ATOM     18  C   UNL     1       0.030  10.390  18.885  0.00  0.00    +0.000 C 
ENDBRANCH  16  18
BRANCH  16  19
ATOM     19  C   UNL     1      -0.642   9.840  21.318  0.00  0.00    +0.000 C 
ATOM     20  C   UNL     1      -0.356  10.472  22.673  0.00  0.00    +0.000 C 
ENDBRANCH  16  19
ENDBRANCH   1  16
TORSDOF 4
ENDMDL
MODEL 9
REMARK VINA RESULT:      -6.3      0.723      1.727
REMARK  Name = 
REMARK  9 active torsions:
REMARK  status: ('A' for Active; 'I' for Inactive)
REMARK    1  A    between atoms: C_1  and  C_2
REMARK    2  A    between atoms: C_2  and  C_3
REMARK    3  A    between atoms: C_3  and  C_4
REMARK    4  A    between atoms: C_3  and  C_6
REMARK    5  A    between atoms: C_4  and  C_5
REMARK    6  A    between atoms: C_11  and  C_12
REMARK    7  A    between atoms: C_13  and  C_14
REMARK    8  A    between atoms: N_16  and  C_17
REMARK    9  A    between atoms: N_16  and  C_18
REMARK                            x       y       z     vdW  Elec       q    Type
REMARK                         _______ _______ _______ _____ _____    ______ ____
ROOT
ATOM      1  C   UNL     1       5.676   3.959  13.606  0.00  0.00    +0.000 C 
ATOM      2  O   UNL     1       4.496   4.247  13.785  0.00  0.00    +0.000 OA
ATOM      3  N   UNL     1       6.632   3.891  14.600  0.00  0.00    +0.000 N 
ATOM      4  C   UNL     1       6.394   4.143  15.931  0.00  0.00    +0.000 A 
ATOM      5  N   UNL     1       7.347   4.519  16.744  0.00  0.00    +0.000 NA
ATOM      6  C   UNL     1       6.823   4.850  18.002  0.00  0.00    +0.000 A 
ATOM      7  C   UNL     1       7.771   5.563  18.896  0.00  0.00    +0.000 C 
ATOM      8  C   UNL     1       5.475   4.535  18.169  0.00  0.00    +0.000 A 
ATOM      9  S   UNL     1       4.884   3.902  16.657  0.00  0.00    +0.000 S 
ATOM     10  H   UNL     1       7.609   3.944  14.361  0.00  0.00    +0.000 HD
ENDROOT
BRANCH   8  11
ATOM     11  C   UNL     1       4.449   4.711  19.203  0.00  0.00    +0.000 C 
ATOM     12  O   UNL     1       4.033   5.850  19.462  0.00  0.00    +0.000 OA
ATOM     13  N   UNL     1       3.861   3.634  19.888  0.00  0.00    +0.000 N 
ATOM     14  C   UNL     1       4.187   2.228  19.766  0.00  0.00    +0.000 C 
ATOM     15  C   UNL     1       2.764   3.919  20.812  0.00  0.00    +0.000 C 
ENDBRANCH   8  11
BRANCH   1  16
ATOM     16  C   UNL     1       6.190   3.603  12.195  0.00  0.00    +0.000 C 
BRANCH  16  18
ATOM     17  C   UNL     1       7.831   5.612  12.089  0.00  0.00    +0.000 C 
ATOM     18  C   UNL     1       7.651   4.102  12.057  0.00  0.00    +0.000 C 
ENDBRANCH  16  18
BRANCH  16  19
ATOM     19  C   UNL     1       6.012   2.120  11.812  0.00  0.00    +0.000 C 
ATOM     20  C   UNL     1       7.147   1.527  10.991  0.00  0.00    +0.000 C 
ENDBRANCH  16  19
ENDBRANCH   1  16
TORSDOF 4
ENDMDL
