MODEL 1
REMARK VINA RESULT:      -6.7      0.000      0.000
REMARK  Name = 
REMARK  3 active torsions:
REMARK  status: ('A' for Active; 'I' for Inactive)
REMARK    1  A    between atoms: C_1  and  N_2
REMARK    2  A    between atoms: N_2  and  C_3
REMARK    3  A    between atoms: N_9  and  C_10
REMARK                            x       y       z     vdW  Elec       q    Type
REMARK                         _______ _______ _______ _____ _____    ______ ____
ROOT
ATOM      1  C   UNL     1       1.279   9.851  19.183  0.00  0.00    +0.000 A 
ATOM      2  N   UNL     1       1.686   8.570  18.974  0.00  0.00    +0.000 NA
ATOM      3  C   UNL     1       1.722   7.642  19.956  0.00  0.00    +0.000 A 
ATOM      4  N   UNL     1       2.177   6.311  19.684  0.00  0.00    +0.000 N 
ATOM      5  C   UNL     1       2.643   5.916  18.361  0.00  0.00    +0.000 C 
ATOM      6  C   UNL     1       1.883   4.663  17.912  0.00  0.00    +0.000 C 
ATOM      7  N   UNL     1       2.046   3.607  18.932  0.00  0.00    +0.000 NA
ATOM      8  C   UNL     1       1.460   2.339  18.481  0.00  0.00    +0.000 C 
ATOM      9  C   UNL     1       1.454   4.048  20.214  0.00  0.00    +0.000 C 
ATOM     10  C   UNL     1       2.209   5.283  20.716  0.00  0.00    +0.000 C 
ATOM     11  N   UNL     1       1.381   8.008  21.216  0.00  0.00    +0.000 NA
ATOM     12  C   UNL     1       0.963   9.267  21.514  0.00  0.00    +0.000 A 
ATOM     13  C   UNL     1       0.867  10.242  20.496  0.00  0.00    +0.000 A 
ATOM     14  C   UNL     1       0.353  11.635  20.830  0.00  0.00    +0.000 C 
ATOM     15  C   UNL     1      -1.080  11.611  21.387  0.00  0.00    +0.000 C 
ATOM     16  N   UNL     1      -1.129  11.290  22.817  0.00  0.00    +0.000 NA
ATOM     17  C   UNL     1      -0.819   9.907  23.182  0.00  0.00    +0.000 C 
ATOM     18  C   UNL     1       0.647   9.553  22.956  0.00  0.00    +0.000 C 
ATOM     19  H   UNL     1      -2.107  11.481  23.145  0.00  0.00    +0.000 HD
ENDROOT
BRANCH   1  21
ATOM     20  C   UNL     1       2.426  11.718  17.973  0.00  0.00    +0.000 C 
ATOM     21  N   UNL     1       1.352  10.755  18.077  0.00  0.00    +0.000 N 
ATOM     22  H   UNL     1       0.615  10.819  17.369  0.00  0.00    +0.000 HD
ENDBRANCH   1  21
TORSDOF 1
ENDMDL
MODEL 2
REMARK VINA RESULT:      -6.5      2.042      7.246
REMARK  Name = 
REMARK  3 active torsions:
REMARK  status: ('A' for Active; 'I' for Inactive)
REMARK    1  A    between atoms: C_1  and  N_2
REMARK    2  A    between atoms: N_2  and  C_3
REMARK    3  A    between atoms: N_9  and  C_10
REMARK                            x       y       z     vdW  Elec       q    Type
REMARK                         _______ _______ _______ _____ _____    ______ ____
ROOT
ATOM      1  C   UNL     1       2.532   4.622  20.772  0.00  0.00    +0.000 A 
ATOM      2  N   UNL     1       2.034   5.888  20.768  0.00  0.00    +0.000 NA
ATOM      3  C   UNL     1       2.335   6.792  19.810  0.00  0.00    +0.000 A 
ATOM      4  N   UNL     1       1.798   8.118  19.865  0.00  0.00    +0.000 N 
ATOM      5  C   UNL     1       0.938   8.552  20.959  0.00  0.00    +0.000 C 
ATOM      6  C   UNL     1      -0.355   9.140  20.382  0.00  0.00    +0.000 C 
ATOM      7  N   UNL     1      -0.015  10.224  19.438  0.00  0.00    +0.000 NA
ATOM      8  C   UNL     1      -1.220  10.917  18.969  0.00  0.00    +0.000 C 
ATOM      9  C   UNL     1       0.768   9.679  18.306  0.00  0.00    +0.000 C 
ATOM     10  C   UNL     1       2.087   9.110  18.837  0.00  0.00    +0.000 C 
ATOM     11  N   UNL     1       3.206   6.443  18.831  0.00  0.00    +0.000 NA
ATOM     12  C   UNL     1       3.750   5.199  18.759  0.00  0.00    +0.000 A 
ATOM     13  C   UNL     1       3.411   4.220  19.718  0.00  0.00    +0.000 A 
ATOM     14  C   UNL     1       3.989   2.817  19.602  0.00  0.00    +0.000 C 
ATOM     15  C   UNL     1       3.590   2.128  18.287  0.00  0.00    +0.000 C 
ATOM     16  N   UNL     1       4.434   2.529  17.157  0.00  0.00    +0.000 NA
ATOM     17  C   UNL     1       4.245   3.892  16.658  0.00  0.00    +0.000 C 
ATOM     18  C   UNL     1       4.728   4.951  17.643  0.00  0.00    +0.000 C 
ATOM     19  H   UNL     1       4.217   1.879  16.361  0.00  0.00    +0.000 HD
ENDROOT
BRANCH   1  21
ATOM     20  C   UNL     1       1.352   2.619  21.699  0.00  0.00    +0.000 C 
ATOM     21  N   UNL     1       2.191   3.783  21.879  0.00  0.00    +0.000 N 
ATOM     22  H   UNL     1       2.448   4.012  22.844  0.00  0.00    +0.000 HD
ENDBRANCH   1  21
TORSDOF 1
ENDMDL
MODEL 3
REMARK VINA RESULT:      -6.0      8.433     11.018
REMARK  Name = 
REMARK  3 active torsions:
REMARK  status: ('A' for Active; 'I' for Inactive)
REMARK    1  A    between atoms: C_1  and  N_2
REMARK    2  A    between atoms: N_2  and  C_3
REMARK    3  A    between atoms: N_9  and  C_10
REMARK                            x       y       z     vdW  Elec       q    Type
REMARK                         _______ _______ _______ _____ _____    ______ ____
ROOT
ATOM      1  C   UNL     1       9.642  10.994  19.961  0.00  0.00    +0.000 A 
ATOM      2  N   UNL     1       9.051  11.272  21.155  0.00  0.00    +0.000 NA
ATOM      3  C   UNL     1       9.265  12.425  21.828  0.00  0.00    +0.000 A 
ATOM      4  N   UNL     1       8.631  12.657  23.092  0.00  0.00    +0.000 N 
ATOM      5  C   UNL     1       7.763  11.662  23.709  0.00  0.00    +0.000 C 
ATOM      6  C   UNL     1       6.419  12.311  24.057  0.00  0.00    +0.000 C 
ATOM      7  N   UNL     1       6.658  13.492  24.912  0.00  0.00    +0.000 NA
ATOM      8  C   UNL     1       5.395  14.064  25.393  0.00  0.00    +0.000 C 
ATOM      9  C   UNL     1       7.456  14.495  24.172  0.00  0.00    +0.000 C 
ATOM     10  C   UNL     1       8.825  13.897  23.833  0.00  0.00    +0.000 C 
ATOM     11  N   UNL     1      10.139  13.328  21.320  0.00  0.00    +0.000 NA
ATOM     12  C   UNL     1      10.773  13.130  20.134  0.00  0.00    +0.000 A 
ATOM     13  C   UNL     1      10.528  11.958  19.385  0.00  0.00    +0.000 A 
ATOM     14  C   UNL     1      11.206  11.769  18.036  0.00  0.00    +0.000 C 
ATOM     15  C   UNL     1      10.833  12.873  17.034  0.00  0.00    +0.000 C 
ATOM     16  N   UNL     1      11.622  14.096  17.216  0.00  0.00    +0.000 NA
ATOM     17  C   UNL     1      11.321  14.889  18.410  0.00  0.00    +0.000 C 
ATOM     18  C   UNL     1      11.744  14.194  19.700  0.00  0.00    +0.000 C 
ATOM     19  H   UNL     1      11.438  14.712  16.386  0.00  0.00    +0.000 HD
ENDROOT
BRANCH   1  21
ATOM     20  C   UNL     1       8.475   9.566  18.270  0.00  0.00    +0.000 C 
ATOM     21  N   UNL     1       9.388   9.712  19.382  0.00  0.00    +0.000 N 
ATOM     22  H   UNL     1       9.764   8.845  19.776  0.00  0.00    +0.000 HD
ENDBRANCH   1  21
TORSDOF 1
ENDMDL
MODEL 4
REMARK VINA RESULT:      -6.0      3.600      6.174
REMARK  Name = 
REMARK  3 active torsions:
REMARK  status: ('A' for Active; 'I' for Inactive)
REMARK    1  A    between atoms: C_1  and  N_2
REMARK    2  A    between atoms: N_2  and  C_3
REMARK    3  A    between atoms: N_9  and  C_10
REMARK                            x       y       z     vdW  Elec       q    Type
REMARK                         _______ _______ _______ _____ _____    ______ ____
ROOT
ATOM      1  C   UNL     1       2.951   6.435  19.083  0.00  0.00    +0.000 A 
ATOM      2  N   UNL     1       4.005   6.432  18.223  0.00  0.00    +0.000 NA
ATOM      3  C   UNL     1       4.807   5.358  18.049  0.00  0.00    +0.000 A 
ATOM      4  N   UNL     1       5.916   5.417  17.144  0.00  0.00    +0.000 N 
ATOM      5  C   UNL     1       6.238   6.630  16.403  0.00  0.00    +0.000 C 
ATOM      6  C   UNL     1       6.337   6.299  14.910  0.00  0.00    +0.000 C 
ATOM      7  N   UNL     1       7.324   5.215  14.720  0.00  0.00    +0.000 NA
ATOM      8  C   UNL     1       7.564   4.961  13.294  0.00  0.00    +0.000 C 
ATOM      9  C   UNL     1       6.868   3.991  15.415  0.00  0.00    +0.000 C 
ATOM     10  C   UNL     1       6.787   4.270  16.920  0.00  0.00    +0.000 C 
ATOM     11  N   UNL     1       4.585   4.248  18.794  0.00  0.00    +0.000 NA
ATOM     12  C   UNL     1       3.555   4.165  19.677  0.00  0.00    +0.000 A 
ATOM     13  C   UNL     1       2.670   5.254  19.839  0.00  0.00    +0.000 A 
ATOM     14  C   UNL     1       1.492   5.134  20.795  0.00  0.00    +0.000 C 
ATOM     15  C   UNL     1       0.533   3.999  20.401  0.00  0.00    +0.000 C 
ATOM     16  N   UNL     1       0.991   2.683  20.860  0.00  0.00    +0.000 NA
ATOM     17  C   UNL     1       2.154   2.124  20.168  0.00  0.00    +0.000 C 
ATOM     18  C   UNL     1       3.439   2.889  20.465  0.00  0.00    +0.000 C 
ATOM     19  H   UNL     1       0.198   2.011  20.716  0.00  0.00    +0.000 HD
ENDROOT
BRANCH   1  21
ATOM     20  C   UNL     1       2.108   8.589  18.127  0.00  0.00    +0.000 C 
ATOM     21  N   UNL     1       2.220   7.656  19.226  0.00  0.00    +0.000 N 
ATOM     22  H   UNL     1       1.825   7.960  20.121  0.00  0.00    +0.000 HD
ENDBRANCH   1  21
TORSDOF 1
ENDMDL
MODEL 5
REMARK VINA RESULT:      -5.9      0.885      1.003
REMARK  Name = 
REMARK  3 active torsions:
REMARK  status: ('A' for Active; 'I' for Inactive)
REMARK    1  A    between atoms: C_1  and  N_2
REMARK    2  A    between atoms: N_2  and  C_3
REMARK    3  A    between atoms: N_9  and  C_10
REMARK                            x       y       z     vdW  Elec       q    Type
REMARK                         _______ _______ _______ _____ _____    ______ ____
ROOT
ATOM      1  C   UNL     1       0.864   9.543  19.081  0.00  0.00    +0.000 A 
ATOM      2  N   UNL     1       1.397   8.328  18.780  0.00  0.00    +0.000 NA
ATOM      3  C   UNL     1       1.853   7.473  19.722  0.00  0.00    +0.000 A 
ATOM      4  N   UNL     1       2.422   6.213  19.347  0.00  0.00    +0.000 N 
ATOM      5  C   UNL     1       2.557   5.818  17.950  0.00  0.00    +0.000 C 
ATOM      6  C   UNL     1       1.913   4.441  17.751  0.00  0.00    +0.000 C 
ATOM      7  N   UNL     1       2.522   3.481  18.694  0.00  0.00    +0.000 NA
ATOM      8  C   UNL     1       2.044   2.116  18.444  0.00  0.00    +0.000 C 
ATOM      9  C   UNL     1       2.248   3.900  20.086  0.00  0.00    +0.000 C 
ATOM     10  C   UNL     1       2.905   5.261  20.339  0.00  0.00    +0.000 C 
ATOM     11  N   UNL     1       1.823   7.855  21.022  0.00  0.00    +0.000 NA
ATOM     12  C   UNL     1       1.309   9.051  21.412  0.00  0.00    +0.000 A 
ATOM     13  C   UNL     1       0.777   9.941  20.453  0.00  0.00    +0.000 A 
ATOM     14  C   UNL     1       0.160  11.257  20.903  0.00  0.00    +0.000 C 
ATOM     15  C   UNL     1      -1.037  11.049  21.844  0.00  0.00    +0.000 C 
ATOM     16  N   UNL     1      -0.632  10.806  23.234  0.00  0.00    +0.000 NA
ATOM     17  C   UNL     1      -0.015   9.508  23.511  0.00  0.00    +0.000 C 
ATOM     18  C   UNL     1       1.367   9.367  22.881  0.00  0.00    +0.000 C 
ATOM     19  H   UNL     1      -1.498  10.866  23.824  0.00  0.00    +0.000 HD
ENDROOT
BRANCH   1  21
ATOM     20  C   UNL     1      -0.894  10.434  17.539  0.00  0.00    +0.000 C 
ATOM     21  N   UNL     1       0.479  10.384  17.990  0.00  0.00    +0.000 N 
ATOM     22  H   UNL     1       1.159  10.910  17.434  0.00  0.00    +0.000 HD
ENDBRANCH   1  21
TORSDOF 1
ENDMDL
MODEL 6
REMARK VINA RESULT:      -5.9      8.196     11.113
REMARK  Name = 
REMARK  3 active torsions:
REMARK  status: ('A' for Active; 'I' for Inactive)
REMARK    1  A    between atoms: C_1  and  N_2
REMARK    2  A    between atoms: N_2  and  C_3
REMARK    3  A    between atoms: N_9  and  C_10
REMARK                            x       y       z     vdW  Elec       q    Type
REMARK                         _______ _______ _______ _____ _____    ______ ____
ROOT
ATOM      1  C   UNL     1       9.269  13.026  21.010  0.00  0.00    +0.000 A 
ATOM      2  N   UNL     1       8.103  13.722  20.912  0.00  0.00    +0.000 NA
ATOM      3  C   UNL     1       7.817  14.530  19.867  0.00  0.00    +0.000 A 
ATOM      4  N   UNL     1       6.582  15.254  19.824  0.00  0.00    +0.000 N 
ATOM      5  C   UNL     1       5.608  15.173  20.906  0.00  0.00    +0.000 C 
ATOM      6  C   UNL     1       4.239  14.797  20.325  0.00  0.00    +0.000 C 
ATOM      7  N   UNL     1       3.874  15.773  19.278  0.00  0.00    +0.000 NA
ATOM      8  C   UNL     1       2.508  15.543  18.793  0.00  0.00    +0.000 C 
ATOM      9  C   UNL     1       4.855  15.715  18.172  0.00  0.00    +0.000 C 
ATOM     10  C   UNL     1       6.234  16.117  18.703  0.00  0.00    +0.000 C 
ATOM     11  N   UNL     1       8.745  14.694  18.892  0.00  0.00    +0.000 NA
ATOM     12  C   UNL     1       9.935  14.038  18.911  0.00  0.00    +0.000 A 
ATOM     13  C   UNL     1      10.238  13.147  19.965  0.00  0.00    +0.000 A 
ATOM     14  C   UNL     1      11.553  12.382  19.953  0.00  0.00    +0.000 C 
ATOM     15  C   UNL     1      11.690  11.476  18.719  0.00  0.00    +0.000 C 
ATOM     16  N   UNL     1      12.144  12.202  17.528  0.00  0.00    +0.000 NA
ATOM     17  C   UNL     1      11.177  13.116  16.918  0.00  0.00    +0.000 C 
ATOM     18  C   UNL     1      10.890  14.335  17.788  0.00  0.00    +0.000 C 
ATOM     19  H   UNL     1      12.388  11.485  16.800  0.00  0.00    +0.000 HD
ENDROOT
BRANCH   1  21
ATOM     20  C   UNL     1       8.377  11.611  22.872  0.00  0.00    +0.000 C 
ATOM     21  N   UNL     1       9.481  12.259  22.198  0.00  0.00    +0.000 N 
ATOM     22  H   UNL     1      10.391  12.206  22.664  0.00  0.00    +0.000 HD
ENDBRANCH   1  21
TORSDOF 1
ENDMDL
MODEL 7
REMARK VINA RESULT:      -5.7      8.886     11.067
REMARK  Name = 
REMARK  3 active torsions:
REMARK  status: ('A' for Active; 'I' for Inactive)
REMARK    1  A    between atoms: C_1  and  N_2
REMARK    2  A    between atoms: N_2  and  C_3
REMARK    3  A    between atoms: N_9  and  C_10
REMARK                            x       y       z     vdW  Elec       q    Type
REMARK                         _______ _______ _______ _____ _____    ______ ____
ROOT
ATOM      1  C   UNL     1       9.212  15.021  19.398  0.00  0.00    +0.000 A 
ATOM      2  N   UNL     1       8.571  14.716  20.559  0.00  0.00    +0.000 NA
ATOM      3  C   UNL     1       8.523  13.463  21.063  0.00  0.00    +0.000 A 
ATOM      4  N   UNL     1       7.818  13.194  22.280  0.00  0.00    +0.000 N 
ATOM      5  C   UNL     1       7.107  14.242  23.001  0.00  0.00    +0.000 C 
ATOM      6  C   UNL     1       7.574  14.256  24.461  0.00  0.00    +0.000 C 
ATOM      7  N   UNL     1       7.386  12.911  25.043  0.00  0.00    +0.000 NA
ATOM      8  C   UNL     1       7.681  12.909  26.480  0.00  0.00    +0.000 C 
ATOM      9  C   UNL     1       8.222  11.928  24.319  0.00  0.00    +0.000 C 
ATOM     10  C   UNL     1       7.764  11.858  22.859  0.00  0.00    +0.000 C 
ATOM     11  N   UNL     1       9.099  12.454  20.363  0.00  0.00    +0.000 NA
ATOM     12  C   UNL     1       9.759  12.669  19.195  0.00  0.00    +0.000 A 
ATOM     13  C   UNL     1       9.869  13.978  18.673  0.00  0.00    +0.000 A 
ATOM     14  C   UNL     1      10.650  14.216  17.390  0.00  0.00    +0.000 C 
ATOM     15  C   UNL     1      12.124  13.798  17.517  0.00  0.00    +0.000 C 
ATOM     16  N   UNL     1      12.325  12.357  17.328  0.00  0.00    +0.000 NA
ATOM     17  C   UNL     1      11.844  11.489  18.404  0.00  0.00    +0.000 C 
ATOM     18  C   UNL     1      10.323  11.460  18.502  0.00  0.00    +0.000 C 
ATOM     19  H   UNL     1      13.358  12.195  17.243  0.00  0.00    +0.000 HD
ENDROOT
BRANCH   1  21
ATOM     20  C   UNL     1       7.862  16.958  18.567  0.00  0.00    +0.000 C 
ATOM     21  N   UNL     1       9.132  16.373  18.937  0.00  0.00    +0.000 N 
ATOM     22  H   UNL     1       9.963  16.947  18.767  0.00  0.00    +0.000 HD
ENDBRANCH   1  21
TORSDOF 1
ENDMDL
MODEL 8
REMARK VINA RESULT:      -5.7      5.210      7.529
REMARK  Name = 
REMARK  3 active torsions:
REMARK  status: ('A' for Active; 'I' for Inactive)
REMARK    1  A    between atoms: C_1  and  N_2
REMARK    2  A    between atoms: N_2  and  C_3
REMARK    3  A    between atoms: N_9  and  C_10
REMARK                            x       y       z     vdW  Elec       q    Type
REMARK                         _______ _______ _______ _____ _____    ______ ____
ROOT
ATOM      1  C   UNL     1      -2.921  12.408  19.776  0.00  0.00    +0.000 A 
ATOM      2  N   UNL     1      -1.631  12.724  20.071  0.00  0.00    +0.000 NA
ATOM      3  C   UNL     1      -0.583  12.295  19.333  0.00  0.00    +0.000 A 
ATOM      4  N   UNL     1       0.757  12.642  19.701  0.00  0.00    +0.000 N 
ATOM      5  C   UNL     1       1.044  13.439  20.888  0.00  0.00    +0.000 C 
ATOM      6  C   UNL     1       1.919  14.634  20.493  0.00  0.00    +0.000 C 
ATOM      7  N   UNL     1       3.132  14.141  19.809  0.00  0.00    +0.000 NA
ATOM      8  C   UNL     1       4.072  15.236  19.542  0.00  0.00    +0.000 C 
ATOM      9  C   UNL     1       2.757  13.438  18.563  0.00  0.00    +0.000 C 
ATOM     10  C   UNL     1       1.907  12.213  18.915  0.00  0.00    +0.000 C 
ATOM     11  N   UNL     1      -0.817  11.477  18.277  0.00  0.00    +0.000 NA
ATOM     12  C   UNL     1      -2.074  11.111  17.912  0.00  0.00    +0.000 A 
ATOM     13  C   UNL     1      -3.190  11.588  18.635  0.00  0.00    +0.000 A 
ATOM     14  C   UNL     1      -4.595  11.211  18.190  0.00  0.00    +0.000 C 
ATOM     15  C   UNL     1      -4.906  11.696  16.765  0.00  0.00    +0.000 C 
ATOM     16  N   UNL     1      -4.378  10.799  15.731  0.00  0.00    +0.000 NA
ATOM     17  C   UNL     1      -2.925  10.794  15.558  0.00  0.00    +0.000 C 
ATOM     18  C   UNL     1      -2.194  10.173  16.743  0.00  0.00    +0.000 C 
ATOM     19  H   UNL     1      -4.794  11.101  14.815  0.00  0.00    +0.000 HD
ENDROOT
BRANCH   1  21
ATOM     20  C   UNL     1      -3.750  12.790  22.106  0.00  0.00    +0.000 C 
ATOM     21  N   UNL     1      -3.935  12.867  20.674  0.00  0.00    +0.000 N 
ATOM     22  H   UNL     1      -4.853  13.184  20.352  0.00  0.00    +0.000 HD
ENDBRANCH   1  21
TORSDOF 1
ENDMDL
MODEL 9
REMARK VINA RESULT:      -5.7      4.306      6.576
REMARK  Name = 
REMARK  3 active torsions:
REMARK  status: ('A' for Active; 'I' for Inactive)
REMARK    1  A    between atoms: C_1  and  N_2
REMARK    2  A    between atoms: N_2  and  C_3
REMARK    3  A    between atoms: N_9  and  C_10
REMARK                            x       y       z     vdW  Elec       q    Type
REMARK                         _______ _______ _______ _____ _____    ______ ____
ROOT
ATOM      1  C   UNL     1      -3.510  11.610  17.447  0.00  0.00    +0.000 A 
ATOM      2  N   UNL     1      -2.366  11.419  18.160  0.00  0.00    +0.000 NA
ATOM      3  C   UNL     1      -2.250  11.753  19.464  0.00  0.00    +0.000 A 
ATOM      4  N   UNL     1      -1.016  11.547  20.161  0.00  0.00    +0.000 N 
ATOM      5  C   UNL     1       0.160  11.001  19.493  0.00  0.00    +0.000 C 
ATOM      6  C   UNL     1       0.679   9.798  20.289  0.00  0.00    +0.000 C 
ATOM      7  N   UNL     1       0.935  10.213  21.683  0.00  0.00    +0.000 NA
ATOM      8  C   UNL     1       1.571   9.135  22.449  0.00  0.00    +0.000 C 
ATOM      9  C   UNL     1      -0.327  10.652  22.318  0.00  0.00    +0.000 C 
ATOM     10  C   UNL     1      -0.864  11.878  21.572  0.00  0.00    +0.000 C 
ATOM     11  N   UNL     1      -3.299  12.346  20.084  0.00  0.00    +0.000 NA
ATOM     12  C   UNL     1      -4.479  12.576  19.448  0.00  0.00    +0.000 A 
ATOM     13  C   UNL     1      -4.644  12.188  18.100  0.00  0.00    +0.000 A 
ATOM     14  C   UNL     1      -5.983  12.405  17.410  0.00  0.00    +0.000 C 
ATOM     15  C   UNL     1      -7.127  11.648  18.103  0.00  0.00    +0.000 C 
ATOM     16  N   UNL     1      -7.655  12.361  19.272  0.00  0.00    +0.000 NA
ATOM     17  C   UNL     1      -6.788  12.405  20.450  0.00  0.00    +0.000 C 
ATOM     18  C   UNL     1      -5.551  13.272  20.239  0.00  0.00    +0.000 C 
ATOM     19  H   UNL     1      -8.539  11.873  19.560  0.00  0.00    +0.000 HD
ENDROOT
BRANCH   1  21
ATOM     20  C   UNL     1      -2.695  10.166  15.573  0.00  0.00    +0.000 C 
ATOM     21  N   UNL     1      -3.484  11.277  16.057  0.00  0.00    +0.000 N 
ATOM     22  H   UNL     1      -3.944  11.851  15.344  0.00  0.00    +0.000 HD
ENDBRANCH   1  21
TORSDOF 1
ENDMDL
