MODEL 1
REMARK VINA RESULT:      -7.8      0.000      0.000
REMARK  Name = 
REMARK  8 active torsions:
REMARK  status: ('A' for Active; 'I' for Inactive)
REMARK    1  A    between atoms: C_1  and  O_2
REMARK    2  A    between atoms: O_2  and  C_3
REMARK    3  A    between atoms: C_8  and  C_9
REMARK    4  A    between atoms: N_11  and  C_12
REMARK    5  A    between atoms: C_12  and  N_14
REMARK    6  A    between atoms: N_14  and  C_15
REMARK    7  A    between atoms: C_18  and  S_19
REMARK    8  A    between atoms: S_19  and  N_20
REMARK                            x       y       z     vdW  Elec       q    Type
REMARK                         _______ _______ _______ _____ _____    ______ ____
ROOT
ATOM      1  C   UNL     1       2.452   5.012  19.662  0.00  0.00    +0.000 C 
ATOM      2  S   UNL     1       1.406   3.742  19.971  0.00  0.00    +0.000 S 
ENDROOT
BRANCH   1   5
ATOM      3  C   UNL     1       4.559   4.230  18.602  0.00  0.00    +0.000 C 
ATOM      4  O   UNL     1       4.919   3.521  19.545  0.00  0.00    +0.000 OA
ATOM      5  N   UNL     1       3.337   4.880  18.599  0.00  0.00    +0.000 N 
ATOM      6  H   UNL     1       3.084   5.398  17.766  0.00  0.00    +0.000 HD
BRANCH   3  12
ATOM      7  C   UNL     1       6.827   4.648  17.411  0.00  0.00    +0.000 A 
ATOM      8  C   UNL     1       7.500   4.784  16.182  0.00  0.00    +0.000 A 
ATOM      9  C   UNL     1       6.838   4.585  14.969  0.00  0.00    +0.000 A 
ATOM     10  C   UNL     1       5.495   4.249  14.958  0.00  0.00    +0.000 A 
ATOM     11  C   UNL     1       4.808   4.138  16.165  0.00  0.00    +0.000 A 
ATOM     12  C   UNL     1       5.451   4.351  17.402  0.00  0.00    +0.000 A 
BRANCH   7  14
ATOM     13  C   UNL     1       7.900   6.138  18.926  0.00  0.00    +0.000 C 
ATOM     14  O   UNL     1       7.458   4.810  18.622  0.00  0.00    +0.000 OA
ENDBRANCH   7  14
ENDBRANCH   3  12
ENDBRANCH   1   5
BRANCH   1  15
ATOM     15  N   UNL     1       2.564   6.180  20.382  0.00  0.00    +0.000 N 
ATOM     16  H   UNL     1       3.240   6.138  21.147  0.00  0.00    +0.000 HD
BRANCH  15  17
ATOM     17  C   UNL     1       2.023   7.458  20.143  0.00  0.00    +0.000 A 
ATOM     18  C   UNL     1       2.168   8.003  18.860  0.00  0.00    +0.000 A 
ATOM     19  C   UNL     1       1.516   9.190  18.512  0.00  0.00    +0.000 A 
ATOM     20  C   UNL     1       0.670   9.800  19.442  0.00  0.00    +0.000 A 
ATOM     21  C   UNL     1       0.542   9.284  20.731  0.00  0.00    +0.000 A 
ATOM     22  C   UNL     1       1.226   8.118  21.082  0.00  0.00    +0.000 A 
BRANCH  20  23
ATOM     23  S   UNL     1      -0.283  11.210  18.966  0.00  0.00    +0.000 S 
ATOM     24  O   UNL     1      -1.378  11.389  19.887  0.00  0.00    +0.000 OA
ATOM     25  O   UNL     1       0.607  12.286  18.590  0.00  0.00    +0.000 OA
BRANCH  23  26
ATOM     26  N   UNL     1      -0.972  10.661  17.531  0.00  0.00    +0.000 NA
ATOM     27  H   UNL     1      -1.126   9.654  17.577  0.00  0.00    +0.000 HD
ATOM     28  H   UNL     1      -1.804  11.204  17.307  0.00  0.00    +0.000 HD
ENDBRANCH  23  26
ENDBRANCH  20  23
ENDBRANCH  15  17
ENDBRANCH   1  15
TORSDOF 7
ENDMDL
MODEL 2
REMARK VINA RESULT:      -7.4      3.263      8.403
REMARK  Name = 
REMARK  8 active torsions:
REMARK  status: ('A' for Active; 'I' for Inactive)
REMARK    1  A    between atoms: C_1  and  O_2
REMARK    2  A    between atoms: O_2  and  C_3
REMARK    3  A    between atoms: C_8  and  C_9
REMARK    4  A    between atoms: N_11  and  C_12
REMARK    5  A    between atoms: C_12  and  N_14
REMARK    6  A    between atoms: N_14  and  C_15
REMARK    7  A    between atoms: C_18  and  S_19
REMARK    8  A    between atoms: S_19  and  N_20
REMARK                            x       y       z     vdW  Elec       q    Type
REMARK                         _______ _______ _______ _____ _____    ______ ____
ROOT
ATOM      1  C   UNL     1       0.748   9.074  20.934  0.00  0.00    +0.000 C 
ATOM      2  S   UNL     1       0.618   9.410  22.568  0.00  0.00    +0.000 S 
ENDROOT
BRANCH   1   5
ATOM      3  C   UNL     1      -0.269  10.003  18.866  0.00  0.00    +0.000 C 
ATOM      4  O   UNL     1       0.793  10.141  18.254  0.00  0.00    +0.000 OA
ATOM      5  N   UNL     1      -0.323   9.409  20.115  0.00  0.00    +0.000 N 
ATOM      6  H   UNL     1      -1.237   9.277  20.532  0.00  0.00    +0.000 HD
BRANCH   3  12
ATOM      7  C   UNL     1      -2.475  11.366  18.742  0.00  0.00    +0.000 A 
ATOM      8  C   UNL     1      -3.657  11.624  18.023  0.00  0.00    +0.000 A 
ATOM      9  C   UNL     1      -3.895  11.023  16.785  0.00  0.00    +0.000 A 
ATOM     10  C   UNL     1      -2.963  10.155  16.243  0.00  0.00    +0.000 A 
ATOM     11  C   UNL     1      -1.801   9.867  16.957  0.00  0.00    +0.000 A 
ATOM     12  C   UNL     1      -1.546  10.448  18.216  0.00  0.00    +0.000 A 
BRANCH   7  14
ATOM     13  C   UNL     1      -1.526  13.225  19.888  0.00  0.00    +0.000 C 
ATOM     14  O   UNL     1      -2.200  11.963  19.950  0.00  0.00    +0.000 OA
ENDBRANCH   7  14
ENDBRANCH   3  12
ENDBRANCH   1   5
BRANCH   1  15
ATOM     15  N   UNL     1       1.802   8.452  20.302  0.00  0.00    +0.000 N 
ATOM     16  H   UNL     1       2.630   9.040  20.192  0.00  0.00    +0.000 HD
BRANCH  15  17
ATOM     17  C   UNL     1       1.978   7.107  19.927  0.00  0.00    +0.000 A 
ATOM     18  C   UNL     1       1.480   6.116  20.785  0.00  0.00    +0.000 A 
ATOM     19  C   UNL     1       1.477   4.773  20.395  0.00  0.00    +0.000 A 
ATOM     20  C   UNL     1       1.927   4.434  19.116  0.00  0.00    +0.000 A 
ATOM     21  C   UNL     1       2.453   5.406  18.267  0.00  0.00    +0.000 A 
ATOM     22  C   UNL     1       2.486   6.741  18.678  0.00  0.00    +0.000 A 
BRANCH  20  23
ATOM     23  S   UNL     1       1.783   2.765  18.551  0.00  0.00    +0.000 S 
ATOM     24  O   UNL     1       2.808   1.956  19.160  0.00  0.00    +0.000 OA
ATOM     25  O   UNL     1       0.389   2.382  18.537  0.00  0.00    +0.000 OA
BRANCH  23  26
ATOM     26  N   UNL     1       2.228   2.936  16.936  0.00  0.00    +0.000 NA
ATOM     27  H   UNL     1       1.737   3.725  16.517  0.00  0.00    +0.000 HD
ATOM     28  H   UNL     1       3.242   2.977  16.850  0.00  0.00    +0.000 HD
ENDBRANCH  23  26
ENDBRANCH  20  23
ENDBRANCH  15  17
ENDBRANCH   1  15
TORSDOF 7
ENDMDL
MODEL 3
REMARK VINA RESULT:      -7.3      1.299      1.695
REMARK  Name = 
REMARK  8 active torsions:
REMARK  status: ('A' for Active; 'I' for Inactive)
REMARK    1  A    between atoms: C_1  and  O_2
REMARK    2  A    between atoms: O_2  and  C_3
REMARK    3  A    between atoms: C_8  and  C_9
REMARK    4  A    between atoms: N_11  and  C_12
REMARK    5  A    between atoms: C_12  and  N_14
REMARK    6  A    between atoms: N_14  and  C_15
REMARK    7  A    between atoms: C_18  and  S_19
REMARK    8  A    between atoms: S_19  and  N_20
REMARK                            x       y       z     vdW  Elec       q    Type
REMARK                         _______ _______ _______ _____ _____    ______ ____
ROOT
ATOM      1  C   UNL     1       2.606   5.901  20.138  0.00  0.00    +0.000 C 
ATOM      2  S   UNL     1       1.793   4.541  20.674  0.00  0.00    +0.000 S 
ENDROOT
BRANCH   1   5
ATOM      3  C   UNL     1       3.603   5.030  18.035  0.00  0.00    +0.000 C 
ATOM      4  O   UNL     1       2.542   4.634  17.547  0.00  0.00    +0.000 OA
ATOM      5  N   UNL     1       3.645   5.722  19.233  0.00  0.00    +0.000 N 
ATOM      6  H   UNL     1       4.546   6.067  19.543  0.00  0.00    +0.000 HD
BRANCH   3  12
ATOM      7  C   UNL     1       6.178   4.770  17.830  0.00  0.00    +0.000 A 
ATOM      8  C   UNL     1       7.275   4.599  16.966  0.00  0.00    +0.000 A 
ATOM      9  C   UNL     1       7.093   4.413  15.594  0.00  0.00    +0.000 A 
ATOM     10  C   UNL     1       5.816   4.395  15.059  0.00  0.00    +0.000 A 
ATOM     11  C   UNL     1       4.721   4.592  15.897  0.00  0.00    +0.000 A 
ATOM     12  C   UNL     1       4.880   4.798  17.283  0.00  0.00    +0.000 A 
BRANCH   7  14
ATOM     13  C   UNL     1       7.511   5.605  19.618  0.00  0.00    +0.000 C 
ATOM     14  O   UNL     1       6.324   4.927  19.188  0.00  0.00    +0.000 OA
ENDBRANCH   7  14
ENDBRANCH   3  12
ENDBRANCH   1   5
BRANCH   1  15
ATOM     15  N   UNL     1       2.385   7.202  20.531  0.00  0.00    +0.000 N 
ATOM     16  H   UNL     1       3.033   7.540  21.246  0.00  0.00    +0.000 HD
BRANCH  15  17
ATOM     17  C   UNL     1       1.523   8.184  20.005  0.00  0.00    +0.000 A 
ATOM     18  C   UNL     1       0.581   8.759  20.869  0.00  0.00    +0.000 A 
ATOM     19  C   UNL     1      -0.192   9.849  20.455  0.00  0.00    +0.000 A 
ATOM     20  C   UNL     1       0.025  10.395  19.187  0.00  0.00    +0.000 A 
ATOM     21  C   UNL     1       0.937   9.812  18.309  0.00  0.00    +0.000 A 
ATOM     22  C   UNL     1       1.679   8.701  18.717  0.00  0.00    +0.000 A 
BRANCH  20  23
ATOM     23  S   UNL     1      -0.829  11.867  18.710  0.00  0.00    +0.000 S 
ATOM     24  O   UNL     1      -1.724  11.577  17.619  0.00  0.00    +0.000 OA
ATOM     25  O   UNL     1      -1.245  12.586  19.893  0.00  0.00    +0.000 OA
BRANCH  23  26
ATOM     26  N   UNL     1       0.431  12.767  18.046  0.00  0.00    +0.000 NA
ATOM     27  H   UNL     1       0.836  13.381  18.752  0.00  0.00    +0.000 HD
ATOM     28  H   UNL     1       1.102  12.152  17.588  0.00  0.00    +0.000 HD
ENDBRANCH  23  26
ENDBRANCH  20  23
ENDBRANCH  15  17
ENDBRANCH   1  15
TORSDOF 7
ENDMDL
MODEL 4
REMARK VINA RESULT:      -7.3      1.019      1.426
REMARK  Name = 
REMARK  8 active torsions:
REMARK  status: ('A' for Active; 'I' for Inactive)
REMARK    1  A    between atoms: C_1  and  O_2
REMARK    2  A    between atoms: O_2  and  C_3
REMARK    3  A    between atoms: C_8  and  C_9
REMARK    4  A    between atoms: N_11  and  C_12
REMARK    5  A    between atoms: C_12  and  N_14
REMARK    6  A    between atoms: N_14  and  C_15
REMARK    7  A    between atoms: C_18  and  S_19
REMARK    8  A    between atoms: S_19  and  N_20
REMARK                            x       y       z     vdW  Elec       q    Type
REMARK                         _______ _______ _______ _____ _____    ______ ____
ROOT
ATOM      1  C   UNL     1       2.715   4.636  20.245  0.00  0.00    +0.000 C 
ATOM      2  S   UNL     1       2.101   3.109  20.543  0.00  0.00    +0.000 S 
ENDROOT
BRANCH   1   5
ATOM      3  C   UNL     1       3.723   4.288  18.000  0.00  0.00    +0.000 C 
ATOM      4  O   UNL     1       2.700   3.852  17.468  0.00  0.00    +0.000 OA
ATOM      5  N   UNL     1       3.730   4.755  19.303  0.00  0.00    +0.000 N 
ATOM      6  H   UNL     1       4.594   5.152  19.654  0.00  0.00    +0.000 HD
BRANCH   3  12
ATOM      7  C   UNL     1       6.281   4.609  17.691  0.00  0.00    +0.000 A 
ATOM      8  C   UNL     1       7.351   4.702  16.782  0.00  0.00    +0.000 A 
ATOM      9  C   UNL     1       7.155   4.506  15.413  0.00  0.00    +0.000 A 
ATOM     10  C   UNL     1       5.892   4.215  14.927  0.00  0.00    +0.000 A 
ATOM     11  C   UNL     1       4.818   4.148  15.811  0.00  0.00    +0.000 A 
ATOM     12  C   UNL     1       4.987   4.359  17.195  0.00  0.00    +0.000 A 
BRANCH   7  14
ATOM     13  C   UNL     1       7.520   5.627  19.451  0.00  0.00    +0.000 C 
ATOM     14  O   UNL     1       6.447   4.769  19.047  0.00  0.00    +0.000 OA
ENDBRANCH   7  14
ENDBRANCH   3  12
ENDBRANCH   1   5
BRANCH   1  15
ATOM     15  N   UNL     1       2.351   5.808  20.870  0.00  0.00    +0.000 N 
ATOM     16  H   UNL     1       2.578   5.841  21.865  0.00  0.00    +0.000 HD
BRANCH  15  17
ATOM     17  C   UNL     1       1.863   7.016  20.336  0.00  0.00    +0.000 A 
ATOM     18  C   UNL     1       1.146   7.867  21.188  0.00  0.00    +0.000 A 
ATOM     19  C   UNL     1       0.777   9.148  20.768  0.00  0.00    +0.000 A 
ATOM     20  C   UNL     1       1.178   9.594  19.506  0.00  0.00    +0.000 A 
ATOM     21  C   UNL     1       1.864   8.745  18.638  0.00  0.00    +0.000 A 
ATOM     22  C   UNL     1       2.197   7.454  19.052  0.00  0.00    +0.000 A 
BRANCH  20  23
ATOM     23  S   UNL     1       0.857  11.264  19.023  0.00  0.00    +0.000 S 
ATOM     24  O   UNL     1       0.298  11.992  20.134  0.00  0.00    +0.000 OA
ATOM     25  O   UNL     1       1.968  11.760  18.243  0.00  0.00    +0.000 OA
BRANCH  23  26
ATOM     26  N   UNL     1      -0.408  11.043  17.933  0.00  0.00    +0.000 NA
ATOM     27  H   UNL     1      -0.659  11.932  17.500  0.00  0.00    +0.000 HD
ATOM     28  H   UNL     1      -0.180  10.302  17.271  0.00  0.00    +0.000 HD
ENDBRANCH  23  26
ENDBRANCH  20  23
ENDBRANCH  15  17
ENDBRANCH   1  15
TORSDOF 7
ENDMDL
MODEL 5
REMARK VINA RESULT:      -7.3      3.023      8.610
REMARK  Name = 
REMARK  8 active torsions:
REMARK  status: ('A' for Active; 'I' for Inactive)
REMARK    1  A    between atoms: C_1  and  O_2
REMARK    2  A    between atoms: O_2  and  C_3
REMARK    3  A    between atoms: C_8  and  C_9
REMARK    4  A    between atoms: N_11  and  C_12
REMARK    5  A    between atoms: C_12  and  N_14
REMARK    6  A    between atoms: N_14  and  C_15
REMARK    7  A    between atoms: C_18  and  S_19
REMARK    8  A    between atoms: S_19  and  N_20
REMARK                            x       y       z     vdW  Elec       q    Type
REMARK                         _______ _______ _______ _____ _____    ______ ____
ROOT
ATOM      1  C   UNL     1       0.947   9.004  20.647  0.00  0.00    +0.000 C 
ATOM      2  S   UNL     1       1.057   9.379  22.274  0.00  0.00    +0.000 S 
ENDROOT
BRANCH   1   5
ATOM      3  C   UNL     1      -0.277   9.902  18.680  0.00  0.00    +0.000 C 
ATOM      4  O   UNL     1       0.689   9.890  17.914  0.00  0.00    +0.000 OA
ATOM      5  N   UNL     1      -0.199   9.397  19.966  0.00  0.00    +0.000 N 
ATOM      6  H   UNL     1      -1.048   9.388  20.519  0.00  0.00    +0.000 HD
BRANCH   3  12
ATOM      7  C   UNL     1      -2.428  11.344  18.861  0.00  0.00    +0.000 A 
ATOM      8  C   UNL     1      -3.659  11.695  18.277  0.00  0.00    +0.000 A 
ATOM      9  C   UNL     1      -4.035  11.194  17.029  0.00  0.00    +0.000 A 
ATOM     10  C   UNL     1      -3.193  10.337  16.342  0.00  0.00    +0.000 A 
ATOM     11  C   UNL     1      -1.983   9.958  16.920  0.00  0.00    +0.000 A 
ATOM     12  C   UNL     1      -1.589  10.437  18.187  0.00  0.00    +0.000 A 
BRANCH   7  14
ATOM     13  C   UNL     1      -2.387  13.197  20.356  0.00  0.00    +0.000 C 
ATOM     14  O   UNL     1      -2.018  11.842  20.077  0.00  0.00    +0.000 OA
ENDBRANCH   7  14
ENDBRANCH   3  12
ENDBRANCH   1   5
BRANCH   1  15
ATOM     15  N   UNL     1       1.864   8.299  19.901  0.00  0.00    +0.000 N 
ATOM     16  H   UNL     1       2.537   8.884  19.401  0.00  0.00    +0.000 HD
BRANCH  15  17
ATOM     17  C   UNL     1       2.123   6.916  19.836  0.00  0.00    +0.000 A 
ATOM     18  C   UNL     1       3.014   6.461  18.855  0.00  0.00    +0.000 A 
ATOM     19  C   UNL     1       3.438   5.128  18.842  0.00  0.00    +0.000 A 
ATOM     20  C   UNL     1       3.006   4.266  19.853  0.00  0.00    +0.000 A 
ATOM     21  C   UNL     1       2.095   4.700  20.815  0.00  0.00    +0.000 A 
ATOM     22  C   UNL     1       1.648   6.023  20.800  0.00  0.00    +0.000 A 
BRANCH  20  23
ATOM     23  S   UNL     1       3.655   2.624  19.941  0.00  0.00    +0.000 S 
ATOM     24  O   UNL     1       3.738   2.209  21.319  0.00  0.00    +0.000 OA
ATOM     25  O   UNL     1       3.045   1.811  18.914  0.00  0.00    +0.000 OA
BRANCH  23  26
ATOM     26  N   UNL     1       5.243   2.881  19.441  0.00  0.00    +0.000 NA
ATOM     27  H   UNL     1       5.757   3.399  20.153  0.00  0.00    +0.000 HD
ATOM     28  H   UNL     1       5.675   2.000  19.166  0.00  0.00    +0.000 HD
ENDBRANCH  23  26
ENDBRANCH  20  23
ENDBRANCH  15  17
ENDBRANCH   1  15
TORSDOF 7
ENDMDL
MODEL 6
REMARK VINA RESULT:      -7.3      1.272      1.413
REMARK  Name = 
REMARK  8 active torsions:
REMARK  status: ('A' for Active; 'I' for Inactive)
REMARK    1  A    between atoms: C_1  and  O_2
REMARK    2  A    between atoms: O_2  and  C_3
REMARK    3  A    between atoms: C_8  and  C_9
REMARK    4  A    between atoms: N_11  and  C_12
REMARK    5  A    between atoms: C_12  and  N_14
REMARK    6  A    between atoms: N_14  and  C_15
REMARK    7  A    between atoms: C_18  and  S_19
REMARK    8  A    between atoms: S_19  and  N_20
REMARK                            x       y       z     vdW  Elec       q    Type
REMARK                         _______ _______ _______ _____ _____    ______ ____
ROOT
ATOM      1  C   UNL     1       2.363   5.319  19.736  0.00  0.00    +0.000 C 
ATOM      2  S   UNL     1       1.307   4.115  20.221  0.00  0.00    +0.000 S 
ENDROOT
BRANCH   1   5
ATOM      3  C   UNL     1       4.574   5.207  18.606  0.00  0.00    +0.000 C 
ATOM      4  O   UNL     1       5.243   5.439  19.616  0.00  0.00    +0.000 OA
ATOM      5  N   UNL     1       3.199   5.054  18.658  0.00  0.00    +0.000 N 
ATOM      6  H   UNL     1       2.722   4.807  17.799  0.00  0.00    +0.000 HD
BRANCH   3  12
ATOM      7  C   UNL     1       6.060   6.002  16.632  0.00  0.00    +0.000 A 
ATOM      8  C   UNL     1       6.598   5.693  15.369  0.00  0.00    +0.000 A 
ATOM      9  C   UNL     1       6.404   4.437  14.789  0.00  0.00    +0.000 A 
ATOM     10  C   UNL     1       5.672   3.470  15.455  0.00  0.00    +0.000 A 
ATOM     11  C   UNL     1       5.109   3.770  16.693  0.00  0.00    +0.000 A 
ATOM     12  C   UNL     1       5.276   5.036  17.292  0.00  0.00    +0.000 A 
BRANCH   7  14
ATOM     13  C   UNL     1       7.606   7.529  17.606  0.00  0.00    +0.000 C 
ATOM     14  O   UNL     1       6.256   7.220  17.241  0.00  0.00    +0.000 OA
ENDBRANCH   7  14
ENDBRANCH   3  12
ENDBRANCH   1   5
BRANCH   1  15
ATOM     15  N   UNL     1       2.530   6.554  20.322  0.00  0.00    +0.000 N 
ATOM     16  H   UNL     1       3.302   6.600  20.990  0.00  0.00    +0.000 HD
BRANCH  15  17
ATOM     17  C   UNL     1       1.919   7.791  20.040  0.00  0.00    +0.000 A 
ATOM     18  C   UNL     1       2.016   8.287  18.733  0.00  0.00    +0.000 A 
ATOM     19  C   UNL     1       1.297   9.423  18.348  0.00  0.00    +0.000 A 
ATOM     20  C   UNL     1       0.435  10.028  19.266  0.00  0.00    +0.000 A 
ATOM     21  C   UNL     1       0.354   9.562  20.578  0.00  0.00    +0.000 A 
ATOM     22  C   UNL     1       1.104   8.449  20.965  0.00  0.00    +0.000 A 
BRANCH  20  23
ATOM     23  S   UNL     1      -0.598  11.366  18.749  0.00  0.00    +0.000 S 
ATOM     24  O   UNL     1       0.207  12.537  18.509  0.00  0.00    +0.000 OA
ATOM     25  O   UNL     1      -1.574  10.879  17.800  0.00  0.00    +0.000 OA
BRANCH  23  26
ATOM     26  N   UNL     1      -1.452  11.676  20.167  0.00  0.00    +0.000 NA
ATOM     27  H   UNL     1      -1.881  10.819  20.515  0.00  0.00    +0.000 HD
ATOM     28  H   UNL     1      -0.856  12.153  20.843  0.00  0.00    +0.000 HD
ENDBRANCH  23  26
ENDBRANCH  20  23
ENDBRANCH  15  17
ENDBRANCH   1  15
TORSDOF 7
ENDMDL
MODEL 7
REMARK VINA RESULT:      -7.3      1.022      1.093
REMARK  Name = 
REMARK  8 active torsions:
REMARK  status: ('A' for Active; 'I' for Inactive)
REMARK    1  A    between atoms: C_1  and  O_2
REMARK    2  A    between atoms: O_2  and  C_3
REMARK    3  A    between atoms: C_8  and  C_9
REMARK    4  A    between atoms: N_11  and  C_12
REMARK    5  A    between atoms: C_12  and  N_14
REMARK    6  A    between atoms: N_14  and  C_15
REMARK    7  A    between atoms: C_18  and  S_19
REMARK    8  A    between atoms: S_19  and  N_20
REMARK                            x       y       z     vdW  Elec       q    Type
REMARK                         _______ _______ _______ _____ _____    ______ ____
ROOT
ATOM      1  C   UNL     1       2.523   5.581  19.512  0.00  0.00    +0.000 C 
ATOM      2  S   UNL     1       1.523   4.332  20.004  0.00  0.00    +0.000 S 
ENDROOT
BRANCH   1   5
ATOM      3  C   UNL     1       4.627   4.785  18.457  0.00  0.00    +0.000 C 
ATOM      4  O   UNL     1       5.080   4.245  19.469  0.00  0.00    +0.000 OA
ATOM      5  N   UNL     1       3.365   5.351  18.430  0.00  0.00    +0.000 N 
ATOM      6  H   UNL     1       3.037   5.725  17.548  0.00  0.00    +0.000 HD
BRANCH   3  12
ATOM      7  C   UNL     1       6.635   5.515  16.983  0.00  0.00    +0.000 A 
ATOM      8  C   UNL     1       7.250   5.446  15.719  0.00  0.00    +0.000 A 
ATOM      9  C   UNL     1       6.732   4.635  14.707  0.00  0.00    +0.000 A 
ATOM     10  C   UNL     1       5.594   3.881  14.935  0.00  0.00    +0.000 A 
ATOM     11  C   UNL     1       4.957   3.961  16.172  0.00  0.00    +0.000 A 
ATOM     12  C   UNL     1       5.451   4.786  17.204  0.00  0.00    +0.000 A 
BRANCH   7  14
ATOM     13  C   UNL     1       7.632   7.576  17.639  0.00  0.00    +0.000 C 
ATOM     14  O   UNL     1       7.137   6.284  18.007  0.00  0.00    +0.000 OA
ENDBRANCH   7  14
ENDBRANCH   3  12
ENDBRANCH   1   5
BRANCH   1  15
ATOM     15  N   UNL     1       2.638   6.822  20.095  0.00  0.00    +0.000 N 
ATOM     16  H   UNL     1       3.486   6.948  20.651  0.00  0.00    +0.000 HD
BRANCH  15  17
ATOM     17  C   UNL     1       1.865   7.988  19.927  0.00  0.00    +0.000 A 
ATOM     18  C   UNL     1       1.836   8.577  18.655  0.00  0.00    +0.000 A 
ATOM     19  C   UNL     1       0.965   9.636  18.381  0.00  0.00    +0.000 A 
ATOM     20  C   UNL     1       0.080  10.064  19.374  0.00  0.00    +0.000 A 
ATOM     21  C   UNL     1       0.121   9.506  20.651  0.00  0.00    +0.000 A 
ATOM     22  C   UNL     1       1.020   8.474  20.928  0.00  0.00    +0.000 A 
BRANCH  20  23
ATOM     23  S   UNL     1      -1.134  11.292  18.995  0.00  0.00    +0.000 S 
ATOM     24  O   UNL     1      -2.133  10.732  18.120  0.00  0.00    +0.000 OA
ATOM     25  O   UNL     1      -1.469  12.023  20.197  0.00  0.00    +0.000 OA
BRANCH  23  26
ATOM     26  N   UNL     1      -0.232  12.353  18.048  0.00  0.00    +0.000 NA
ATOM     27  H   UNL     1       0.370  12.926  18.638  0.00  0.00    +0.000 HD
ATOM     28  H   UNL     1       0.258  11.843  17.315  0.00  0.00    +0.000 HD
ENDBRANCH  23  26
ENDBRANCH  20  23
ENDBRANCH  15  17
ENDBRANCH   1  15
TORSDOF 7
ENDMDL
MODEL 8
REMARK VINA RESULT:      -7.2      1.165      1.544
REMARK  Name = 
REMARK  8 active torsions:
REMARK  status: ('A' for Active; 'I' for Inactive)
REMARK    1  A    between atoms: C_1  and  O_2
REMARK    2  A    between atoms: O_2  and  C_3
REMARK    3  A    between atoms: C_8  and  C_9
REMARK    4  A    between atoms: N_11  and  C_12
REMARK    5  A    between atoms: C_12  and  N_14
REMARK    6  A    between atoms: N_14  and  C_15
REMARK    7  A    between atoms: C_18  and  S_19
REMARK    8  A    between atoms: S_19  and  N_20
REMARK                            x       y       z     vdW  Elec       q    Type
REMARK                         _______ _______ _______ _____ _____    ______ ____
ROOT
ATOM      1  C   UNL     1       2.493   5.489  19.642  0.00  0.00    +0.000 C 
ATOM      2  S   UNL     1       1.545   4.273  20.291  0.00  0.00    +0.000 S 
ENDROOT
BRANCH   1   5
ATOM      3  C   UNL     1       4.671   5.258  18.467  0.00  0.00    +0.000 C 
ATOM      4  O   UNL     1       5.373   5.461  19.461  0.00  0.00    +0.000 OA
ATOM      5  N   UNL     1       3.292   5.176  18.548  0.00  0.00    +0.000 N 
ATOM      6  H   UNL     1       2.785   4.950  17.701  0.00  0.00    +0.000 HD
BRANCH   3  12
ATOM      7  C   UNL     1       6.099   5.990  16.427  0.00  0.00    +0.000 A 
ATOM      8  C   UNL     1       6.601   5.641  15.159  0.00  0.00    +0.000 A 
ATOM      9  C   UNL     1       6.393   4.367  14.625  0.00  0.00    +0.000 A 
ATOM     10  C   UNL     1       5.681   3.421  15.343  0.00  0.00    +0.000 A 
ATOM     11  C   UNL     1       5.153   3.761  16.586  0.00  0.00    +0.000 A 
ATOM     12  C   UNL     1       5.335   5.046  17.139  0.00  0.00    +0.000 A 
BRANCH   7  14
ATOM     13  C   UNL     1       7.608   7.446  17.555  0.00  0.00    +0.000 C 
ATOM     14  O   UNL     1       6.311   7.227  16.990  0.00  0.00    +0.000 OA
ENDBRANCH   7  14
ENDBRANCH   3  12
ENDBRANCH   1   5
BRANCH   1  15
ATOM     15  N   UNL     1       2.606   6.781  20.104  0.00  0.00    +0.000 N 
ATOM     16  H   UNL     1       3.456   6.962  20.642  0.00  0.00    +0.000 HD
BRANCH  15  17
ATOM     17  C   UNL     1       1.828   7.922  19.828  0.00  0.00    +0.000 A 
ATOM     18  C   UNL     1       1.149   8.526  20.895  0.00  0.00    +0.000 A 
ATOM     19  C   UNL     1       0.494   9.749  20.721  0.00  0.00    +0.000 A 
ATOM     20  C   UNL     1       0.573  10.394  19.484  0.00  0.00    +0.000 A 
ATOM     21  C   UNL     1       1.219   9.788  18.407  0.00  0.00    +0.000 A 
ATOM     22  C   UNL     1       1.839   8.549  18.580  0.00  0.00    +0.000 A 
BRANCH  20  23
ATOM     23  S   UNL     1      -0.113  12.012  19.294  0.00  0.00    +0.000 S 
ATOM     24  O   UNL     1      -1.198  12.192  20.225  0.00  0.00    +0.000 OA
ATOM     25  O   UNL     1       0.958  12.972  19.145  0.00  0.00    +0.000 OA
BRANCH  23  26
ATOM     26  N   UNL     1      -0.826  11.881  17.774  0.00  0.00    +0.000 NA
ATOM     27  H   UNL     1      -0.394  12.538  17.124  0.00  0.00    +0.000 HD
ATOM     28  H   UNL     1      -0.816  10.911  17.460  0.00  0.00    +0.000 HD
ENDBRANCH  23  26
ENDBRANCH  20  23
ENDBRANCH  15  17
ENDBRANCH   1  15
TORSDOF 7
ENDMDL
MODEL 9
REMARK VINA RESULT:      -7.2      0.971      1.404
REMARK  Name = 
REMARK  8 active torsions:
REMARK  status: ('A' for Active; 'I' for Inactive)
REMARK    1  A    between atoms: C_1  and  O_2
REMARK    2  A    between atoms: O_2  and  C_3
REMARK    3  A    between atoms: C_8  and  C_9
REMARK    4  A    between atoms: N_11  and  C_12
REMARK    5  A    between atoms: C_12  and  N_14
REMARK    6  A    between atoms: N_14  and  C_15
REMARK    7  A    between atoms: C_18  and  S_19
REMARK    8  A    between atoms: S_19  and  N_20
REMARK                            x       y       z     vdW  Elec       q    Type
REMARK                         _______ _______ _______ _____ _____    ______ ____
ROOT
ATOM      1  C   UNL     1       2.554   4.803  19.730  0.00  0.00    +0.000 C 
ATOM      2  S   UNL     1       1.754   3.387  20.125  0.00  0.00    +0.000 S 
ENDROOT
BRANCH   1   5
ATOM      3  C   UNL     1       4.716   4.301  18.612  0.00  0.00    +0.000 C 
ATOM      4  O   UNL     1       5.197   3.661  19.550  0.00  0.00    +0.000 OA
ATOM      5  N   UNL     1       3.418   4.779  18.641  0.00  0.00    +0.000 N 
ATOM      6  H   UNL     1       3.071   5.246  17.812  0.00  0.00    +0.000 HD
BRANCH   3  12
ATOM      7  C   UNL     1       6.575   5.477  17.234  0.00  0.00    +0.000 A 
ATOM      8  C   UNL     1       7.214   5.595  15.986  0.00  0.00    +0.000 A 
ATOM      9  C   UNL     1       6.877   4.759  14.920  0.00  0.00    +0.000 A 
ATOM     10  C   UNL     1       5.898   3.793  15.077  0.00  0.00    +0.000 A 
ATOM     11  C   UNL     1       5.236   3.683  16.298  0.00  0.00    +0.000 A 
ATOM     12  C   UNL     1       5.547   4.527  17.384  0.00  0.00    +0.000 A 
BRANCH   7  14
ATOM     13  C   UNL     1       7.989   5.803  19.123  0.00  0.00    +0.000 C 
ATOM     14  O   UNL     1       6.904   6.267  18.311  0.00  0.00    +0.000 OA
ENDBRANCH   7  14
ENDBRANCH   3  12
ENDBRANCH   1   5
BRANCH   1  15
ATOM     15  N   UNL     1       2.484   6.003  20.400  0.00  0.00    +0.000 N 
ATOM     16  H   UNL     1       3.009   6.026  21.277  0.00  0.00    +0.000 HD
BRANCH  15  17
ATOM     17  C   UNL     1       1.942   7.241  20.005  0.00  0.00    +0.000 A 
ATOM     18  C   UNL     1       1.285   8.009  20.977  0.00  0.00    +0.000 A 
ATOM     19  C   UNL     1       0.869   9.313  20.692  0.00  0.00    +0.000 A 
ATOM     20  C   UNL     1       1.165   9.865  19.443  0.00  0.00    +0.000 A 
ATOM     21  C   UNL     1       1.790   9.100  18.458  0.00  0.00    +0.000 A 
ATOM     22  C   UNL     1       2.169   7.786  18.739  0.00  0.00    +0.000 A 
BRANCH  20  23
ATOM     23  S   UNL     1       0.788  11.562  19.122  0.00  0.00    +0.000 S 
ATOM     24  O   UNL     1      -0.485  11.659  18.455  0.00  0.00    +0.000 OA
ATOM     25  O   UNL     1       1.125  12.356  20.283  0.00  0.00    +0.000 OA
BRANCH  23  26
ATOM     26  N   UNL     1       1.948  11.934  17.959  0.00  0.00    +0.000 NA
ATOM     27  H   UNL     1       2.326  11.078  17.553  0.00  0.00    +0.000 HD
ATOM     28  H   UNL     1       1.571  12.592  17.280  0.00  0.00    +0.000 HD
ENDBRANCH  23  26
ENDBRANCH  20  23
ENDBRANCH  15  17
ENDBRANCH   1  15
TORSDOF 7
ENDMDL
