MODEL 1
REMARK VINA RESULT:      -8.4      0.000      0.000
REMARK  Name = 
REMARK  6 active torsions:
REMARK  status: ('A' for Active; 'I' for Inactive)
REMARK    1  A    between atoms: C_1  and  O_2
REMARK    2  A    between atoms: O_2  and  C_3
REMARK    3  A    between atoms: C_17  and  C_18
REMARK    4  A    between atoms: C_18  and  O_20
REMARK    5  A    between atoms: C_21  and  C_22
REMARK    6  A    between atoms: C_22  and  O_24
REMARK                            x       y       z     vdW  Elec       q    Type
REMARK                         _______ _______ _______ _____ _____    ______ ____
ROOT
ATOM      1  C   UNL     1       3.761   5.529  17.868  0.00  0.00    +0.000 C 
ATOM      2  C   UNL     1       2.791   6.561  18.630  0.00  0.00    +0.000 A 
ATOM      3  C   UNL     1       2.527   7.873  18.205  0.00  0.00    +0.000 A 
ATOM      4  C   UNL     1       1.845   8.769  19.030  0.00  0.00    +0.000 A 
ATOM      5  C   UNL     1       1.402   8.369  20.289  0.00  0.00    +0.000 A 
ATOM      6  C   UNL     1       1.597   7.057  20.718  0.00  0.00    +0.000 A 
ATOM      7  C   UNL     1       2.271   6.132  19.906  0.00  0.00    +0.000 A 
ATOM      8  C   UNL     1       2.579   4.743  20.393  0.00  0.00    +0.000 A 
ATOM      9  C   UNL     1       1.658   3.978  21.120  0.00  0.00    +0.000 A 
ATOM     10  C   UNL     1       1.981   2.683  21.528  0.00  0.00    +0.000 A 
ATOM     11  C   UNL     1       3.235   2.146  21.241  0.00  0.00    +0.000 A 
ATOM     12  C   UNL     1       4.164   2.883  20.506  0.00  0.00    +0.000 A 
ATOM     13  C   UNL     1       3.846   4.166  20.044  0.00  0.00    +0.000 A 
ATOM     14  C   UNL     1       4.738   5.028  19.087  0.00  0.00    +0.000 C 
ATOM     15  C   UNL     1       5.708   4.618  17.985  0.00  0.00    +0.000 C 
ATOM     16  C   UNL     1       5.109   5.867  17.175  0.00  0.00    +0.000 C 
ENDROOT
BRANCH   1  18
ATOM     17  C   UNL     1       1.615   4.413  17.314  0.00  0.00    +0.000 C 
ATOM     18  O   UNL     1       3.031   4.433  17.232  0.00  0.00    +0.000 OA
ENDBRANCH   1  18
BRANCH  15  19
ATOM     19  C   UNL     1       7.226   4.710  18.235  0.00  0.00    +0.000 C 
ATOM     20  O   UNL     1       7.760   5.242  19.202  0.00  0.00    +0.000 OA
BRANCH  19  21
ATOM     21  O   UNL     1       7.971   4.161  17.241  0.00  0.00    +0.000 OA
ATOM     22  H   UNL     1       7.448   3.880  16.455  0.00  0.00    +0.000 HD
ENDBRANCH  19  21
ENDBRANCH  15  19
BRANCH  16  23
ATOM     23  C   UNL     1       5.283   5.708  15.661  0.00  0.00    +0.000 C 
ATOM     24  O   UNL     1       5.582   4.642  15.121  0.00  0.00    +0.000 OA
BRANCH  23  25
ATOM     25  O   UNL     1       5.164   6.849  14.938  0.00  0.00    +0.000 OA
ATOM     26  H   UNL     1       4.263   7.222  14.922  0.00  0.00    +0.000 HD
ENDBRANCH  23  25
ENDBRANCH  16  23
TORSDOF 5
ENDMDL
MODEL 2
REMARK VINA RESULT:      -6.8      2.799      5.512
REMARK  Name = 
REMARK  6 active torsions:
REMARK  status: ('A' for Active; 'I' for Inactive)
REMARK    1  A    between atoms: C_1  and  O_2
REMARK    2  A    between atoms: O_2  and  C_3
REMARK    3  A    between atoms: C_17  and  C_18
REMARK    4  A    between atoms: C_18  and  O_20
REMARK    5  A    between atoms: C_21  and  C_22
REMARK    6  A    between atoms: C_22  and  O_24
REMARK                            x       y       z     vdW  Elec       q    Type
REMARK                         _______ _______ _______ _____ _____    ______ ____
ROOT
ATOM      1  C   UNL     1       4.378   4.340  17.153  0.00  0.00    +0.000 C 
ATOM      2  C   UNL     1       5.147   4.511  15.752  0.00  0.00    +0.000 A 
ATOM      3  C   UNL     1       4.692   4.008  14.522  0.00  0.00    +0.000 A 
ATOM      4  C   UNL     1       5.517   4.015  13.396  0.00  0.00    +0.000 A 
ATOM      5  C   UNL     1       6.806   4.537  13.472  0.00  0.00    +0.000 A 
ATOM      6  C   UNL     1       7.269   5.097  14.662  0.00  0.00    +0.000 A 
ATOM      7  C   UNL     1       6.459   5.111  15.808  0.00  0.00    +0.000 A 
ATOM      8  C   UNL     1       6.977   5.618  17.125  0.00  0.00    +0.000 A 
ATOM      9  C   UNL     1       7.769   6.769  17.230  0.00  0.00    +0.000 A 
ATOM     10  C   UNL     1       8.204   7.214  18.480  0.00  0.00    +0.000 A 
ATOM     11  C   UNL     1       7.879   6.503  19.635  0.00  0.00    +0.000 A 
ATOM     12  C   UNL     1       7.081   5.362  19.556  0.00  0.00    +0.000 A 
ATOM     13  C   UNL     1       6.591   4.923  18.320  0.00  0.00    +0.000 A 
ATOM     14  C   UNL     1       5.568   3.753  18.118  0.00  0.00    +0.000 C 
ATOM     15  C   UNL     1       4.438   3.249  19.007  0.00  0.00    +0.000 C 
ATOM     16  C   UNL     1       3.615   3.079  17.641  0.00  0.00    +0.000 C 
ENDROOT
BRANCH   1  18
ATOM     17  C   UNL     1       3.917   6.758  16.835  0.00  0.00    +0.000 C 
ATOM     18  O   UNL     1       3.811   5.597  17.643  0.00  0.00    +0.000 OA
ENDBRANCH   1  18
BRANCH  15  19
ATOM     19  C   UNL     1       4.618   1.935  19.793  0.00  0.00    +0.000 C 
ATOM     20  O   UNL     1       4.945   1.846  20.972  0.00  0.00    +0.000 OA
BRANCH  19  21
ATOM     21  O   UNL     1       4.410   0.824  19.041  0.00  0.00    +0.000 OA
ATOM     22  H   UNL     1       5.215   0.498  18.574  0.00  0.00    +0.000 HD
ENDBRANCH  19  21
ENDBRANCH  15  19
BRANCH  16  23
ATOM     23  C   UNL     1       2.101   3.109  17.874  0.00  0.00    +0.000 C 
ATOM     24  O   UNL     1       1.487   2.217  18.462  0.00  0.00    +0.000 OA
BRANCH  23  25
ATOM     25  O   UNL     1       1.447   4.157  17.315  0.00  0.00    +0.000 OA
ATOM     26  H   UNL     1       1.935   5.001  17.352  0.00  0.00    +0.000 HD
ENDBRANCH  23  25
ENDBRANCH  16  23
TORSDOF 5
ENDMDL
MODEL 3
REMARK VINA RESULT:      -6.7      2.400      5.144
REMARK  Name = 
REMARK  6 active torsions:
REMARK  status: ('A' for Active; 'I' for Inactive)
REMARK    1  A    between atoms: C_1  and  O_2
REMARK    2  A    between atoms: O_2  and  C_3
REMARK    3  A    between atoms: C_17  and  C_18
REMARK    4  A    between atoms: C_18  and  O_20
REMARK    5  A    between atoms: C_21  and  C_22
REMARK    6  A    between atoms: C_22  and  O_24
REMARK                            x       y       z     vdW  Elec       q    Type
REMARK                         _______ _______ _______ _____ _____    ______ ____
ROOT
ATOM      1  C   UNL     1       2.815   5.252  19.763  0.00  0.00    +0.000 C 
ATOM      2  C   UNL     1       2.495   6.794  19.442  0.00  0.00    +0.000 A 
ATOM      3  C   UNL     1       1.695   7.629  20.239  0.00  0.00    +0.000 A 
ATOM      4  C   UNL     1       1.297   8.887  19.784  0.00  0.00    +0.000 A 
ATOM      5  C   UNL     1       1.700   9.342  18.531  0.00  0.00    +0.000 A 
ATOM      6  C   UNL     1       2.542   8.563  17.738  0.00  0.00    +0.000 A 
ATOM      7  C   UNL     1       2.966   7.298  18.174  0.00  0.00    +0.000 A 
ATOM      8  C   UNL     1       3.790   6.402  17.290  0.00  0.00    +0.000 A 
ATOM      9  C   UNL     1       4.845   6.884  16.505  0.00  0.00    +0.000 A 
ATOM     10  C   UNL     1       5.598   6.008  15.720  0.00  0.00    +0.000 A 
ATOM     11  C   UNL     1       5.291   4.648  15.688  0.00  0.00    +0.000 A 
ATOM     12  C   UNL     1       4.254   4.144  16.473  0.00  0.00    +0.000 A 
ATOM     13  C   UNL     1       3.515   4.993  17.305  0.00  0.00    +0.000 A 
ATOM     14  C   UNL     1       2.434   4.529  18.340  0.00  0.00    +0.000 C 
ATOM     15  C   UNL     1       2.318   3.247  19.156  0.00  0.00    +0.000 C 
ATOM     16  C   UNL     1       1.826   4.205  20.346  0.00  0.00    +0.000 C 
ENDROOT
BRANCH   1  18
ATOM     17  C   UNL     1       4.860   3.846  19.747  0.00  0.00    +0.000 C 
ATOM     18  O   UNL     1       4.205   5.034  20.162  0.00  0.00    +0.000 OA
ENDBRANCH   1  18
BRANCH  15  19
ATOM     19  C   UNL     1       1.283   2.179  18.750  0.00  0.00    +0.000 C 
ATOM     20  O   UNL     1       0.138   2.401  18.371  0.00  0.00    +0.000 OA
BRANCH  19  21
ATOM     21  O   UNL     1       1.740   0.907  18.881  0.00  0.00    +0.000 OA
ATOM     22  H   UNL     1       2.659   0.844  19.231  0.00  0.00    +0.000 HD
ENDBRANCH  19  21
ENDBRANCH  15  19
BRANCH  16  23
ATOM     23  C   UNL     1       2.059   3.577  21.724  0.00  0.00    +0.000 C 
ATOM     24  O   UNL     1       1.525   2.529  22.090  0.00  0.00    +0.000 OA
BRANCH  23  25
ATOM     25  O   UNL     1       2.842   4.295  22.566  0.00  0.00    +0.000 OA
ATOM     26  H   UNL     1       2.373   5.003  23.046  0.00  0.00    +0.000 HD
ENDBRANCH  23  25
ENDBRANCH  16  23
TORSDOF 5
ENDMDL
MODEL 4
REMARK VINA RESULT:      -6.7      6.136      9.056
REMARK  Name = 
REMARK  6 active torsions:
REMARK  status: ('A' for Active; 'I' for Inactive)
REMARK    1  A    between atoms: C_1  and  O_2
REMARK    2  A    between atoms: O_2  and  C_3
REMARK    3  A    between atoms: C_17  and  C_18
REMARK    4  A    between atoms: C_18  and  O_20
REMARK    5  A    between atoms: C_21  and  C_22
REMARK    6  A    between atoms: C_22  and  O_24
REMARK                            x       y       z     vdW  Elec       q    Type
REMARK                         _______ _______ _______ _____ _____    ______ ____
ROOT
ATOM      1  C   UNL     1      -0.981  12.270  19.571  0.00  0.00    +0.000 C 
ATOM      2  C   UNL     1      -2.432  12.659  20.144  0.00  0.00    +0.000 A 
ATOM      3  C   UNL     1      -2.661  13.316  21.364  0.00  0.00    +0.000 A 
ATOM      4  C   UNL     1      -3.952  13.428  21.885  0.00  0.00    +0.000 A 
ATOM      5  C   UNL     1      -5.038  12.899  21.193  0.00  0.00    +0.000 A 
ATOM      6  C   UNL     1      -4.853  12.292  19.951  0.00  0.00    +0.000 A 
ATOM      7  C   UNL     1      -3.568  12.173  19.399  0.00  0.00    +0.000 A 
ATOM      8  C   UNL     1      -3.337  11.432  18.111  0.00  0.00    +0.000 A 
ATOM      9  C   UNL     1      -4.193  11.553  17.008  0.00  0.00    +0.000 A 
ATOM     10  C   UNL     1      -3.922  10.864  15.825  0.00  0.00    +0.000 A 
ATOM     11  C   UNL     1      -2.811  10.026  15.736  0.00  0.00    +0.000 A 
ATOM     12  C   UNL     1      -1.937   9.900  16.815  0.00  0.00    +0.000 A 
ATOM     13  C   UNL     1      -2.161  10.618  17.996  0.00  0.00    +0.000 A 
ATOM     14  C   UNL     1      -1.178  10.681  19.215  0.00  0.00    +0.000 C 
ATOM     15  C   UNL     1       0.343  10.598  19.279  0.00  0.00    +0.000 C 
ATOM     16  C   UNL     1       0.227  11.745  20.394  0.00  0.00    +0.000 C 
ENDROOT
BRANCH   1  18
ATOM     17  C   UNL     1      -0.438  14.474  18.568  0.00  0.00    +0.000 C 
ATOM     18  O   UNL     1      -0.598  13.074  18.410  0.00  0.00    +0.000 OA
ENDBRANCH   1  18
BRANCH  15  19
ATOM     19  C   UNL     1       1.013   9.305  19.784  0.00  0.00    +0.000 C 
ATOM     20  O   UNL     1       0.902   8.836  20.912  0.00  0.00    +0.000 OA
BRANCH  19  21
ATOM     21  O   UNL     1       1.804   8.709  18.856  0.00  0.00    +0.000 OA
ATOM     22  H   UNL     1       2.213   9.335  18.214  0.00  0.00    +0.000 HD
ENDBRANCH  19  21
ENDBRANCH  15  19
BRANCH  16  23
ATOM     23  C   UNL     1       1.518  12.562  20.515  0.00  0.00    +0.000 C 
ATOM     24  O   UNL     1       1.830  13.192  21.527  0.00  0.00    +0.000 OA
BRANCH  23  25
ATOM     25  O   UNL     1       2.277  12.619  19.393  0.00  0.00    +0.000 OA
ATOM     26  H   UNL     1       1.814  12.347  18.580  0.00  0.00    +0.000 HD
ENDBRANCH  23  25
ENDBRANCH  16  23
TORSDOF 5
ENDMDL
MODEL 5
REMARK VINA RESULT:      -6.5      5.967      8.999
REMARK  Name = 
REMARK  6 active torsions:
REMARK  status: ('A' for Active; 'I' for Inactive)
REMARK    1  A    between atoms: C_1  and  O_2
REMARK    2  A    between atoms: O_2  and  C_3
REMARK    3  A    between atoms: C_17  and  C_18
REMARK    4  A    between atoms: C_18  and  O_20
REMARK    5  A    between atoms: C_21  and  C_22
REMARK    6  A    between atoms: C_22  and  O_24
REMARK                            x       y       z     vdW  Elec       q    Type
REMARK                         _______ _______ _______ _____ _____    ______ ____
ROOT
ATOM      1  C   UNL     1      -0.209  12.811  19.655  0.00  0.00    +0.000 C 
ATOM      2  C   UNL     1      -1.022  13.150  20.999  0.00  0.00    +0.000 A 
ATOM      3  C   UNL     1      -0.451  13.679  22.168  0.00  0.00    +0.000 A 
ATOM      4  C   UNL     1      -1.183  13.747  23.355  0.00  0.00    +0.000 A 
ATOM      5  C   UNL     1      -2.501  13.300  23.395  0.00  0.00    +0.000 A 
ATOM      6  C   UNL     1      -3.117  12.822  22.239  0.00  0.00    +0.000 A 
ATOM      7  C   UNL     1      -2.409  12.751  21.030  0.00  0.00    +0.000 A 
ATOM      8  C   UNL     1      -3.024  12.144  19.799  0.00  0.00    +0.000 A 
ATOM      9  C   UNL     1      -4.352  12.385  19.424  0.00  0.00    +0.000 A 
ATOM     10  C   UNL     1      -4.870  11.819  18.257  0.00  0.00    +0.000 A 
ATOM     11  C   UNL     1      -4.079  10.987  17.466  0.00  0.00    +0.000 A 
ATOM     12  C   UNL     1      -2.750  10.744  17.811  0.00  0.00    +0.000 A 
ATOM     13  C   UNL     1      -2.193  11.338  18.950  0.00  0.00    +0.000 A 
ATOM     14  C   UNL     1      -0.681  11.268  19.359  0.00  0.00    +0.000 C 
ATOM     15  C   UNL     1       0.580  11.168  18.509  0.00  0.00    +0.000 C 
ATOM     16  C   UNL     1       1.214  12.196  19.566  0.00  0.00    +0.000 C 
ENDROOT
BRANCH   1  18
ATOM     17  C   UNL     1      -0.384  15.123  18.769  0.00  0.00    +0.000 C 
ATOM     18  O   UNL     1      -0.524  13.727  18.558  0.00  0.00    +0.000 OA
ENDBRANCH   1  18
BRANCH  15  19
ATOM     19  C   UNL     1       1.332   9.825  18.419  0.00  0.00    +0.000 C 
ATOM     20  O   UNL     1       1.317   8.940  19.268  0.00  0.00    +0.000 OA
BRANCH  19  21
ATOM     21  O   UNL     1       2.078   9.698  17.292  0.00  0.00    +0.000 OA
ATOM     22  H   UNL     1       2.360  10.557  16.898  0.00  0.00    +0.000 HD
ENDBRANCH  19  21
ENDBRANCH  15  19
BRANCH  16  23
ATOM     23  C   UNL     1       2.383  12.986  18.968  0.00  0.00    +0.000 C 
ATOM     24  O   UNL     1       3.127  13.706  19.636  0.00  0.00    +0.000 OA
BRANCH  23  25
ATOM     25  O   UNL     1       2.509  12.910  17.620  0.00  0.00    +0.000 OA
ATOM     26  H   UNL     1       2.890  13.707  17.206  0.00  0.00    +0.000 HD
ENDBRANCH  23  25
ENDBRANCH  16  23
TORSDOF 5
ENDMDL
MODEL 6
REMARK VINA RESULT:      -6.5      9.539     11.446
REMARK  Name = 
REMARK  6 active torsions:
REMARK  status: ('A' for Active; 'I' for Inactive)
REMARK    1  A    between atoms: C_1  and  O_2
REMARK    2  A    between atoms: O_2  and  C_3
REMARK    3  A    between atoms: C_17  and  C_18
REMARK    4  A    between atoms: C_18  and  O_20
REMARK    5  A    between atoms: C_21  and  C_22
REMARK    6  A    between atoms: C_22  and  O_24
REMARK                            x       y       z     vdW  Elec       q    Type
REMARK                         _______ _______ _______ _____ _____    ______ ____
ROOT
ATOM      1  C   UNL     1       9.898  14.396  19.012  0.00  0.00    +0.000 C 
ATOM      2  C   UNL     1       9.821  12.792  18.946  0.00  0.00    +0.000 A 
ATOM      3  C   UNL     1      10.099  12.024  17.804  0.00  0.00    +0.000 A 
ATOM      4  C   UNL     1       9.807  10.659  17.770  0.00  0.00    +0.000 A 
ATOM      5  C   UNL     1       9.244  10.033  18.880  0.00  0.00    +0.000 A 
ATOM      6  C   UNL     1       9.008  10.754  20.050  0.00  0.00    +0.000 A 
ATOM      7  C   UNL     1       9.301  12.125  20.115  0.00  0.00    +0.000 A 
ATOM      8  C   UNL     1       8.960  12.939  21.333  0.00  0.00    +0.000 A 
ATOM      9  C   UNL     1       9.161  12.466  22.636  0.00  0.00    +0.000 A 
ATOM     10  C   UNL     1       8.852  13.271  23.734  0.00  0.00    +0.000 A 
ATOM     11  C   UNL     1       8.316  14.544  23.548  0.00  0.00    +0.000 A 
ATOM     12  C   UNL     1       8.120  15.042  22.259  0.00  0.00    +0.000 A 
ATOM     13  C   UNL     1       8.466  14.273  21.141  0.00  0.00    +0.000 A 
ATOM     14  C   UNL     1       8.438  14.774  19.657  0.00  0.00    +0.000 C 
ATOM     15  C   UNL     1       8.665  16.160  19.065  0.00  0.00    +0.000 C 
ATOM     16  C   UNL     1       9.458  15.389  17.902  0.00  0.00    +0.000 C 
ENDROOT
BRANCH   1  18
ATOM     17  C   UNL     1      12.323  14.382  19.543  0.00  0.00    +0.000 C 
ATOM     18  O   UNL     1      11.021  14.876  19.818  0.00  0.00    +0.000 OA
ENDBRANCH   1  18
BRANCH  15  19
ATOM     19  C   UNL     1       7.461  16.979  18.560  0.00  0.00    +0.000 C 
ATOM     20  O   UNL     1       6.302  16.582  18.501  0.00  0.00    +0.000 OA
BRANCH  19  21
ATOM     21  O   UNL     1       7.795  18.223  18.132  0.00  0.00    +0.000 OA
ATOM     22  H   UNL     1       7.829  18.899  18.848  0.00  0.00    +0.000 HD
ENDBRANCH  19  21
ENDBRANCH  15  19
BRANCH  16  23
ATOM     23  C   UNL     1      10.474  16.296  17.200  0.00  0.00    +0.000 C 
ATOM     24  O   UNL     1      10.781  17.416  17.611  0.00  0.00    +0.000 OA
BRANCH  23  25
ATOM     25  O   UNL     1      10.971  15.818  16.033  0.00  0.00    +0.000 OA
ATOM     26  H   UNL     1      10.546  14.998  15.721  0.00  0.00    +0.000 HD
ENDBRANCH  23  25
ENDBRANCH  16  23
TORSDOF 5
ENDMDL
MODEL 7
REMARK VINA RESULT:      -6.4      7.203     10.417
REMARK  Name = 
REMARK  6 active torsions:
REMARK  status: ('A' for Active; 'I' for Inactive)
REMARK    1  A    between atoms: C_1  and  O_2
REMARK    2  A    between atoms: O_2  and  C_3
REMARK    3  A    between atoms: C_17  and  C_18
REMARK    4  A    between atoms: C_18  and  O_20
REMARK    5  A    between atoms: C_21  and  C_22
REMARK    6  A    between atoms: C_22  and  O_24
REMARK                            x       y       z     vdW  Elec       q    Type
REMARK                         _______ _______ _______ _____ _____    ______ ____
ROOT
ATOM      1  C   UNL     1      -1.969  11.587  19.210  0.00  0.00    +0.000 C 
ATOM      2  C   UNL     1      -1.190  11.009  20.491  0.00  0.00    +0.000 A 
ATOM      3  C   UNL     1      -0.495   9.789  20.522  0.00  0.00    +0.000 A 
ATOM      4  C   UNL     1      -0.026   9.262  21.727  0.00  0.00    +0.000 A 
ATOM      5  C   UNL     1      -0.228   9.950  22.921  0.00  0.00    +0.000 A 
ATOM      6  C   UNL     1      -0.863  11.191  22.919  0.00  0.00    +0.000 A 
ATOM      7  C   UNL     1      -1.337  11.749  21.721  0.00  0.00    +0.000 A 
ATOM      8  C   UNL     1      -2.113  13.037  21.713  0.00  0.00    +0.000 A 
ATOM      9  C   UNL     1      -1.756  14.136  22.505  0.00  0.00    +0.000 A 
ATOM     10  C   UNL     1      -2.492  15.321  22.442  0.00  0.00    +0.000 A 
ATOM     11  C   UNL     1      -3.608  15.414  21.611  0.00  0.00    +0.000 A 
ATOM     12  C   UNL     1      -3.974  14.338  20.803  0.00  0.00    +0.000 A 
ATOM     13  C   UNL     1      -3.223  13.156  20.812  0.00  0.00    +0.000 A 
ATOM     14  C   UNL     1      -3.440  11.941  19.846  0.00  0.00    +0.000 C 
ATOM     15  C   UNL     1      -3.946  11.884  18.410  0.00  0.00    +0.000 C 
ATOM     16  C   UNL     1      -2.812  10.769  18.194  0.00  0.00    +0.000 C 
ENDROOT
BRANCH   1  18
ATOM     17  C   UNL     1       0.112  12.806  18.626  0.00  0.00    +0.000 C 
ATOM     18  O   UNL     1      -1.305  12.750  18.621  0.00  0.00    +0.000 OA
ENDBRANCH   1  18
BRANCH  15  19
ATOM     19  C   UNL     1      -5.375  11.380  18.126  0.00  0.00    +0.000 C 
ATOM     20  O   UNL     1      -6.094  10.785  18.922  0.00  0.00    +0.000 OA
BRANCH  19  21
ATOM     21  O   UNL     1      -5.792  11.625  16.858  0.00  0.00    +0.000 OA
ATOM     22  H   UNL     1      -5.578  10.906  16.218  0.00  0.00    +0.000 HD
ENDBRANCH  19  21
ENDBRANCH  15  19
BRANCH  16  23
ATOM     23  C   UNL     1      -2.391  10.653  16.726  0.00  0.00    +0.000 C 
ATOM     24  O   UNL     1      -2.244   9.577  16.145  0.00  0.00    +0.000 OA
BRANCH  23  25
ATOM     25  O   UNL     1      -2.106  11.827  16.109  0.00  0.00    +0.000 OA
ATOM     26  H   UNL     1      -1.494  11.745  15.353  0.00  0.00    +0.000 HD
ENDBRANCH  23  25
ENDBRANCH  16  23
TORSDOF 5
ENDMDL
MODEL 8
REMARK VINA RESULT:      -6.4      6.518      9.448
REMARK  Name = 
REMARK  6 active torsions:
REMARK  status: ('A' for Active; 'I' for Inactive)
REMARK    1  A    between atoms: C_1  and  O_2
REMARK    2  A    between atoms: O_2  and  C_3
REMARK    3  A    between atoms: C_17  and  C_18
REMARK    4  A    between atoms: C_18  and  O_20
REMARK    5  A    between atoms: C_21  and  C_22
REMARK    6  A    between atoms: C_22  and  O_24
REMARK                            x       y       z     vdW  Elec       q    Type
REMARK                         _______ _______ _______ _____ _____    ______ ____
ROOT
ATOM      1  C   UNL     1      -1.571  12.232  19.813  0.00  0.00    +0.000 C 
ATOM      2  C   UNL     1      -3.102  12.624  20.107  0.00  0.00    +0.000 A 
ATOM      3  C   UNL     1      -3.551  13.284  21.263  0.00  0.00    +0.000 A 
ATOM      4  C   UNL     1      -4.915  13.399  21.537  0.00  0.00    +0.000 A 
ATOM      5  C   UNL     1      -5.857  12.870  20.657  0.00  0.00    +0.000 A 
ATOM      6  C   UNL     1      -5.447  12.260  19.472  0.00  0.00    +0.000 A 
ATOM      7  C   UNL     1      -4.082  12.138  19.167  0.00  0.00    +0.000 A 
ATOM      8  C   UNL     1      -3.619  11.394  17.945  0.00  0.00    +0.000 A 
ATOM      9  C   UNL     1      -4.257  11.515  16.703  0.00  0.00    +0.000 A 
ATOM     10  C   UNL     1      -3.773  10.823  15.591  0.00  0.00    +0.000 A 
ATOM     11  C   UNL     1      -2.666   9.983  15.709  0.00  0.00    +0.000 A 
ATOM     12  C   UNL     1      -2.007   9.858  16.932  0.00  0.00    +0.000 A 
ATOM     13  C   UNL     1      -2.443  10.579  18.050  0.00  0.00    +0.000 A 
ATOM     14  C   UNL     1      -1.702  10.642  19.430  0.00  0.00    +0.000 C 
ATOM     15  C   UNL     1      -0.220  10.557  19.773  0.00  0.00    +0.000 C 
ATOM     16  C   UNL     1      -0.537  11.707  20.846  0.00  0.00    +0.000 C 
ENDROOT
BRANCH   1  18
ATOM     17  C   UNL     1      -0.775  14.420  18.955  0.00  0.00    +0.000 C 
ATOM     18  O   UNL     1      -0.979  13.033  18.742  0.00  0.00    +0.000 OA
ENDBRANCH   1  18
BRANCH  15  19
ATOM     19  C   UNL     1       0.344   9.264  20.395  0.00  0.00    +0.000 C 
ATOM     20  O   UNL     1      -0.140   8.659  21.346  0.00  0.00    +0.000 OA
BRANCH  19  21
ATOM     21  O   UNL     1       1.492   8.838  19.809  0.00  0.00    +0.000 OA
ATOM     22  H   UNL     1       1.358   8.393  18.940  0.00  0.00    +0.000 HD
ENDBRANCH  19  21
ENDBRANCH  15  19
BRANCH  16  23
ATOM     23  C   UNL     1       0.711  12.522  21.201  0.00  0.00    +0.000 C 
ATOM     24  O   UNL     1       1.826  12.297  20.727  0.00  0.00    +0.000 OA
BRANCH  23  25
ATOM     25  O   UNL     1       0.533  13.476  22.148  0.00  0.00    +0.000 OA
ATOM     26  H   UNL     1      -0.130  14.153  21.917  0.00  0.00    +0.000 HD
ENDBRANCH  23  25
ENDBRANCH  16  23
TORSDOF 5
ENDMDL
MODEL 9
REMARK VINA RESULT:      -6.3      5.595      8.545
REMARK  Name = 
REMARK  6 active torsions:
REMARK  status: ('A' for Active; 'I' for Inactive)
REMARK    1  A    between atoms: C_1  and  O_2
REMARK    2  A    between atoms: O_2  and  C_3
REMARK    3  A    between atoms: C_17  and  C_18
REMARK    4  A    between atoms: C_18  and  O_20
REMARK    5  A    between atoms: C_21  and  C_22
REMARK    6  A    between atoms: C_22  and  O_24
REMARK                            x       y       z     vdW  Elec       q    Type
REMARK                         _______ _______ _______ _____ _____    ______ ____
ROOT
ATOM      1  C   UNL     1      -0.008  11.658  19.808  0.00  0.00    +0.000 C 
ATOM      2  C   UNL     1       0.245  13.240  19.673  0.00  0.00    +0.000 A 
ATOM      3  C   UNL     1       1.146  13.833  18.774  0.00  0.00    +0.000 A 
ATOM      4  C   UNL     1       1.459  15.190  18.865  0.00  0.00    +0.000 A 
ATOM      5  C   UNL     1       0.870  15.984  19.846  0.00  0.00    +0.000 A 
ATOM      6  C   UNL     1      -0.073  15.441  20.718  0.00  0.00    +0.000 A 
ATOM      7  C   UNL     1      -0.414  14.081  20.644  0.00  0.00    +0.000 A 
ATOM      8  C   UNL     1      -1.351  13.456  21.640  0.00  0.00    +0.000 A 
ATOM      9  C   UNL     1      -2.515  14.095  22.083  0.00  0.00    +0.000 A 
ATOM     10  C   UNL     1      -3.368  13.462  22.990  0.00  0.00    +0.000 A 
ATOM     11  C   UNL     1      -3.055  12.197  23.486  0.00  0.00    +0.000 A 
ATOM     12  C   UNL     1      -1.908  11.535  23.049  0.00  0.00    +0.000 A 
ATOM     13  C   UNL     1      -1.062  12.128  22.103  0.00  0.00    +0.000 A 
ATOM     14  C   UNL     1       0.164  11.429  21.423  0.00  0.00    +0.000 C 
ATOM     15  C   UNL     1       0.414   9.968  21.072  0.00  0.00    +0.000 C 
ATOM     16  C   UNL     1       1.066  10.540  19.723  0.00  0.00    +0.000 C 
ENDROOT
BRANCH   1  18
ATOM     17  C   UNL     1      -1.927  12.009  18.274  0.00  0.00    +0.000 C 
ATOM     18  O   UNL     1      -1.322  11.251  19.309  0.00  0.00    +0.000 OA
ENDBRANCH   1  18
BRANCH  15  19
ATOM     19  C   UNL     1       1.388   9.135  21.929  0.00  0.00    +0.000 C 
ATOM     20  O   UNL     1       1.962   9.525  22.940  0.00  0.00    +0.000 OA
BRANCH  19  21
ATOM     21  O   UNL     1       1.602   7.885  21.443  0.00  0.00    +0.000 OA
ATOM     22  H   UNL     1       1.993   7.261  22.097  0.00  0.00    +0.000 HD
ENDBRANCH  19  21
ENDBRANCH  15  19
BRANCH  16  23
ATOM     23  C   UNL     1       1.047   9.507  18.591  0.00  0.00    +0.000 C 
ATOM     24  O   UNL     1       1.795   8.530  18.552  0.00  0.00    +0.000 OA
BRANCH  23  25
ATOM     25  O   UNL     1       0.195   9.777  17.572  0.00  0.00    +0.000 OA
ATOM     26  H   UNL     1      -0.514   9.118  17.455  0.00  0.00    +0.000 HD
ENDBRANCH  23  25
ENDBRANCH  16  23
TORSDOF 5
ENDMDL
