MODEL 1
REMARK VINA RESULT:      -6.8      0.000      0.000
REMARK  Name = 
REMARK  10 active torsions:
REMARK  status: ('A' for Active; 'I' for Inactive)
REMARK    1  A    between atoms: C_1  and  O_2
REMARK    2  A    between atoms: O_2  and  C_3
REMARK    3  A    between atoms: C_5  and  C_6
REMARK    4  A    between atoms: N_7  and  N_8
REMARK    5  A    between atoms: C_9  and  C_10
REMARK    6  A    between atoms: C_13  and  C_14
REMARK    7  A    between atoms: C_16  and  O_17
REMARK    8  A    between atoms: O_17  and  C_18
REMARK    9  A    between atoms: C_19  and  O_20
REMARK   10  A    between atoms: O_20  and  C_21
REMARK                            x       y       z     vdW  Elec       q    Type
REMARK                         _______ _______ _______ _____ _____    ______ ____
ROOT
ATOM      1  C   UNL     1       6.183   4.156  14.587  0.00  0.00    +0.000 A 
ATOM      2  C   UNL     1       5.137   3.915  15.495  0.00  0.00    +0.000 A 
ATOM      3  C   UNL     1       4.973   4.723  16.614  0.00  0.00    +0.000 A 
ATOM      4  C   UNL     1       5.896   5.725  16.880  0.00  0.00    +0.000 A 
ATOM      5  C   UNL     1       6.994   5.937  16.026  0.00  0.00    +0.000 A 
ATOM      6  C   UNL     1       7.153   5.149  14.863  0.00  0.00    +0.000 A 
ENDROOT
BRANCH   1   8
ATOM      7  C   UNL     1       5.128   3.481  12.576  0.00  0.00    +0.000 C 
ATOM      8  O   UNL     1       6.269   3.414  13.435  0.00  0.00    +0.000 OA
ENDBRANCH   1   8
BRANCH   3   9
ATOM      9  C   UNL     1       3.781   4.587  17.482  0.00  0.00    +0.000 C 
ATOM     10  N   UNL     1       3.889   4.338  18.748  0.00  0.00    +0.000 NA
BRANCH  10  11
ATOM     11  N   UNL     1       2.715   4.103  19.422  0.00  0.00    +0.000 N 
ATOM     12  C   UNL     1       2.026   2.905  19.411  0.00  0.00    +0.000 A 
ATOM     13  C   UNL     1       2.470   1.687  18.699  0.00  0.00    +0.000 C 
ATOM     14  N   UNL     1       0.939   3.007  20.147  0.00  0.00    +0.000 NA
ATOM     15  N   UNL     1       0.844   4.299  20.582  0.00  0.00    +0.000 NA
ATOM     16  C   UNL     1       1.869   4.971  20.100  0.00  0.00    +0.000 A 
ATOM     17  C   UNL     1       2.025   6.441  20.180  0.00  0.00    +0.000 C 
ENDBRANCH  10  11
ENDBRANCH   3   9
BRANCH   5  18
ATOM     18  O   UNL     1       7.777   6.975  16.480  0.00  0.00    +0.000 OA
ATOM     19  C   UNL     1       7.666   7.404  17.830  0.00  0.00    +0.000 C 
ENDBRANCH   5  18
BRANCH   6  20
ATOM     20  O   UNL     1       8.240   5.449  14.089  0.00  0.00    +0.000 OA
ATOM     21  C   UNL     1       8.126   5.699  12.699  0.00  0.00    +0.000 C 
ENDBRANCH   6  20
TORSDOF 5
ENDMDL
MODEL 2
REMARK VINA RESULT:      -6.7      0.333      1.767
REMARK  Name = 
REMARK  10 active torsions:
REMARK  status: ('A' for Active; 'I' for Inactive)
REMARK    1  A    between atoms: C_1  and  O_2
REMARK    2  A    between atoms: O_2  and  C_3
REMARK    3  A    between atoms: C_5  and  C_6
REMARK    4  A    between atoms: N_7  and  N_8
REMARK    5  A    between atoms: C_9  and  C_10
REMARK    6  A    between atoms: C_13  and  C_14
REMARK    7  A    between atoms: C_16  and  O_17
REMARK    8  A    between atoms: O_17  and  C_18
REMARK    9  A    between atoms: C_19  and  O_20
REMARK   10  A    between atoms: O_20  and  C_21
REMARK                            x       y       z     vdW  Elec       q    Type
REMARK                         _______ _______ _______ _____ _____    ______ ____
ROOT
ATOM      1  C   UNL     1       6.219   4.105  14.214  0.00  0.00    +0.000 A 
ATOM      2  C   UNL     1       5.168   3.751  15.078  0.00  0.00    +0.000 A 
ATOM      3  C   UNL     1       4.975   4.435  16.273  0.00  0.00    +0.000 A 
ATOM      4  C   UNL     1       5.875   5.420  16.654  0.00  0.00    +0.000 A 
ATOM      5  C   UNL     1       6.979   5.741  15.841  0.00  0.00    +0.000 A 
ATOM      6  C   UNL     1       7.166   5.081  14.605  0.00  0.00    +0.000 A 
ENDROOT
BRANCH   1   8
ATOM      7  C   UNL     1       5.115   3.366  12.252  0.00  0.00    +0.000 C 
ATOM      8  O   UNL     1       6.333   3.488  12.992  0.00  0.00    +0.000 OA
ENDBRANCH   1   8
BRANCH   3   9
ATOM      9  C   UNL     1       3.776   4.187  17.106  0.00  0.00    +0.000 C 
ATOM     10  N   UNL     1       3.736   4.527  18.355  0.00  0.00    +0.000 NA
BRANCH  10  11
ATOM     11  N   UNL     1       2.625   4.128  19.056  0.00  0.00    +0.000 N 
ATOM     12  C   UNL     1       1.886   4.944  19.893  0.00  0.00    +0.000 A 
ATOM     13  C   UNL     1       2.165   6.377  20.130  0.00  0.00    +0.000 C 
ATOM     14  N   UNL     1       0.890   4.262  20.419  0.00  0.00    +0.000 NA
ATOM     15  N   UNL     1       1.007   2.963  20.010  0.00  0.00    +0.000 NA
ATOM     16  C   UNL     1       2.077   2.867  19.247  0.00  0.00    +0.000 A 
ATOM     17  C   UNL     1       2.656   1.593  18.767  0.00  0.00    +0.000 C 
ENDBRANCH  10  11
ENDBRANCH   3   9
BRANCH   5  18
ATOM     18  O   UNL     1       7.736   6.740  16.411  0.00  0.00    +0.000 OA
ATOM     19  C   UNL     1       7.347   7.294  17.660  0.00  0.00    +0.000 C 
ENDBRANCH   5  18
BRANCH   6  20
ATOM     20  O   UNL     1       8.256   5.480  13.880  0.00  0.00    +0.000 OA
ATOM     21  C   UNL     1       8.154   5.864  12.520  0.00  0.00    +0.000 C 
ENDBRANCH   6  20
TORSDOF 5
ENDMDL
MODEL 3
REMARK VINA RESULT:      -6.7      0.259      2.863
REMARK  Name = 
REMARK  10 active torsions:
REMARK  status: ('A' for Active; 'I' for Inactive)
REMARK    1  A    between atoms: C_1  and  O_2
REMARK    2  A    between atoms: O_2  and  C_3
REMARK    3  A    between atoms: C_5  and  C_6
REMARK    4  A    between atoms: N_7  and  N_8
REMARK    5  A    between atoms: C_9  and  C_10
REMARK    6  A    between atoms: C_13  and  C_14
REMARK    7  A    between atoms: C_16  and  O_17
REMARK    8  A    between atoms: O_17  and  C_18
REMARK    9  A    between atoms: C_19  and  O_20
REMARK   10  A    between atoms: O_20  and  C_21
REMARK                            x       y       z     vdW  Elec       q    Type
REMARK                         _______ _______ _______ _____ _____    ______ ____
ROOT
ATOM      1  C   UNL     1       6.908   5.987  16.086  0.00  0.00    +0.000 A 
ATOM      2  C   UNL     1       5.743   5.784  16.847  0.00  0.00    +0.000 A 
ATOM      3  C   UNL     1       4.873   4.742  16.542  0.00  0.00    +0.000 A 
ATOM      4  C   UNL     1       5.116   3.947  15.430  0.00  0.00    +0.000 A 
ATOM      5  C   UNL     1       6.237   4.179  14.610  0.00  0.00    +0.000 A 
ATOM      6  C   UNL     1       7.150   5.209  14.929  0.00  0.00    +0.000 A 
ENDROOT
BRANCH   1   8
ATOM      7  C   UNL     1       7.684   7.411  17.814  0.00  0.00    +0.000 C 
ATOM      8  O   UNL     1       7.806   6.955  16.464  0.00  0.00    +0.000 OA
ENDBRANCH   1   8
BRANCH   3   9
ATOM      9  C   UNL     1       3.738   4.414  17.434  0.00  0.00    +0.000 C 
ATOM     10  N   UNL     1       3.864   4.420  18.722  0.00  0.00    +0.000 NA
BRANCH  10  11
ATOM     11  N   UNL     1       2.781   3.972  19.439  0.00  0.00    +0.000 N 
ATOM     12  C   UNL     1       2.263   2.693  19.367  0.00  0.00    +0.000 A 
ATOM     13  C   UNL     1       2.820   1.606  18.531  0.00  0.00    +0.000 C 
ATOM     14  N   UNL     1       1.225   2.584  20.169  0.00  0.00    +0.000 NA
ATOM     15  N   UNL     1       0.984   3.814  20.715  0.00  0.00    +0.000 NA
ATOM     16  C   UNL     1       1.874   4.658  20.234  0.00  0.00    +0.000 A 
ATOM     17  C   UNL     1       1.833   6.124  20.429  0.00  0.00    +0.000 C 
ENDBRANCH  10  11
ENDBRANCH   3   9
BRANCH   5  18
ATOM     18  O   UNL     1       6.280   3.277  13.570  0.00  0.00    +0.000 OA
ATOM     19  C   UNL     1       5.399   3.432  12.466  0.00  0.00    +0.000 C 
ENDBRANCH   5  18
BRANCH   6  20
ATOM     20  O   UNL     1       8.216   5.338  14.082  0.00  0.00    +0.000 OA
ATOM     21  C   UNL     1       8.067   5.800  12.751  0.00  0.00    +0.000 C 
ENDBRANCH   6  20
TORSDOF 5
ENDMDL
MODEL 4
REMARK VINA RESULT:      -6.6      0.231      3.343
REMARK  Name = 
REMARK  10 active torsions:
REMARK  status: ('A' for Active; 'I' for Inactive)
REMARK    1  A    between atoms: C_1  and  O_2
REMARK    2  A    between atoms: O_2  and  C_3
REMARK    3  A    between atoms: C_5  and  C_6
REMARK    4  A    between atoms: N_7  and  N_8
REMARK    5  A    between atoms: C_9  and  C_10
REMARK    6  A    between atoms: C_13  and  C_14
REMARK    7  A    between atoms: C_16  and  O_17
REMARK    8  A    between atoms: O_17  and  C_18
REMARK    9  A    between atoms: C_19  and  O_20
REMARK   10  A    between atoms: O_20  and  C_21
REMARK                            x       y       z     vdW  Elec       q    Type
REMARK                         _______ _______ _______ _____ _____    ______ ____
ROOT
ATOM      1  C   UNL     1       6.934   5.936  16.028  0.00  0.00    +0.000 A 
ATOM      2  C   UNL     1       5.743   5.740  16.749  0.00  0.00    +0.000 A 
ATOM      3  C   UNL     1       4.846   4.747  16.374  0.00  0.00    +0.000 A 
ATOM      4  C   UNL     1       5.089   3.995  15.233  0.00  0.00    +0.000 A 
ATOM      5  C   UNL     1       6.238   4.224  14.452  0.00  0.00    +0.000 A 
ATOM      6  C   UNL     1       7.179   5.204  14.842  0.00  0.00    +0.000 A 
ENDROOT
BRANCH   1   8
ATOM      7  C   UNL     1       7.430   7.668  17.566  0.00  0.00    +0.000 C 
ATOM      8  O   UNL     1       7.856   6.851  16.472  0.00  0.00    +0.000 OA
ENDBRANCH   1   8
BRANCH   3   9
ATOM      9  C   UNL     1       3.676   4.419  17.222  0.00  0.00    +0.000 C 
ATOM     10  N   UNL     1       3.715   4.548  18.509  0.00  0.00    +0.000 NA
BRANCH  10  11
ATOM     11  N   UNL     1       2.617   4.090  19.197  0.00  0.00    +0.000 N 
ATOM     12  C   UNL     1       1.830   4.864  20.029  0.00  0.00    +0.000 A 
ATOM     13  C   UNL     1       2.034   6.308  20.275  0.00  0.00    +0.000 C 
ATOM     14  N   UNL     1       0.865   4.129  20.542  0.00  0.00    +0.000 NA
ATOM     15  N   UNL     1       1.052   2.840  20.130  0.00  0.00    +0.000 NA
ATOM     16  C   UNL     1       2.132   2.802  19.376  0.00  0.00    +0.000 A 
ATOM     17  C   UNL     1       2.781   1.561  18.897  0.00  0.00    +0.000 C 
ENDBRANCH  10  11
ENDBRANCH   3   9
BRANCH   5  18
ATOM     18  O   UNL     1       6.276   3.370  13.372  0.00  0.00    +0.000 OA
ATOM     19  C   UNL     1       5.252   3.431  12.389  0.00  0.00    +0.000 C 
ENDBRANCH   5  18
BRANCH   6  20
ATOM     20  O   UNL     1       8.271   5.333  14.028  0.00  0.00    +0.000 OA
ATOM     21  C   UNL     1       8.161   5.781  12.688  0.00  0.00    +0.000 C 
ENDBRANCH   6  20
TORSDOF 5
ENDMDL
MODEL 5
REMARK VINA RESULT:      -6.6      4.268      6.659
REMARK  Name = 
REMARK  10 active torsions:
REMARK  status: ('A' for Active; 'I' for Inactive)
REMARK    1  A    between atoms: C_1  and  O_2
REMARK    2  A    between atoms: O_2  and  C_3
REMARK    3  A    between atoms: C_5  and  C_6
REMARK    4  A    between atoms: N_7  and  N_8
REMARK    5  A    between atoms: C_9  and  C_10
REMARK    6  A    between atoms: C_13  and  C_14
REMARK    7  A    between atoms: C_16  and  O_17
REMARK    8  A    between atoms: O_17  and  C_18
REMARK    9  A    between atoms: C_19  and  O_20
REMARK   10  A    between atoms: O_20  and  C_21
REMARK                            x       y       z     vdW  Elec       q    Type
REMARK                         _______ _______ _______ _____ _____    ______ ____
ROOT
ATOM      1  C   UNL     1       1.696   4.031  19.894  0.00  0.00    +0.000 A 
ATOM      2  C   UNL     1       1.630   5.353  20.368  0.00  0.00    +0.000 A 
ATOM      3  C   UNL     1       2.235   6.388  19.662  0.00  0.00    +0.000 A 
ATOM      4  C   UNL     1       2.976   6.102  18.524  0.00  0.00    +0.000 A 
ATOM      5  C   UNL     1       3.119   4.777  18.072  0.00  0.00    +0.000 A 
ATOM      6  C   UNL     1       2.479   3.719  18.757  0.00  0.00    +0.000 A 
ENDROOT
BRANCH   1   8
ATOM      7  C   UNL     1       1.519   2.684  21.836  0.00  0.00    +0.000 C 
ATOM      8  O   UNL     1       1.008   3.039  20.548  0.00  0.00    +0.000 OA
ENDBRANCH   1   8
BRANCH   3   9
ATOM      9  C   UNL     1       2.029   7.800  20.057  0.00  0.00    +0.000 C 
ATOM     10  N   UNL     1       0.952   8.184  20.665  0.00  0.00    +0.000 NA
BRANCH  10  11
ATOM     11  N   UNL     1       0.817   9.536  20.862  0.00  0.00    +0.000 N 
ATOM     12  C   UNL     1       0.364  10.121  22.030  0.00  0.00    +0.000 A 
ATOM     13  C   UNL     1      -0.009   9.376  23.252  0.00  0.00    +0.000 C 
ATOM     14  N   UNL     1       0.344  11.431  21.897  0.00  0.00    +0.000 NA
ATOM     15  N   UNL     1       0.696  11.729  20.610  0.00  0.00    +0.000 NA
ATOM     16  C   UNL     1       0.919  10.597  19.972  0.00  0.00    +0.000 A 
ATOM     17  C   UNL     1       1.132  10.482  18.513  0.00  0.00    +0.000 C 
ENDBRANCH  10  11
ENDBRANCH   3   9
BRANCH   5  18
ATOM     18  O   UNL     1       3.892   4.726  16.934  0.00  0.00    +0.000 OA
ATOM     19  C   UNL     1       5.303   4.597  17.045  0.00  0.00    +0.000 C 
ENDBRANCH   5  18
BRANCH   6  20
ATOM     20  O   UNL     1       2.662   2.472  18.226  0.00  0.00    +0.000 OA
ATOM     21  C   UNL     1       3.668   1.594  18.700  0.00  0.00    +0.000 C 
ENDBRANCH   6  20
TORSDOF 5
ENDMDL
MODEL 6
REMARK VINA RESULT:      -6.4      4.843      6.858
REMARK  Name = 
REMARK  10 active torsions:
REMARK  status: ('A' for Active; 'I' for Inactive)
REMARK    1  A    between atoms: C_1  and  O_2
REMARK    2  A    between atoms: O_2  and  C_3
REMARK    3  A    between atoms: C_5  and  C_6
REMARK    4  A    between atoms: N_7  and  N_8
REMARK    5  A    between atoms: C_9  and  C_10
REMARK    6  A    between atoms: C_13  and  C_14
REMARK    7  A    between atoms: C_16  and  O_17
REMARK    8  A    between atoms: O_17  and  C_18
REMARK    9  A    between atoms: C_19  and  O_20
REMARK   10  A    between atoms: O_20  and  C_21
REMARK                            x       y       z     vdW  Elec       q    Type
REMARK                         _______ _______ _______ _____ _____    ______ ____
ROOT
ATOM      1  C   UNL     1       2.723   5.908  19.715  0.00  0.00    +0.000 A 
ATOM      2  C   UNL     1       2.134   7.182  19.621  0.00  0.00    +0.000 A 
ATOM      3  C   UNL     1       2.410   8.009  18.538  0.00  0.00    +0.000 A 
ATOM      4  C   UNL     1       3.334   7.607  17.583  0.00  0.00    +0.000 A 
ATOM      5  C   UNL     1       3.992   6.368  17.696  0.00  0.00    +0.000 A 
ATOM      6  C   UNL     1       3.694   5.499  18.771  0.00  0.00    +0.000 A 
ENDROOT
BRANCH   1   8
ATOM      7  C   UNL     1       1.169   4.308  20.514  0.00  0.00    +0.000 C 
ATOM      8  O   UNL     1       2.361   5.066  20.737  0.00  0.00    +0.000 OA
ENDBRANCH   1   8
BRANCH   3   9
ATOM      9  C   UNL     1       1.669   9.276  18.341  0.00  0.00    +0.000 C 
ATOM     10  N   UNL     1       0.776   9.677  19.187  0.00  0.00    +0.000 NA
BRANCH  10  11
ATOM     11  N   UNL     1       0.064  10.797  18.831  0.00  0.00    +0.000 N 
ATOM     12  C   UNL     1       0.281  12.064  19.341  0.00  0.00    +0.000 A 
ATOM     13  C   UNL     1       1.336  12.406  20.320  0.00  0.00    +0.000 C 
ATOM     14  N   UNL     1      -0.569  12.914  18.804  0.00  0.00    +0.000 NA
ATOM     15  N   UNL     1      -1.420  12.209  18.001  0.00  0.00    +0.000 NA
ATOM     16  C   UNL     1      -1.084  10.936  18.063  0.00  0.00    +0.000 A 
ATOM     17  C   UNL     1      -1.879   9.827  17.491  0.00  0.00    +0.000 C 
ENDBRANCH  10  11
ENDBRANCH   3   9
BRANCH   5  18
ATOM     18  O   UNL     1       4.862   6.176  16.646  0.00  0.00    +0.000 OA
ATOM     19  C   UNL     1       6.244   6.460  16.813  0.00  0.00    +0.000 C 
ENDBRANCH   5  18
BRANCH   6  20
ATOM     20  O   UNL     1       4.372   4.311  18.777  0.00  0.00    +0.000 OA
ATOM     21  C   UNL     1       3.863   3.153  18.138  0.00  0.00    +0.000 C 
ENDBRANCH   6  20
TORSDOF 5
ENDMDL
MODEL 7
REMARK VINA RESULT:      -6.4      4.135      6.419
REMARK  Name = 
REMARK  10 active torsions:
REMARK  status: ('A' for Active; 'I' for Inactive)
REMARK    1  A    between atoms: C_1  and  O_2
REMARK    2  A    between atoms: O_2  and  C_3
REMARK    3  A    between atoms: C_5  and  C_6
REMARK    4  A    between atoms: N_7  and  N_8
REMARK    5  A    between atoms: C_9  and  C_10
REMARK    6  A    between atoms: C_13  and  C_14
REMARK    7  A    between atoms: C_16  and  O_17
REMARK    8  A    between atoms: O_17  and  C_18
REMARK    9  A    between atoms: C_19  and  O_20
REMARK   10  A    between atoms: O_20  and  C_21
REMARK                            x       y       z     vdW  Elec       q    Type
REMARK                         _______ _______ _______ _____ _____    ______ ____
ROOT
ATOM      1  C   UNL     1       2.813   4.479  20.185  0.00  0.00    +0.000 A 
ATOM      2  C   UNL     1       2.338   5.763  20.506  0.00  0.00    +0.000 A 
ATOM      3  C   UNL     1       2.455   6.807  19.594  0.00  0.00    +0.000 A 
ATOM      4  C   UNL     1       3.115   6.598  18.391  0.00  0.00    +0.000 A 
ATOM      5  C   UNL     1       3.664   5.340  18.080  0.00  0.00    +0.000 A 
ATOM      6  C   UNL     1       3.520   4.259  18.979  0.00  0.00    +0.000 A 
ENDROOT
BRANCH   1   8
ATOM      7  C   UNL     1       1.258   2.939  21.095  0.00  0.00    +0.000 C 
ATOM      8  O   UNL     1       2.598   3.438  21.055  0.00  0.00    +0.000 OA
ENDBRANCH   1   8
BRANCH   3   9
ATOM      9  C   UNL     1       1.810   8.115  19.850  0.00  0.00    +0.000 C 
ATOM     10  N   UNL     1       0.869   8.247  20.729  0.00  0.00    +0.000 NA
BRANCH  10  11
ATOM     11  N   UNL     1       0.259   9.476  20.785  0.00  0.00    +0.000 N 
ATOM     12  C   UNL     1      -0.172  10.091  21.945  0.00  0.00    +0.000 A 
ATOM     13  C   UNL     1      -0.010   9.528  23.304  0.00  0.00    +0.000 C 
ATOM     14  N   UNL     1      -0.719  11.254  21.660  0.00  0.00    +0.000 NA
ATOM     15  N   UNL     1      -0.741  11.387  20.300  0.00  0.00    +0.000 NA
ATOM     16  C   UNL     1      -0.214  10.301  19.772  0.00  0.00    +0.000 A 
ATOM     17  C   UNL     1      -0.231   9.972  18.330  0.00  0.00    +0.000 C 
ENDBRANCH  10  11
ENDBRANCH   3   9
BRANCH   5  18
ATOM     18  O   UNL     1       4.270   5.361  16.844  0.00  0.00    +0.000 OA
ATOM     19  C   UNL     1       5.168   6.412  16.516  0.00  0.00    +0.000 C 
ENDBRANCH   5  18
BRANCH   6  20
ATOM     20  O   UNL     1       4.070   3.075  18.574  0.00  0.00    +0.000 OA
ATOM     21  C   UNL     1       3.296   2.057  17.963  0.00  0.00    +0.000 C 
ENDBRANCH   6  20
TORSDOF 5
ENDMDL
MODEL 8
REMARK VINA RESULT:      -6.4      4.310      6.733
REMARK  Name = 
REMARK  10 active torsions:
REMARK  status: ('A' for Active; 'I' for Inactive)
REMARK    1  A    between atoms: C_1  and  O_2
REMARK    2  A    between atoms: O_2  and  C_3
REMARK    3  A    between atoms: C_5  and  C_6
REMARK    4  A    between atoms: N_7  and  N_8
REMARK    5  A    between atoms: C_9  and  C_10
REMARK    6  A    between atoms: C_13  and  C_14
REMARK    7  A    between atoms: C_16  and  O_17
REMARK    8  A    between atoms: O_17  and  C_18
REMARK    9  A    between atoms: C_19  and  O_20
REMARK   10  A    between atoms: O_20  and  C_21
REMARK                            x       y       z     vdW  Elec       q    Type
REMARK                         _______ _______ _______ _____ _____    ______ ____
ROOT
ATOM      1  C   UNL     1       3.972   5.041  18.966  0.00  0.00    +0.000 A 
ATOM      2  C   UNL     1       3.454   6.339  19.117  0.00  0.00    +0.000 A 
ATOM      3  C   UNL     1       2.293   6.555  19.851  0.00  0.00    +0.000 A 
ATOM      4  C   UNL     1       1.596   5.473  20.370  0.00  0.00    +0.000 A 
ATOM      5  C   UNL     1       2.055   4.158  20.167  0.00  0.00    +0.000 A 
ATOM      6  C   UNL     1       3.255   3.924  19.457  0.00  0.00    +0.000 A 
ENDROOT
BRANCH   1   8
ATOM      7  C   UNL     1       6.326   5.308  19.045  0.00  0.00    +0.000 C 
ATOM      8  O   UNL     1       5.174   4.858  18.326  0.00  0.00    +0.000 OA
ENDBRANCH   1   8
BRANCH   3   9
ATOM      9  C   UNL     1       1.833   7.929  20.160  0.00  0.00    +0.000 C 
ATOM     10  N   UNL     1       0.711   8.147  20.768  0.00  0.00    +0.000 NA
BRANCH  10  11
ATOM     11  N   UNL     1       0.330   9.462  20.881  0.00  0.00    +0.000 N 
ATOM     12  C   UNL     1       0.009  10.089  22.071  0.00  0.00    +0.000 A 
ATOM     13  C   UNL     1       0.063   9.445  23.401  0.00  0.00    +0.000 C 
ATOM     14  N   UNL     1      -0.321  11.343  21.841  0.00  0.00    +0.000 NA
ATOM     15  N   UNL     1      -0.312  11.540  20.488  0.00  0.00    +0.000 NA
ATOM     16  C   UNL     1       0.016  10.402  19.910  0.00  0.00    +0.000 A 
ATOM     17  C   UNL     1      -0.054  10.149  18.454  0.00  0.00    +0.000 C 
ENDBRANCH  10  11
ENDBRANCH   3   9
BRANCH   5  18
ATOM     18  O   UNL     1       1.214   3.246  20.765  0.00  0.00    +0.000 OA
ATOM     19  C   UNL     1       1.629   2.571  21.945  0.00  0.00    +0.000 C 
ENDBRANCH   5  18
BRANCH   6  20
ATOM     20  O   UNL     1       3.625   2.614  19.334  0.00  0.00    +0.000 OA
ATOM     21  C   UNL     1       3.296   1.844  18.190  0.00  0.00    +0.000 C 
ENDBRANCH   6  20
TORSDOF 5
ENDMDL
MODEL 9
REMARK VINA RESULT:      -6.4      4.408      6.732
REMARK  Name = 
REMARK  10 active torsions:
REMARK  status: ('A' for Active; 'I' for Inactive)
REMARK    1  A    between atoms: C_1  and  O_2
REMARK    2  A    between atoms: O_2  and  C_3
REMARK    3  A    between atoms: C_5  and  C_6
REMARK    4  A    between atoms: N_7  and  N_8
REMARK    5  A    between atoms: C_9  and  C_10
REMARK    6  A    between atoms: C_13  and  C_14
REMARK    7  A    between atoms: C_16  and  O_17
REMARK    8  A    between atoms: O_17  and  C_18
REMARK    9  A    between atoms: C_19  and  O_20
REMARK   10  A    between atoms: O_20  and  C_21
REMARK                            x       y       z     vdW  Elec       q    Type
REMARK                         _______ _______ _______ _____ _____    ______ ____
ROOT
ATOM      1  C   UNL     1       2.994   5.031  18.126  0.00  0.00    +0.000 A 
ATOM      2  C   UNL     1       2.729   6.333  18.586  0.00  0.00    +0.000 A 
ATOM      3  C   UNL     1       1.988   6.535  19.745  0.00  0.00    +0.000 A 
ATOM      4  C   UNL     1       1.439   5.446  20.409  0.00  0.00    +0.000 A 
ATOM      5  C   UNL     1       1.629   4.138  19.925  0.00  0.00    +0.000 A 
ATOM      6  C   UNL     1       2.412   3.913  18.770  0.00  0.00    +0.000 A 
ENDROOT
BRANCH   1   8
ATOM      7  C   UNL     1       4.900   5.770  16.926  0.00  0.00    +0.000 C 
ATOM      8  O   UNL     1       3.813   4.847  17.039  0.00  0.00    +0.000 OA
ENDBRANCH   1   8
BRANCH   3   9
ATOM      9  C   UNL     1       1.847   7.888  20.331  0.00  0.00    +0.000 C 
ATOM     10  N   UNL     1       0.725   8.532  20.285  0.00  0.00    +0.000 NA
BRANCH  10  11
ATOM     11  N   UNL     1       0.751   9.827  20.743  0.00  0.00    +0.000 N 
ATOM     12  C   UNL     1       0.264  10.238  21.970  0.00  0.00    +0.000 A 
ATOM     13  C   UNL     1      -0.327   9.338  22.984  0.00  0.00    +0.000 C 
ATOM     14  N   UNL     1       0.431  11.537  22.105  0.00  0.00    +0.000 NA
ATOM     15  N   UNL     1       0.947  12.020  20.934  0.00  0.00    +0.000 NA
ATOM     16  C   UNL     1       1.082  11.011  20.098  0.00  0.00    +0.000 A 
ATOM     17  C   UNL     1       1.424  11.146  18.665  0.00  0.00    +0.000 C 
ENDBRANCH  10  11
ENDBRANCH   3   9
BRANCH   5  18
ATOM     18  O   UNL     1       0.999   3.219  20.734  0.00  0.00    +0.000 OA
ATOM     19  C   UNL     1       1.699   2.647  21.830  0.00  0.00    +0.000 C 
ENDBRANCH   5  18
BRANCH   6  20
ATOM     20  O   UNL     1       2.553   2.606  18.395  0.00  0.00    +0.000 OA
ATOM     21  C   UNL     1       3.677   1.832  18.776  0.00  0.00    +0.000 C 
ENDBRANCH   6  20
TORSDOF 5
ENDMDL
