MODEL 1
REMARK VINA RESULT:      -7.5      0.000      0.000
REMARK  Name = 
REMARK  7 active torsions:
REMARK  status: ('A' for Active; 'I' for Inactive)
REMARK    1  A    between atoms: C_1  and  C_2
REMARK    2  A    between atoms: C_2  and  C_19
REMARK    3  A    between atoms: N_3  and  N_4
REMARK    4  A    between atoms: C_5  and  S_6
REMARK    5  A    between atoms: N_7  and  N_8
REMARK    6  A    between atoms: C_9  and  S_10
REMARK    7  A    between atoms: C_9  and  C_11
REMARK                            x       y       z     vdW  Elec       q    Type
REMARK                         _______ _______ _______ _____ _____    ______ ____
ROOT
ATOM      1  N   UNL     1       2.014   7.472  19.953  0.00  0.00    +0.000 NA
ATOM      2  C   UNL     1       1.298   8.549  20.073  0.00  0.00    +0.000 C 
ATOM      3  N   UNL     1       1.484   9.710  19.366  0.00  0.00    +0.000 N 
ATOM      4  H   UNL     1       1.995   9.515  18.503  0.00  0.00    +0.000 HD
ENDROOT
BRANCH   1   7
ATOM      5  C   UNL     1       4.014   6.216  17.187  0.00  0.00    +0.000 C 
ATOM      6  C   UNL     1       3.199   6.264  18.468  0.00  0.00    +0.000 C 
ATOM      7  N   UNL     1       2.936   7.465  18.921  0.00  0.00    +0.000 NA
BRANCH   6   8
ATOM      8  C   UNL     1       2.742   4.906  19.112  0.00  0.00    +0.000 C 
ATOM      9  C   UNL     1       2.220   5.089  20.566  0.00  0.00    +0.000 C 
ATOM     10  C   UNL     1       1.761   3.747  21.171  0.00  0.00    +0.000 C 
ATOM     11  C   UNL     1       0.626   3.163  20.313  0.00  0.00    +0.000 C 
ATOM     12  C   UNL     1       1.120   2.958  18.869  0.00  0.00    +0.000 C 
ATOM     13  C   UNL     1       2.311   1.984  18.881  0.00  0.00    +0.000 C 
ATOM     14  C   UNL     1       3.446   2.542  19.760  0.00  0.00    +0.000 C 
ATOM     15  C   UNL     1       2.939   2.766  21.186  0.00  0.00    +0.000 C 
ATOM     16  C   UNL     1       3.915   3.886  19.186  0.00  0.00    +0.000 C 
ATOM     17  C   UNL     1       1.572   4.305  18.282  0.00  0.00    +0.000 C 
ENDBRANCH   6   8
ENDBRANCH   1   7
BRANCH   2  18
ATOM     18  S   UNL     1       0.021   8.424  21.271  0.00  0.00    +0.000 S 
ATOM     19  H   UNL     1      -0.731   7.608  20.516  0.00  0.00    +0.000 HD
ENDBRANCH   2  18
BRANCH   3  20
ATOM     20  N   UNL     1       1.104  11.013  19.540  0.00  0.00    +0.000 NA
ATOM     21  C   UNL     1      -0.021  11.511  19.108  0.00  0.00    +0.000 C 
BRANCH  21  22
ATOM     22  C   UNL     1      -0.429  12.930  19.485  0.00  0.00    +0.000 A 
ATOM     23  C   UNL     1      -0.012  14.008  18.665  0.00  0.00    +0.000 A 
ATOM     24  C   UNL     1      -0.366  15.332  18.931  0.00  0.00    +0.000 A 
ATOM     25  C   UNL     1      -1.172  15.615  20.018  0.00  0.00    +0.000 A 
ATOM     26 CL   UNL     1      -1.612  17.242  20.345  0.00  0.00    +0.000 Cl
ATOM     27  C   UNL     1      -1.633  14.583  20.831  0.00  0.00    +0.000 A 
ATOM     28  C   UNL     1      -1.266  13.247  20.575  0.00  0.00    +0.000 A 
ATOM     29 CL   UNL     1      -1.901  12.095  21.698  0.00  0.00    +0.000 Cl
ENDBRANCH  21  22
BRANCH  21  30
ATOM     30  S   UNL     1      -1.234  10.622  18.160  0.00  0.00    +0.000 S 
ATOM     31  H   UNL     1      -1.911  10.078  19.167  0.00  0.00    +0.000 HD
ENDBRANCH  21  30
ENDBRANCH   3  20
TORSDOF 6
ENDMDL
MODEL 2
REMARK VINA RESULT:      -7.5      1.631      2.293
REMARK  Name = 
REMARK  7 active torsions:
REMARK  status: ('A' for Active; 'I' for Inactive)
REMARK    1  A    between atoms: C_1  and  C_2
REMARK    2  A    between atoms: C_2  and  C_19
REMARK    3  A    between atoms: N_3  and  N_4
REMARK    4  A    between atoms: C_5  and  S_6
REMARK    5  A    between atoms: N_7  and  N_8
REMARK    6  A    between atoms: C_9  and  S_10
REMARK    7  A    between atoms: C_9  and  C_11
REMARK                            x       y       z     vdW  Elec       q    Type
REMARK                         _______ _______ _______ _____ _____    ______ ____
ROOT
ATOM      1  N   UNL     1       1.516   7.595  20.258  0.00  0.00    +0.000 NA
ATOM      2  C   UNL     1       0.934   8.631  20.782  0.00  0.00    +0.000 C 
ATOM      3  N   UNL     1       1.315   9.936  20.595  0.00  0.00    +0.000 N 
ATOM      4  H   UNL     1       1.859  10.020  19.735  0.00  0.00    +0.000 HD
ENDROOT
BRANCH   1   7
ATOM      5  C   UNL     1       3.838   7.037  17.514  0.00  0.00    +0.000 C 
ATOM      6  C   UNL     1       2.935   6.784  18.709  0.00  0.00    +0.000 C 
ATOM      7  N   UNL     1       2.503   7.857  19.323  0.00  0.00    +0.000 NA
BRANCH   6   8
ATOM      8  C   UNL     1       2.598   5.297  19.087  0.00  0.00    +0.000 C 
ATOM      9  C   UNL     1       1.551   4.666  18.124  0.00  0.00    +0.000 C 
ATOM     10  C   UNL     1       1.250   3.202  18.504  0.00  0.00    +0.000 C 
ATOM     11  C   UNL     1       2.547   2.379  18.425  0.00  0.00    +0.000 C 
ATOM     12  C   UNL     1       3.597   2.973  19.381  0.00  0.00    +0.000 C 
ATOM     13  C   UNL     1       3.047   2.934  20.817  0.00  0.00    +0.000 C 
ATOM     14  C   UNL     1       1.732   3.732  20.905  0.00  0.00    +0.000 C 
ATOM     15  C   UNL     1       0.703   3.149  19.934  0.00  0.00    +0.000 C 
ATOM     16  C   UNL     1       2.001   5.193  20.521  0.00  0.00    +0.000 C 
ATOM     17  C   UNL     1       3.886   4.431  18.988  0.00  0.00    +0.000 C 
ENDBRANCH   6   8
ENDBRANCH   1   7
BRANCH   2  18
ATOM     18  S   UNL     1      -0.432   8.234  21.810  0.00  0.00    +0.000 S 
ATOM     19  H   UNL     1      -0.683   9.514  22.124  0.00  0.00    +0.000 HD
ENDBRANCH   2  18
BRANCH   3  20
ATOM     20  N   UNL     1       1.090  11.108  21.264  0.00  0.00    +0.000 NA
ATOM     21  C   UNL     1       0.127  11.940  20.978  0.00  0.00    +0.000 C 
BRANCH  21  22
ATOM     22  C   UNL     1      -0.143  13.142  21.876  0.00  0.00    +0.000 A 
ATOM     23  C   UNL     1       0.585  14.338  21.664  0.00  0.00    +0.000 A 
ATOM     24  C   UNL     1       0.377  15.487  22.430  0.00  0.00    +0.000 A 
ATOM     25  C   UNL     1      -0.589  15.480  23.419  0.00  0.00    +0.000 A 
ATOM     26 CL   UNL     1      -0.850  16.893  24.358  0.00  0.00    +0.000 Cl
ATOM     27  C   UNL     1      -1.352  14.336  23.639  0.00  0.00    +0.000 A 
ATOM     28  C   UNL     1      -1.134  13.169  22.880  0.00  0.00    +0.000 A 
ATOM     29 CL   UNL     1      -2.147  11.832  23.303  0.00  0.00    +0.000 Cl
ENDBRANCH  21  22
BRANCH  21  30
ATOM     30  S   UNL     1      -1.022  11.749  19.636  0.00  0.00    +0.000 S 
ATOM     31  H   UNL     1      -1.011  13.001  19.187  0.00  0.00    +0.000 HD
ENDBRANCH  21  30
ENDBRANCH   3  20
TORSDOF 6
ENDMDL
MODEL 3
REMARK VINA RESULT:      -7.5      1.632      2.242
REMARK  Name = 
REMARK  7 active torsions:
REMARK  status: ('A' for Active; 'I' for Inactive)
REMARK    1  A    between atoms: C_1  and  C_2
REMARK    2  A    between atoms: C_2  and  C_19
REMARK    3  A    between atoms: N_3  and  N_4
REMARK    4  A    between atoms: C_5  and  S_6
REMARK    5  A    between atoms: N_7  and  N_8
REMARK    6  A    between atoms: C_9  and  S_10
REMARK    7  A    between atoms: C_9  and  C_11
REMARK                            x       y       z     vdW  Elec       q    Type
REMARK                         _______ _______ _______ _____ _____    ______ ____
ROOT
ATOM      1  N   UNL     1       1.512   7.563  20.335  0.00  0.00    +0.000 NA
ATOM      2  C   UNL     1       0.929   8.602  20.850  0.00  0.00    +0.000 C 
ATOM      3  N   UNL     1       1.296   9.907  20.637  0.00  0.00    +0.000 N 
ATOM      4  H   UNL     1       1.826   9.982  19.767  0.00  0.00    +0.000 HD
ENDROOT
BRANCH   1   7
ATOM      5  C   UNL     1       3.792   6.982  17.561  0.00  0.00    +0.000 C 
ATOM      6  C   UNL     1       2.909   6.739  18.773  0.00  0.00    +0.000 C 
ATOM      7  N   UNL     1       2.483   7.818  19.382  0.00  0.00    +0.000 NA
BRANCH   6   8
ATOM      8  C   UNL     1       2.582   5.255  19.172  0.00  0.00    +0.000 C 
ATOM      9  C   UNL     1       3.865   4.388  19.320  0.00  0.00    +0.000 C 
ATOM     10  C   UNL     1       3.520   2.942  19.730  0.00  0.00    +0.000 C 
ATOM     11  C   UNL     1       2.781   2.956  21.078  0.00  0.00    +0.000 C 
ATOM     12  C   UNL     1       1.497   3.798  20.956  0.00  0.00    +0.000 C 
ATOM     13  C   UNL     1       0.592   3.177  19.878  0.00  0.00    +0.000 C 
ATOM     14  C   UNL     1       1.329   3.130  18.527  0.00  0.00    +0.000 C 
ATOM     15  C   UNL     1       2.615   2.312  18.664  0.00  0.00    +0.000 C 
ATOM     16  C   UNL     1       1.695   4.557  18.100  0.00  0.00    +0.000 C 
ATOM     17  C   UNL     1       1.859   5.236  20.549  0.00  0.00    +0.000 C 
ENDBRANCH   6   8
ENDBRANCH   1   7
BRANCH   2  18
ATOM     18  S   UNL     1      -0.419   8.211  21.905  0.00  0.00    +0.000 S 
ATOM     19  H   UNL     1      -1.240   9.106  21.337  0.00  0.00    +0.000 HD
ENDBRANCH   2  18
BRANCH   3  20
ATOM     20  N   UNL     1       1.070  11.088  21.290  0.00  0.00    +0.000 NA
ATOM     21  C   UNL     1       0.085  11.897  21.018  0.00  0.00    +0.000 C 
BRANCH  21  22
ATOM     22  C   UNL     1      -0.180  13.112  21.901  0.00  0.00    +0.000 A 
ATOM     23  C   UNL     1       0.559  14.300  21.678  0.00  0.00    +0.000 A 
ATOM     24  C   UNL     1       0.357  15.459  22.429  0.00  0.00    +0.000 A 
ATOM     25  C   UNL     1      -0.613  15.471  23.414  0.00  0.00    +0.000 A 
ATOM     26 CL   UNL     1      -0.866  16.898  24.335  0.00  0.00    +0.000 Cl
ATOM     27  C   UNL     1      -1.385  14.336  23.644  0.00  0.00    +0.000 A 
ATOM     28  C   UNL     1      -1.175  13.158  22.900  0.00  0.00    +0.000 A 
ATOM     29 CL   UNL     1      -2.200  11.836  23.334  0.00  0.00    +0.000 Cl
ENDBRANCH  21  22
BRANCH  21  30
ATOM     30  S   UNL     1      -1.102  11.660  19.715  0.00  0.00    +0.000 S 
ATOM     31  H   UNL     1      -0.353  12.060  18.692  0.00  0.00    +0.000 HD
ENDBRANCH  21  30
ENDBRANCH   3  20
TORSDOF 6
ENDMDL
MODEL 4
REMARK VINA RESULT:      -7.4      1.815      2.200
REMARK  Name = 
REMARK  7 active torsions:
REMARK  status: ('A' for Active; 'I' for Inactive)
REMARK    1  A    between atoms: C_1  and  C_2
REMARK    2  A    between atoms: C_2  and  C_19
REMARK    3  A    between atoms: N_3  and  N_4
REMARK    4  A    between atoms: C_5  and  S_6
REMARK    5  A    between atoms: N_7  and  N_8
REMARK    6  A    between atoms: C_9  and  S_10
REMARK    7  A    between atoms: C_9  and  C_11
REMARK                            x       y       z     vdW  Elec       q    Type
REMARK                         _______ _______ _______ _____ _____    ______ ____
ROOT
ATOM      1  N   UNL     1       1.499   7.608  20.365  0.00  0.00    +0.000 NA
ATOM      2  C   UNL     1       0.916   8.650  20.875  0.00  0.00    +0.000 C 
ATOM      3  N   UNL     1       1.271   9.954  20.639  0.00  0.00    +0.000 N 
ATOM      4  H   UNL     1       1.789  10.022  19.762  0.00  0.00    +0.000 HD
ENDROOT
BRANCH   1   7
ATOM      5  C   UNL     1       3.734   7.011  17.558  0.00  0.00    +0.000 C 
ATOM      6  C   UNL     1       2.870   6.775  18.785  0.00  0.00    +0.000 C 
ATOM      7  N   UNL     1       2.455   7.857  19.395  0.00  0.00    +0.000 NA
BRANCH   6   8
ATOM      8  C   UNL     1       2.549   5.293  19.197  0.00  0.00    +0.000 C 
ATOM      9  C   UNL     1       1.659   5.215  20.470  0.00  0.00    +0.000 C 
ATOM     10  C   UNL     1       1.342   3.753  20.843  0.00  0.00    +0.000 C 
ATOM     11  C   UNL     1       0.593   3.080  19.681  0.00  0.00    +0.000 C 
ATOM     12  C   UNL     1       1.460   3.131  18.409  0.00  0.00    +0.000 C 
ATOM     13  C   UNL     1       2.780   2.387  18.672  0.00  0.00    +0.000 C 
ATOM     14  C   UNL     1       3.528   3.032  19.853  0.00  0.00    +0.000 C 
ATOM     15  C   UNL     1       2.650   2.999  21.106  0.00  0.00    +0.000 C 
ATOM     16  C   UNL     1       3.847   4.494  19.512  0.00  0.00    +0.000 C 
ATOM     17  C   UNL     1       1.764   4.595  18.050  0.00  0.00    +0.000 C 
ENDBRANCH   6   8
ENDBRANCH   1   7
BRANCH   2  18
ATOM     18  S   UNL     1      -0.414   8.263  21.953  0.00  0.00    +0.000 S 
ATOM     19  H   UNL     1      -0.393   6.955  21.657  0.00  0.00    +0.000 HD
ENDBRANCH   2  18
BRANCH   3  20
ATOM     20  N   UNL     1       1.046  11.142  21.281  0.00  0.00    +0.000 NA
ATOM     21  C   UNL     1       0.116  11.991  20.943  0.00  0.00    +0.000 C 
BRANCH  21  22
ATOM     22  C   UNL     1      -0.163  13.213  21.810  0.00  0.00    +0.000 A 
ATOM     23  C   UNL     1      -1.078  13.100  22.886  0.00  0.00    +0.000 A 
ATOM     24  C   UNL     1      -1.367  14.167  23.739  0.00  0.00    +0.000 A 
ATOM     25  C   UNL     1      -0.726  15.378  23.554  0.00  0.00    +0.000 A 
ATOM     26 CL   UNL     1      -1.076  16.690  24.604  0.00  0.00    +0.000 Cl
ATOM     27  C   UNL     1       0.206  15.524  22.530  0.00  0.00    +0.000 A 
ATOM     28  C   UNL     1       0.489  14.454  21.657  0.00  0.00    +0.000 A 
ATOM     29 CL   UNL     1       1.648  14.815  20.425  0.00  0.00    +0.000 Cl
ENDBRANCH  21  22
BRANCH  21  30
ATOM     30  S   UNL     1      -0.982  11.804  19.558  0.00  0.00    +0.000 S 
ATOM     31  H   UNL     1      -1.890  11.019  20.131  0.00  0.00    +0.000 HD
ENDBRANCH  21  30
ENDBRANCH   3  20
TORSDOF 6
ENDMDL
MODEL 5
REMARK VINA RESULT:      -7.4      0.093      1.412
REMARK  Name = 
REMARK  7 active torsions:
REMARK  status: ('A' for Active; 'I' for Inactive)
REMARK    1  A    between atoms: C_1  and  C_2
REMARK    2  A    between atoms: C_2  and  C_19
REMARK    3  A    between atoms: N_3  and  N_4
REMARK    4  A    between atoms: C_5  and  S_6
REMARK    5  A    between atoms: N_7  and  N_8
REMARK    6  A    between atoms: C_9  and  S_10
REMARK    7  A    between atoms: C_9  and  C_11
REMARK                            x       y       z     vdW  Elec       q    Type
REMARK                         _______ _______ _______ _____ _____    ______ ____
ROOT
ATOM      1  N   UNL     1       2.025   7.502  19.878  0.00  0.00    +0.000 NA
ATOM      2  C   UNL     1       1.315   8.582  19.999  0.00  0.00    +0.000 C 
ATOM      3  N   UNL     1       1.510   9.744  19.296  0.00  0.00    +0.000 N 
ATOM      4  H   UNL     1       2.024   9.549  18.435  0.00  0.00    +0.000 HD
ENDROOT
BRANCH   1   7
ATOM      5  C   UNL     1       4.019   6.247  17.108  0.00  0.00    +0.000 C 
ATOM      6  C   UNL     1       3.199   6.293  18.385  0.00  0.00    +0.000 C 
ATOM      7  N   UNL     1       2.952   7.492  18.850  0.00  0.00    +0.000 NA
BRANCH   6   8
ATOM      8  C   UNL     1       2.722   4.935  19.015  0.00  0.00    +0.000 C 
ATOM      9  C   UNL     1       1.539   4.303  18.227  0.00  0.00    +0.000 C 
ATOM     10  C   UNL     1       1.100   2.964  18.852  0.00  0.00    +0.000 C 
ATOM     11  C   UNL     1       2.283   1.980  18.830  0.00  0.00    +0.000 C 
ATOM     12  C   UNL     1       3.465   2.575  19.617  0.00  0.00    +0.000 C 
ATOM     13  C   UNL     1       3.027   2.823  21.070  0.00  0.00    +0.000 C 
ATOM     14  C   UNL     1       1.824   3.785  21.106  0.00  0.00    +0.000 C 
ATOM     15  C   UNL     1       0.663   3.197  20.302  0.00  0.00    +0.000 C 
ATOM     16  C   UNL     1       2.230   5.125  20.479  0.00  0.00    +0.000 C 
ATOM     17  C   UNL     1       3.890   3.908  18.980  0.00  0.00    +0.000 C 
ENDBRANCH   6   8
ENDBRANCH   1   7
BRANCH   2  18
ATOM     18  S   UNL     1       0.032   8.461  21.191  0.00  0.00    +0.000 S 
ATOM     19  H   UNL     1      -0.545   9.613  20.821  0.00  0.00    +0.000 HD
ENDBRANCH   2  18
BRANCH   3  20
ATOM     20  N   UNL     1       1.137  11.049  19.473  0.00  0.00    +0.000 NA
ATOM     21  C   UNL     1      -0.001  11.545  19.072  0.00  0.00    +0.000 C 
BRANCH  21  22
ATOM     22  C   UNL     1      -0.396  12.967  19.452  0.00  0.00    +0.000 A 
ATOM     23  C   UNL     1       0.055  14.045  18.650  0.00  0.00    +0.000 A 
ATOM     24  C   UNL     1      -0.284  15.372  18.920  0.00  0.00    +0.000 A 
ATOM     25  C   UNL     1      -1.110  15.659  19.991  0.00  0.00    +0.000 A 
ATOM     26 CL   UNL     1      -1.533  17.290  20.321  0.00  0.00    +0.000 Cl
ATOM     27  C   UNL     1      -1.604  14.628  20.785  0.00  0.00    +0.000 A 
ATOM     28  C   UNL     1      -1.251  13.288  20.527  0.00  0.00    +0.000 A 
ATOM     29 CL   UNL     1      -1.929  12.138  21.626  0.00  0.00    +0.000 Cl
ENDBRANCH  21  22
BRANCH  21  30
ATOM     30  S   UNL     1      -1.243  10.650  18.169  0.00  0.00    +0.000 S 
ATOM     31  H   UNL     1      -2.307  11.351  18.551  0.00  0.00    +0.000 HD
ENDBRANCH  21  30
ENDBRANCH   3  20
TORSDOF 6
ENDMDL
MODEL 6
REMARK VINA RESULT:      -7.4      0.099      1.453
REMARK  Name = 
REMARK  7 active torsions:
REMARK  status: ('A' for Active; 'I' for Inactive)
REMARK    1  A    between atoms: C_1  and  C_2
REMARK    2  A    between atoms: C_2  and  C_19
REMARK    3  A    between atoms: N_3  and  N_4
REMARK    4  A    between atoms: C_5  and  S_6
REMARK    5  A    between atoms: N_7  and  N_8
REMARK    6  A    between atoms: C_9  and  S_10
REMARK    7  A    between atoms: C_9  and  C_11
REMARK                            x       y       z     vdW  Elec       q    Type
REMARK                         _______ _______ _______ _____ _____    ______ ____
ROOT
ATOM      1  N   UNL     1       2.054   7.408  19.931  0.00  0.00    +0.000 NA
ATOM      2  C   UNL     1       1.338   8.484  20.059  0.00  0.00    +0.000 C 
ATOM      3  N   UNL     1       1.528   9.651  19.364  0.00  0.00    +0.000 N 
ATOM      4  H   UNL     1       2.041   9.464  18.501  0.00  0.00    +0.000 HD
ENDROOT
BRANCH   1   7
ATOM      5  C   UNL     1       4.054   6.179  17.153  0.00  0.00    +0.000 C 
ATOM      6  C   UNL     1       3.234   6.214  18.432  0.00  0.00    +0.000 C 
ATOM      7  N   UNL     1       2.979   7.409  18.902  0.00  0.00    +0.000 NA
BRANCH   6   8
ATOM      8  C   UNL     1       2.766   4.849  19.055  0.00  0.00    +0.000 C 
ATOM      9  C   UNL     1       3.890   3.774  19.034  0.00  0.00    +0.000 C 
ATOM     10  C   UNL     1       3.413   2.452  19.666  0.00  0.00    +0.000 C 
ATOM     11  C   UNL     1       3.005   2.703  21.127  0.00  0.00    +0.000 C 
ATOM     12  C   UNL     1       1.881   3.755  21.177  0.00  0.00    +0.000 C 
ATOM     13  C   UNL     1       0.670   3.232  20.384  0.00  0.00    +0.000 C 
ATOM     14  C   UNL     1       1.071   2.948  18.925  0.00  0.00    +0.000 C 
ATOM     15  C   UNL     1       2.205   1.921  18.887  0.00  0.00    +0.000 C 
ATOM     16  C   UNL     1       1.562   4.248  18.274  0.00  0.00    +0.000 C 
ATOM     17  C   UNL     1       2.373   5.067  20.544  0.00  0.00    +0.000 C 
ENDBRANCH   6   8
ENDBRANCH   1   7
BRANCH   2  18
ATOM     18  S   UNL     1       0.057   8.349  21.252  0.00  0.00    +0.000 S 
ATOM     19  H   UNL     1      -0.096   7.029  21.070  0.00  0.00    +0.000 HD
ENDBRANCH   2  18
BRANCH   3  20
ATOM     20  N   UNL     1       1.149  10.954  19.549  0.00  0.00    +0.000 NA
ATOM     21  C   UNL     1       0.029  11.458  19.110  0.00  0.00    +0.000 C 
BRANCH  21  22
ATOM     22  C   UNL     1      -0.381  12.874  19.499  0.00  0.00    +0.000 A 
ATOM     23  C   UNL     1       0.005  13.956  18.670  0.00  0.00    +0.000 A 
ATOM     24  C   UNL     1      -0.352  15.277  18.947  0.00  0.00    +0.000 A 
ATOM     25  C   UNL     1      -1.131  15.553  20.055  0.00  0.00    +0.000 A 
ATOM     26 CL   UNL     1      -1.575  17.176  20.395  0.00  0.00    +0.000 Cl
ATOM     27  C   UNL     1      -1.560  14.516  20.880  0.00  0.00    +0.000 A 
ATOM     28  C   UNL     1      -1.189  13.183  20.613  0.00  0.00    +0.000 A 
ATOM     29 CL   UNL     1      -1.784  12.026  21.752  0.00  0.00    +0.000 Cl
ENDBRANCH  21  22
BRANCH  21  30
ATOM     30  S   UNL     1      -1.174  10.583  18.138  0.00  0.00    +0.000 S 
ATOM     31  H   UNL     1      -1.877  11.627  17.708  0.00  0.00    +0.000 HD
ENDBRANCH  21  30
ENDBRANCH   3  20
TORSDOF 6
ENDMDL
MODEL 7
REMARK VINA RESULT:      -7.4      1.816      2.651
REMARK  Name = 
REMARK  7 active torsions:
REMARK  status: ('A' for Active; 'I' for Inactive)
REMARK    1  A    between atoms: C_1  and  C_2
REMARK    2  A    between atoms: C_2  and  C_19
REMARK    3  A    between atoms: N_3  and  N_4
REMARK    4  A    between atoms: C_5  and  S_6
REMARK    5  A    between atoms: N_7  and  N_8
REMARK    6  A    between atoms: C_9  and  S_10
REMARK    7  A    between atoms: C_9  and  C_11
REMARK                            x       y       z     vdW  Elec       q    Type
REMARK                         _______ _______ _______ _____ _____    ______ ____
ROOT
ATOM      1  N   UNL     1       1.542   7.573  20.381  0.00  0.00    +0.000 NA
ATOM      2  C   UNL     1       0.952   8.621  20.869  0.00  0.00    +0.000 C 
ATOM      3  N   UNL     1       1.304   9.923  20.615  0.00  0.00    +0.000 N 
ATOM      4  H   UNL     1       1.828   9.977  19.740  0.00  0.00    +0.000 HD
ENDROOT
BRANCH   1   7
ATOM      5  C   UNL     1       3.758   6.952  17.565  0.00  0.00    +0.000 C 
ATOM      6  C   UNL     1       2.890   6.724  18.790  0.00  0.00    +0.000 C 
ATOM      7  N   UNL     1       2.503   7.809  19.413  0.00  0.00    +0.000 NA
BRANCH   6   8
ATOM      8  C   UNL     1       2.531   5.246  19.184  0.00  0.00    +0.000 C 
ATOM      9  C   UNL     1       1.747   4.509  18.061  0.00  0.00    +0.000 C 
ATOM     10  C   UNL     1       1.422   3.057  18.463  0.00  0.00    +0.000 C 
ATOM     11  C   UNL     1       2.733   2.296  18.726  0.00  0.00    +0.000 C 
ATOM     12  C   UNL     1       3.523   2.996  19.846  0.00  0.00    +0.000 C 
ATOM     13  C   UNL     1       2.670   3.013  21.126  0.00  0.00    +0.000 C 
ATOM     14  C   UNL     1       1.341   3.748  20.870  0.00  0.00    +0.000 C 
ATOM     15  C   UNL     1       0.574   3.059  19.740  0.00  0.00    +0.000 C 
ATOM     16  C   UNL     1       1.636   5.196  20.457  0.00  0.00    +0.000 C 
ATOM     17  C   UNL     1       3.839   4.442  19.428  0.00  0.00    +0.000 C 
ENDBRANCH   6   8
ENDBRANCH   1   7
BRANCH   2  18
ATOM     18  S   UNL     1      -0.384   8.248  21.945  0.00  0.00    +0.000 S 
ATOM     19  H   UNL     1      -0.190   6.923  21.874  0.00  0.00    +0.000 HD
ENDBRANCH   2  18
BRANCH   3  20
ATOM     20  N   UNL     1       1.072  11.121  21.235  0.00  0.00    +0.000 NA
ATOM     21  C   UNL     1       0.041  11.881  20.992  0.00  0.00    +0.000 C 
BRANCH  21  22
ATOM     22  C   UNL     1      -0.218  13.120  21.842  0.00  0.00    +0.000 A 
ATOM     23  C   UNL     1      -1.146  13.041  22.910  0.00  0.00    +0.000 A 
ATOM     24  C   UNL     1      -1.418  14.124  23.747  0.00  0.00    +0.000 A 
ATOM     25  C   UNL     1      -0.749  15.319  23.554  0.00  0.00    +0.000 A 
ATOM     26 CL   UNL     1      -1.079  16.651  24.585  0.00  0.00    +0.000 Cl
ATOM     27  C   UNL     1       0.196  15.431  22.537  0.00  0.00    +0.000 A 
ATOM     28  C   UNL     1       0.462  14.344  21.680  0.00  0.00    +0.000 A 
ATOM     29 CL   UNL     1       1.640  14.663  20.454  0.00  0.00    +0.000 Cl
ENDBRANCH  21  22
BRANCH  21  30
ATOM     30  S   UNL     1      -1.211  11.548  19.775  0.00  0.00    +0.000 S 
ATOM     31  H   UNL     1      -1.821  10.540  20.391  0.00  0.00    +0.000 HD
ENDBRANCH  21  30
ENDBRANCH   3  20
TORSDOF 6
ENDMDL
MODEL 8
REMARK VINA RESULT:      -7.4      1.073      1.406
REMARK  Name = 
REMARK  7 active torsions:
REMARK  status: ('A' for Active; 'I' for Inactive)
REMARK    1  A    between atoms: C_1  and  C_2
REMARK    2  A    between atoms: C_2  and  C_19
REMARK    3  A    between atoms: N_3  and  N_4
REMARK    4  A    between atoms: C_5  and  S_6
REMARK    5  A    between atoms: N_7  and  N_8
REMARK    6  A    between atoms: C_9  and  S_10
REMARK    7  A    between atoms: C_9  and  C_11
REMARK                            x       y       z     vdW  Elec       q    Type
REMARK                         _______ _______ _______ _____ _____    ______ ____
ROOT
ATOM      1  N   UNL     1       1.851   7.525  20.179  0.00  0.00    +0.000 NA
ATOM      2  C   UNL     1       1.056   8.537  20.348  0.00  0.00    +0.000 C 
ATOM      3  N   UNL     1       1.139   9.733  19.679  0.00  0.00    +0.000 N 
ATOM      4  H   UNL     1       1.647   9.608  18.803  0.00  0.00    +0.000 HD
ENDROOT
BRANCH   1   7
ATOM      5  C   UNL     1       3.830   6.544  17.290  0.00  0.00    +0.000 C 
ATOM      6  C   UNL     1       3.040   6.470  18.585  0.00  0.00    +0.000 C 
ATOM      7  N   UNL     1       2.752   7.624  19.133  0.00  0.00    +0.000 NA
BRANCH   6   8
ATOM      8  C   UNL     1       2.637   5.053  19.132  0.00  0.00    +0.000 C 
ATOM      9  C   UNL     1       1.786   5.143  20.431  0.00  0.00    +0.000 C 
ATOM     10  C   UNL     1       1.388   3.742  20.938  0.00  0.00    +0.000 C 
ATOM     11  C   UNL     1       0.559   3.026  19.859  0.00  0.00    +0.000 C 
ATOM     12  C   UNL     1       1.385   2.910  18.564  0.00  0.00    +0.000 C 
ATOM     13  C   UNL     1       2.662   2.104  18.855  0.00  0.00    +0.000 C 
ATOM     14  C   UNL     1       3.489   2.795  19.955  0.00  0.00    +0.000 C 
ATOM     15  C   UNL     1       2.653   2.927  21.230  0.00  0.00    +0.000 C 
ATOM     16  C   UNL     1       3.890   4.198  19.480  0.00  0.00    +0.000 C 
ATOM     17  C   UNL     1       1.772   4.315  18.072  0.00  0.00    +0.000 C 
ENDBRANCH   6   8
ENDBRANCH   1   7
BRANCH   2  18
ATOM     18  S   UNL     1      -0.185   8.273  21.561  0.00  0.00    +0.000 S 
ATOM     19  H   UNL     1       0.664   7.723  22.441  0.00  0.00    +0.000 HD
ENDBRANCH   2  18
BRANCH   3  20
ATOM     20  N   UNL     1       0.662  10.996  19.905  0.00  0.00    +0.000 NA
ATOM     21  C   UNL     1      -0.409  11.485  19.344  0.00  0.00    +0.000 C 
BRANCH  21  22
ATOM     22  C   UNL     1      -0.951  12.842  19.775  0.00  0.00    +0.000 A 
ATOM     23  C   UNL     1      -2.142  12.897  20.541  0.00  0.00    +0.000 A 
ATOM     24  C   UNL     1      -2.688  14.100  20.992  0.00  0.00    +0.000 A 
ATOM     25  C   UNL     1      -2.040  15.289  20.710  0.00  0.00    +0.000 A 
ATOM     26 CL   UNL     1      -2.706  16.770  21.268  0.00  0.00    +0.000 Cl
ATOM     27  C   UNL     1      -0.849  15.279  19.990  0.00  0.00    +0.000 A 
ATOM     28  C   UNL     1      -0.303  14.068  19.518  0.00  0.00    +0.000 A 
ATOM     29 CL   UNL     1       1.163  14.239  18.617  0.00  0.00    +0.000 Cl
ENDBRANCH  21  22
BRANCH  21  30
ATOM     30  S   UNL     1      -1.406  10.641  18.140  0.00  0.00    +0.000 S 
ATOM     31  H   UNL     1      -0.888   9.423  18.274  0.00  0.00    +0.000 HD
ENDBRANCH  21  30
ENDBRANCH   3  20
TORSDOF 6
ENDMDL
MODEL 9
REMARK VINA RESULT:      -7.4      1.025      1.969
REMARK  Name = 
REMARK  7 active torsions:
REMARK  status: ('A' for Active; 'I' for Inactive)
REMARK    1  A    between atoms: C_1  and  C_2
REMARK    2  A    between atoms: C_2  and  C_19
REMARK    3  A    between atoms: N_3  and  N_4
REMARK    4  A    between atoms: C_5  and  S_6
REMARK    5  A    between atoms: N_7  and  N_8
REMARK    6  A    between atoms: C_9  and  S_10
REMARK    7  A    between atoms: C_9  and  C_11
REMARK                            x       y       z     vdW  Elec       q    Type
REMARK                         _______ _______ _______ _____ _____    ______ ____
ROOT
ATOM      1  N   UNL     1       1.884   7.484  20.172  0.00  0.00    +0.000 NA
ATOM      2  C   UNL     1       1.101   8.510  20.315  0.00  0.00    +0.000 C 
ATOM      3  N   UNL     1       1.219   9.699  19.641  0.00  0.00    +0.000 N 
ATOM      4  H   UNL     1       1.747   9.560  18.778  0.00  0.00    +0.000 HD
ENDROOT
BRANCH   1   7
ATOM      5  C   UNL     1       3.923   6.452  17.343  0.00  0.00    +0.000 C 
ATOM      6  C   UNL     1       3.099   6.399  18.618  0.00  0.00    +0.000 C 
ATOM      7  N   UNL     1       2.812   7.562  19.148  0.00  0.00    +0.000 NA
BRANCH   6   8
ATOM      8  C   UNL     1       2.665   4.993  19.167  0.00  0.00    +0.000 C 
ATOM      9  C   UNL     1       1.520   4.359  18.327  0.00  0.00    +0.000 C 
ATOM     10  C   UNL     1       1.124   2.973  18.874  0.00  0.00    +0.000 C 
ATOM     11  C   UNL     1       2.344   2.038  18.824  0.00  0.00    +0.000 C 
ATOM     12  C   UNL     1       3.489   2.635  19.662  0.00  0.00    +0.000 C 
ATOM     13  C   UNL     1       3.017   2.791  21.117  0.00  0.00    +0.000 C 
ATOM     14  C   UNL     1       1.778   3.703  21.180  0.00  0.00    +0.000 C 
ATOM     15  C   UNL     1       0.654   3.113  20.326  0.00  0.00    +0.000 C 
ATOM     16  C   UNL     1       2.142   5.088  20.630  0.00  0.00    +0.000 C 
ATOM     17  C   UNL     1       3.873   4.015  19.102  0.00  0.00    +0.000 C 
ENDBRANCH   6   8
ENDBRANCH   1   7
BRANCH   2  18
ATOM     18  S   UNL     1      -0.174   8.273  21.498  0.00  0.00    +0.000 S 
ATOM     19  H   UNL     1       0.186   9.335  22.233  0.00  0.00    +0.000 HD
ENDBRANCH   2  18
BRANCH   3  20
ATOM     20  N   UNL     1       0.757  10.971  19.847  0.00  0.00    +0.000 NA
ATOM     21  C   UNL     1      -0.331  11.449  19.311  0.00  0.00    +0.000 C 
BRANCH  21  22
ATOM     22  C   UNL     1      -0.851  12.822  19.722  0.00  0.00    +0.000 A 
ATOM     23  C   UNL     1      -2.049  12.909  20.473  0.00  0.00    +0.000 A 
ATOM     24  C   UNL     1      -2.576  14.127  20.906  0.00  0.00    +0.000 A 
ATOM     25  C   UNL     1      -1.901  15.300  20.619  0.00  0.00    +0.000 A 
ATOM     26 CL   UNL     1      -2.544  16.799  21.154  0.00  0.00    +0.000 Cl
ATOM     27  C   UNL     1      -0.703  15.259  19.912  0.00  0.00    +0.000 A 
ATOM     28  C   UNL     1      -0.176  14.032  19.460  0.00  0.00    +0.000 A 
ATOM     29 CL   UNL     1       1.304  14.165  18.574  0.00  0.00    +0.000 Cl
ENDBRANCH  21  22
BRANCH  21  30
ATOM     30  S   UNL     1      -1.376  10.576  18.169  0.00  0.00    +0.000 S 
ATOM     31  H   UNL     1      -1.577   9.476  18.888  0.00  0.00    +0.000 HD
ENDBRANCH  21  30
ENDBRANCH   3  20
TORSDOF 6
ENDMDL
