MODEL 1
REMARK VINA RESULT:      -8.5      0.000      0.000
REMARK  Name = 
REMARK  9 active torsions:
REMARK  status: ('A' for Active; 'I' for Inactive)
REMARK    1  A    between atoms: C_1  and  C_2
REMARK    2  A    between atoms: C_10  and  C_11
REMARK    3  A    between atoms: C_11  and  C_12
REMARK    4  A    between atoms: N_14  and  C_15
REMARK    5  A    between atoms: C_15  and  C_16
REMARK    6  A    between atoms: C_15  and  C_23
REMARK    7  A    between atoms: C_16  and  C_17
REMARK    8  A    between atoms: N_25  and  C_26
REMARK    9  A    between atoms: N_25  and  C_27
REMARK                            x       y       z     vdW  Elec       q    Type
REMARK                         _______ _______ _______ _____ _____    ______ ____
ROOT
ATOM      1  C   UNL     1       0.269  10.440  19.070  0.00  0.00    +0.000 C 
ENDROOT
BRANCH   1   4
ATOM      2  C   UNL     1       1.753   8.444  18.862  0.00  0.00    +0.000 C 
ATOM      3  O   UNL     1       1.740   8.500  17.633  0.00  0.00    +0.000 OA
ATOM      4  N   UNL     1       1.085   9.358  19.648  0.00  0.00    +0.000 N 
ATOM      5  H   UNL     1       1.299   9.426  20.639  0.00  0.00    +0.000 HD
BRANCH   2   6
ATOM      6  C   UNL     1       2.490   7.346  19.618  0.00  0.00    +0.000 C 
BRANCH   6  16
ATOM      7  C   UNL     1       4.719   6.843  17.235  0.00  0.00    +0.000 C 
ATOM      8  C   UNL     1       3.653   5.953  17.766  0.00  0.00    +0.000 A 
ATOM      9  N   UNL     1       3.492   4.690  17.257  0.00  0.00    +0.000 N 
ATOM     10  C   UNL     1       2.598   3.976  18.004  0.00  0.00    +0.000 A 
ATOM     11  C   UNL     1       2.205   2.632  17.895  0.00  0.00    +0.000 A 
ATOM     12  C   UNL     1       1.288   2.147  18.831  0.00  0.00    +0.000 A 
ATOM     13  C   UNL     1       0.774   2.980  19.819  0.00  0.00    +0.000 A 
ATOM     14  C   UNL     1       1.159   4.321  19.898  0.00  0.00    +0.000 A 
ATOM     15  C   UNL     1       2.089   4.838  18.975  0.00  0.00    +0.000 A 
ATOM     16  C   UNL     1       2.723   6.117  18.787  0.00  0.00    +0.000 A 
ATOM     17  H   UNL     1       4.022   4.302  16.486  0.00  0.00    +0.000 HD
ENDBRANCH   6  16
ENDBRANCH   2   6
ENDBRANCH   1   4
BRANCH   1  18
ATOM     18  C   UNL     1       0.699  11.765  19.757  0.00  0.00    +0.000 C 
ATOM     19  O   UNL     1       0.023  12.123  20.734  0.00  0.00    +0.000 OA
ATOM     20  N   UNL     1       1.743  12.529  19.197  0.00  0.00    +0.000 N 
ATOM     21  C   UNL     1       2.491  12.104  18.007  0.00  0.00    +0.000 C 
BRANCH  20  22
ATOM     22  C   UNL     1       2.154  13.800  19.774  0.00  0.00    +0.000 A 
ATOM     23  C   UNL     1       1.644  15.028  19.326  0.00  0.00    +0.000 A 
ATOM     24  C   UNL     1       2.051  16.245  19.890  0.00  0.00    +0.000 A 
ATOM     25  C   UNL     1       2.975  16.266  20.925  0.00  0.00    +0.000 A 
ATOM     26  C   UNL     1       3.484  15.067  21.405  0.00  0.00    +0.000 A 
ATOM     27  C   UNL     1       3.075  13.850  20.839  0.00  0.00    +0.000 A 
ENDBRANCH  20  22
ENDBRANCH   1  18
BRANCH   1  28
ATOM     28  C   UNL     1      -1.240  10.222  19.335  0.00  0.00    +0.000 C 
BRANCH  28  29
ATOM     29  C   UNL     1      -2.135  10.420  18.131  0.00  0.00    +0.000 A 
ATOM     30  C   UNL     1      -1.841   9.792  16.910  0.00  0.00    +0.000 A 
ATOM     31  C   UNL     1      -2.612  10.048  15.775  0.00  0.00    +0.000 A 
ATOM     32  C   UNL     1      -3.691  10.927  15.846  0.00  0.00    +0.000 A 
ATOM     33  C   UNL     1      -4.015  11.528  17.059  0.00  0.00    +0.000 A 
ATOM     34  C   UNL     1      -3.252  11.263  18.198  0.00  0.00    +0.000 A 
ENDBRANCH  28  29
ENDBRANCH   1  28
TORSDOF 7
ENDMDL
MODEL 2
REMARK VINA RESULT:      -8.1      1.018      1.466
REMARK  Name = 
REMARK  9 active torsions:
REMARK  status: ('A' for Active; 'I' for Inactive)
REMARK    1  A    between atoms: C_1  and  C_2
REMARK    2  A    between atoms: C_10  and  C_11
REMARK    3  A    between atoms: C_11  and  C_12
REMARK    4  A    between atoms: N_14  and  C_15
REMARK    5  A    between atoms: C_15  and  C_16
REMARK    6  A    between atoms: C_15  and  C_23
REMARK    7  A    between atoms: C_16  and  C_17
REMARK    8  A    between atoms: N_25  and  C_26
REMARK    9  A    between atoms: N_25  and  C_27
REMARK                            x       y       z     vdW  Elec       q    Type
REMARK                         _______ _______ _______ _____ _____    ______ ____
ROOT
ATOM      1  C   UNL     1       0.361  10.483  19.381  0.00  0.00    +0.000 C 
ENDROOT
BRANCH   1   4
ATOM      2  C   UNL     1       1.760   8.444  19.038  0.00  0.00    +0.000 C 
ATOM      3  O   UNL     1       1.649   8.512  17.815  0.00  0.00    +0.000 OA
ATOM      4  N   UNL     1       1.186   9.370  19.883  0.00  0.00    +0.000 N 
ATOM      5  H   UNL     1       1.483   9.423  20.853  0.00  0.00    +0.000 HD
BRANCH   2   6
ATOM      6  C   UNL     1       2.520   7.317  19.724  0.00  0.00    +0.000 C 
BRANCH   6  16
ATOM      7  C   UNL     1       4.639   6.886  17.230  0.00  0.00    +0.000 C 
ATOM      8  C   UNL     1       3.593   5.983  17.777  0.00  0.00    +0.000 A 
ATOM      9  N   UNL     1       3.403   4.739  17.233  0.00  0.00    +0.000 N 
ATOM     10  C   UNL     1       2.538   4.003  17.993  0.00  0.00    +0.000 A 
ATOM     11  C   UNL     1       2.134   2.665  17.856  0.00  0.00    +0.000 A 
ATOM     12  C   UNL     1       1.256   2.153  18.814  0.00  0.00    +0.000 A 
ATOM     13  C   UNL     1       0.790   2.953  19.852  0.00  0.00    +0.000 A 
ATOM     14  C   UNL     1       1.186   4.289  19.959  0.00  0.00    +0.000 A 
ATOM     15  C   UNL     1       2.078   4.834  19.015  0.00  0.00    +0.000 A 
ATOM     16  C   UNL     1       2.709   6.116  18.843  0.00  0.00    +0.000 A 
ATOM     17  H   UNL     1       3.896   4.375  16.426  0.00  0.00    +0.000 HD
ENDBRANCH   6  16
ENDBRANCH   2   6
ENDBRANCH   1   4
BRANCH   1  18
ATOM     18  C   UNL     1       0.690  11.733  20.242  0.00  0.00    +0.000 C 
ATOM     19  O   UNL     1       0.960  11.524  21.435  0.00  0.00    +0.000 OA
ATOM     20  N   UNL     1       0.572  13.017  19.673  0.00  0.00    +0.000 N 
ATOM     21  C   UNL     1       0.199  13.235  18.269  0.00  0.00    +0.000 C 
BRANCH  20  22
ATOM     22  C   UNL     1       0.823  14.223  20.448  0.00  0.00    +0.000 A 
ATOM     23  C   UNL     1       2.062  14.881  20.434  0.00  0.00    +0.000 A 
ATOM     24  C   UNL     1       2.289  16.041  21.187  0.00  0.00    +0.000 A 
ATOM     25  C   UNL     1       1.279  16.579  21.971  0.00  0.00    +0.000 A 
ATOM     26  C   UNL     1       0.035  15.962  21.992  0.00  0.00    +0.000 A 
ATOM     27  C   UNL     1      -0.191  14.803  21.237  0.00  0.00    +0.000 A 
ENDBRANCH  20  22
ENDBRANCH   1  18
BRANCH   1  28
ATOM     28  C   UNL     1      -1.151  10.180  19.518  0.00  0.00    +0.000 C 
BRANCH  28  29
ATOM     29  C   UNL     1      -1.973  10.463  18.280  0.00  0.00    +0.000 A 
ATOM     30  C   UNL     1      -3.070  11.338  18.333  0.00  0.00    +0.000 A 
ATOM     31  C   UNL     1      -3.884  11.526  17.214  0.00  0.00    +0.000 A 
ATOM     32  C   UNL     1      -3.609  10.850  16.028  0.00  0.00    +0.000 A 
ATOM     33  C   UNL     1      -2.503  10.009  15.951  0.00  0.00    +0.000 A 
ATOM     34  C   UNL     1      -1.681   9.828  17.065  0.00  0.00    +0.000 A 
ENDBRANCH  28  29
ENDBRANCH   1  28
TORSDOF 7
ENDMDL
MODEL 3
REMARK VINA RESULT:      -8.1      0.789      2.519
REMARK  Name = 
REMARK  9 active torsions:
REMARK  status: ('A' for Active; 'I' for Inactive)
REMARK    1  A    between atoms: C_1  and  C_2
REMARK    2  A    between atoms: C_10  and  C_11
REMARK    3  A    between atoms: C_11  and  C_12
REMARK    4  A    between atoms: N_14  and  C_15
REMARK    5  A    between atoms: C_15  and  C_16
REMARK    6  A    between atoms: C_15  and  C_23
REMARK    7  A    between atoms: C_16  and  C_17
REMARK    8  A    between atoms: N_25  and  C_26
REMARK    9  A    between atoms: N_25  and  C_27
REMARK                            x       y       z     vdW  Elec       q    Type
REMARK                         _______ _______ _______ _____ _____    ______ ____
ROOT
ATOM      1  C   UNL     1       0.298  10.312  18.983  0.00  0.00    +0.000 C 
ENDROOT
BRANCH   1   4
ATOM      2  C   UNL     1       1.779   8.305  18.931  0.00  0.00    +0.000 C 
ATOM      3  O   UNL     1       1.731   8.239  17.704  0.00  0.00    +0.000 OA
ATOM      4  N   UNL     1       1.131   9.292  19.642  0.00  0.00    +0.000 N 
ATOM      5  H   UNL     1       1.374   9.458  20.614  0.00  0.00    +0.000 HD
BRANCH   2   6
ATOM      6  C   UNL     1       2.539   7.287  19.771  0.00  0.00    +0.000 C 
BRANCH   6  16
ATOM      7  C   UNL     1       1.071   4.338  19.989  0.00  0.00    +0.000 C 
ATOM      8  C   UNL     1       2.225   4.785  19.166  0.00  0.00    +0.000 A 
ATOM      9  N   UNL     1       2.847   3.907  18.316  0.00  0.00    +0.000 N 
ATOM     10  C   UNL     1       3.747   4.557  17.519  0.00  0.00    +0.000 A 
ATOM     11  C   UNL     1       4.530   4.068  16.462  0.00  0.00    +0.000 A 
ATOM     12  C   UNL     1       5.347   4.977  15.786  0.00  0.00    +0.000 A 
ATOM     13  C   UNL     1       5.389   6.314  16.167  0.00  0.00    +0.000 A 
ATOM     14  C   UNL     1       4.618   6.779  17.237  0.00  0.00    +0.000 A 
ATOM     15  C   UNL     1       3.777   5.889  17.933  0.00  0.00    +0.000 A 
ATOM     16  C   UNL     1       2.846   6.021  19.023  0.00  0.00    +0.000 A 
ATOM     17  H   UNL     1       2.617   2.924  18.224  0.00  0.00    +0.000 HD
ENDBRANCH   6  16
ENDBRANCH   2   6
ENDBRANCH   1   4
BRANCH   1  18
ATOM     18  C   UNL     1       0.667  11.688  19.603  0.00  0.00    +0.000 C 
ATOM     19  O   UNL     1      -0.066  12.095  20.516  0.00  0.00    +0.000 OA
ATOM     20  N   UNL     1       1.727  12.435  19.049  0.00  0.00    +0.000 N 
ATOM     21  C   UNL     1       2.546  11.949  17.930  0.00  0.00    +0.000 C 
BRANCH  20  22
ATOM     22  C   UNL     1       2.085  13.749  19.562  0.00  0.00    +0.000 A 
ATOM     23  C   UNL     1       2.915  13.918  20.680  0.00  0.00    +0.000 A 
ATOM     24  C   UNL     1       3.251  15.191  21.162  0.00  0.00    +0.000 A 
ATOM     25  C   UNL     1       2.770  16.330  20.534  0.00  0.00    +0.000 A 
ATOM     26  C   UNL     1       1.961  16.197  19.413  0.00  0.00    +0.000 A 
ATOM     27  C   UNL     1       1.628  14.923  18.931  0.00  0.00    +0.000 A 
ENDBRANCH  20  22
ENDBRANCH   1  18
BRANCH   1  28
ATOM     28  C   UNL     1      -1.211  10.060  19.223  0.00  0.00    +0.000 C 
BRANCH  28  29
ATOM     29  C   UNL     1      -2.109  10.400  18.053  0.00  0.00    +0.000 A 
ATOM     30  C   UNL     1      -3.185  11.288  18.211  0.00  0.00    +0.000 A 
ATOM     31  C   UNL     1      -4.067  11.530  17.157  0.00  0.00    +0.000 A 
ATOM     32  C   UNL     1      -3.883  10.895  15.931  0.00  0.00    +0.000 A 
ATOM     33  C   UNL     1      -2.800  10.040  15.750  0.00  0.00    +0.000 A 
ATOM     34  C   UNL     1      -1.909   9.807  16.800  0.00  0.00    +0.000 A 
ENDBRANCH  28  29
ENDBRANCH   1  28
TORSDOF 7
ENDMDL
MODEL 4
REMARK VINA RESULT:      -7.9      0.923      1.060
REMARK  Name = 
REMARK  9 active torsions:
REMARK  status: ('A' for Active; 'I' for Inactive)
REMARK    1  A    between atoms: C_1  and  C_2
REMARK    2  A    between atoms: C_10  and  C_11
REMARK    3  A    between atoms: C_11  and  C_12
REMARK    4  A    between atoms: N_14  and  C_15
REMARK    5  A    between atoms: C_15  and  C_16
REMARK    6  A    between atoms: C_15  and  C_23
REMARK    7  A    between atoms: C_16  and  C_17
REMARK    8  A    between atoms: N_25  and  C_26
REMARK    9  A    between atoms: N_25  and  C_27
REMARK                            x       y       z     vdW  Elec       q    Type
REMARK                         _______ _______ _______ _____ _____    ______ ____
ROOT
ATOM      1  C   UNL     1       0.325  10.622  19.346  0.00  0.00    +0.000 C 
ENDROOT
BRANCH   1   4
ATOM      2  C   UNL     1       1.624   8.503  19.115  0.00  0.00    +0.000 C 
ATOM      3  O   UNL     1       1.533   8.522  17.889  0.00  0.00    +0.000 OA
ATOM      4  N   UNL     1       1.086   9.493  19.909  0.00  0.00    +0.000 N 
ATOM      5  H   UNL     1       1.372   9.574  20.881  0.00  0.00    +0.000 HD
BRANCH   2   6
ATOM      6  C   UNL     1       2.317   7.371  19.862  0.00  0.00    +0.000 C 
BRANCH   6  16
ATOM      7  C   UNL     1       4.534   6.998  17.445  0.00  0.00    +0.000 C 
ATOM      8  C   UNL     1       3.502   6.063  17.963  0.00  0.00    +0.000 A 
ATOM      9  N   UNL     1       3.375   4.810  17.423  0.00  0.00    +0.000 N 
ATOM     10  C   UNL     1       2.511   4.048  18.159  0.00  0.00    +0.000 A 
ATOM     11  C   UNL     1       2.159   2.696  18.019  0.00  0.00    +0.000 A 
ATOM     12  C   UNL     1       1.267   2.159  18.950  0.00  0.00    +0.000 A 
ATOM     13  C   UNL     1       0.738   2.950  19.965  0.00  0.00    +0.000 A 
ATOM     14  C   UNL     1       1.083   4.300  20.075  0.00  0.00    +0.000 A 
ATOM     15  C   UNL     1       1.987   4.869  19.158  0.00  0.00    +0.000 A 
ATOM     16  C   UNL     1       2.579   6.172  18.997  0.00  0.00    +0.000 A 
ATOM     17  H   UNL     1       3.908   4.458  16.636  0.00  0.00    +0.000 HD
ENDBRANCH   6  16
ENDBRANCH   2   6
ENDBRANCH   1   4
BRANCH   1  18
ATOM     18  C   UNL     1       0.794  11.911  20.075  0.00  0.00    +0.000 C 
ATOM     19  O   UNL     1       1.294  11.756  21.200  0.00  0.00    +0.000 OA
ATOM     20  N   UNL     1       0.548  13.168  19.486  0.00  0.00    +0.000 N 
ATOM     21  C   UNL     1      -0.094  13.322  18.174  0.00  0.00    +0.000 C 
BRANCH  20  22
ATOM     22  C   UNL     1       0.925  14.408  20.148  0.00  0.00    +0.000 A 
ATOM     23  C   UNL     1       0.129  15.003  21.138  0.00  0.00    +0.000 A 
ATOM     24  C   UNL     1       0.505  16.199  21.766  0.00  0.00    +0.000 A 
ATOM     25  C   UNL     1       1.692  16.829  21.424  0.00  0.00    +0.000 A 
ATOM     26  C   UNL     1       2.512  16.256  20.461  0.00  0.00    +0.000 A 
ATOM     27  C   UNL     1       2.136  15.059  19.836  0.00  0.00    +0.000 A 
ENDBRANCH  20  22
ENDBRANCH   1  18
BRANCH   1  28
ATOM     28  C   UNL     1      -1.196  10.458  19.578  0.00  0.00    +0.000 C 
BRANCH  28  29
ATOM     29  C   UNL     1      -2.043  10.514  18.325  0.00  0.00    +0.000 A 
ATOM     30  C   UNL     1      -1.622   9.876  17.148  0.00  0.00    +0.000 A 
ATOM     31  C   UNL     1      -2.357  10.005  15.968  0.00  0.00    +0.000 A 
ATOM     32  C   UNL     1      -3.523  10.767  15.950  0.00  0.00    +0.000 A 
ATOM     33  C   UNL     1      -3.971  11.374  17.119  0.00  0.00    +0.000 A 
ATOM     34  C   UNL     1      -3.244  11.236  18.303  0.00  0.00    +0.000 A 
ENDBRANCH  28  29
ENDBRANCH   1  28
TORSDOF 7
ENDMDL
MODEL 5
REMARK VINA RESULT:      -7.8      1.538      1.760
REMARK  Name = 
REMARK  9 active torsions:
REMARK  status: ('A' for Active; 'I' for Inactive)
REMARK    1  A    between atoms: C_1  and  C_2
REMARK    2  A    between atoms: C_10  and  C_11
REMARK    3  A    between atoms: C_11  and  C_12
REMARK    4  A    between atoms: N_14  and  C_15
REMARK    5  A    between atoms: C_15  and  C_16
REMARK    6  A    between atoms: C_15  and  C_23
REMARK    7  A    between atoms: C_16  and  C_17
REMARK    8  A    between atoms: N_25  and  C_26
REMARK    9  A    between atoms: N_25  and  C_27
REMARK                            x       y       z     vdW  Elec       q    Type
REMARK                         _______ _______ _______ _____ _____    ______ ____
ROOT
ATOM      1  C   UNL     1      -0.096  10.409  19.249  0.00  0.00    +0.000 C 
ENDROOT
BRANCH   1   4
ATOM      2  C   UNL     1       1.606   8.616  18.907  0.00  0.00    +0.000 C 
ATOM      3  O   UNL     1       1.474   8.655  17.684  0.00  0.00    +0.000 OA
ATOM      4  N   UNL     1       0.900   9.446  19.750  0.00  0.00    +0.000 N 
ATOM      5  H   UNL     1       1.193   9.553  20.717  0.00  0.00    +0.000 HD
BRANCH   2   6
ATOM      6  C   UNL     1       2.542   7.629  19.593  0.00  0.00    +0.000 C 
BRANCH   6  16
ATOM      7  C   UNL     1       4.550   6.868  17.086  0.00  0.00    +0.000 C 
ATOM      8  C   UNL     1       3.511   6.057  17.772  0.00  0.00    +0.000 A 
ATOM      9  N   UNL     1       3.276   4.764  17.383  0.00  0.00    +0.000 N 
ATOM     10  C   UNL     1       2.430   4.139  18.256  0.00  0.00    +0.000 A 
ATOM     11  C   UNL     1       1.996   2.805  18.290  0.00  0.00    +0.000 A 
ATOM     12  C   UNL     1       1.149   2.425  19.333  0.00  0.00    +0.000 A 
ATOM     13  C   UNL     1       0.740   3.349  20.289  0.00  0.00    +0.000 A 
ATOM     14  C   UNL     1       1.164   4.680  20.226  0.00  0.00    +0.000 A 
ATOM     15  C   UNL     1       2.027   5.092  19.192  0.00  0.00    +0.000 A 
ATOM     16  C   UNL     1       2.674   6.331  18.849  0.00  0.00    +0.000 A 
ATOM     17  H   UNL     1       3.730   4.299  16.606  0.00  0.00    +0.000 HD
ENDBRANCH   6  16
ENDBRANCH   2   6
ENDBRANCH   1   4
BRANCH   1  18
ATOM     18  C   UNL     1      -0.136  11.600  20.245  0.00  0.00    +0.000 C 
ATOM     19  O   UNL     1      -0.163  11.309  21.450  0.00  0.00    +0.000 OA
ATOM     20  N   UNL     1      -0.236  12.915  19.748  0.00  0.00    +0.000 N 
ATOM     21  C   UNL     1      -0.254  13.226  18.312  0.00  0.00    +0.000 C 
BRANCH  20  22
ATOM     22  C   UNL     1      -0.323  14.064  20.638  0.00  0.00    +0.000 A 
ATOM     23  C   UNL     1       0.813  14.744  21.100  0.00  0.00    +0.000 A 
ATOM     24  C   UNL     1       0.713  15.848  21.957  0.00  0.00    +0.000 A 
ATOM     25  C   UNL     1      -0.529  16.307  22.371  0.00  0.00    +0.000 A 
ATOM     26  C   UNL     1      -1.675  15.668  21.915  0.00  0.00    +0.000 A 
ATOM     27  C   UNL     1      -1.572  14.565  21.056  0.00  0.00    +0.000 A 
ENDBRANCH  20  22
ENDBRANCH   1  18
BRANCH   1  28
ATOM     28  C   UNL     1      -1.511   9.784  19.181  0.00  0.00    +0.000 C 
BRANCH  28  29
ATOM     29  C   UNL     1      -2.327  10.184  17.971  0.00  0.00    +0.000 A 
ATOM     30  C   UNL     1      -1.921   9.815  16.679  0.00  0.00    +0.000 A 
ATOM     31  C   UNL     1      -2.623  10.262  15.558  0.00  0.00    +0.000 A 
ATOM     32  C   UNL     1      -3.742  11.077  15.713  0.00  0.00    +0.000 A 
ATOM     33  C   UNL     1      -4.178  11.419  16.990  0.00  0.00    +0.000 A 
ATOM     34  C   UNL     1      -3.484  10.963  18.112  0.00  0.00    +0.000 A 
ENDBRANCH  28  29
ENDBRANCH   1  28
TORSDOF 7
ENDMDL
MODEL 6
REMARK VINA RESULT:      -7.7      0.508      1.039
REMARK  Name = 
REMARK  9 active torsions:
REMARK  status: ('A' for Active; 'I' for Inactive)
REMARK    1  A    between atoms: C_1  and  C_2
REMARK    2  A    between atoms: C_10  and  C_11
REMARK    3  A    between atoms: C_11  and  C_12
REMARK    4  A    between atoms: N_14  and  C_15
REMARK    5  A    between atoms: C_15  and  C_16
REMARK    6  A    between atoms: C_15  and  C_23
REMARK    7  A    between atoms: C_16  and  C_17
REMARK    8  A    between atoms: N_25  and  C_26
REMARK    9  A    between atoms: N_25  and  C_27
REMARK                            x       y       z     vdW  Elec       q    Type
REMARK                         _______ _______ _______ _____ _____    ______ ____
ROOT
ATOM      1  C   UNL     1       0.327  10.412  19.034  0.00  0.00    +0.000 C 
ENDROOT
BRANCH   1   4
ATOM      2  C   UNL     1       1.823   8.425  18.830  0.00  0.00    +0.000 C 
ATOM      3  O   UNL     1       1.830   8.494  17.602  0.00  0.00    +0.000 OA
ATOM      4  N   UNL     1       1.138   9.327  19.614  0.00  0.00    +0.000 N 
ATOM      5  H   UNL     1       1.336   9.386  20.609  0.00  0.00    +0.000 HD
BRANCH   2   6
ATOM      6  C   UNL     1       2.552   7.322  19.586  0.00  0.00    +0.000 C 
BRANCH   6  16
ATOM      7  C   UNL     1       4.784   6.782  17.215  0.00  0.00    +0.000 C 
ATOM      8  C   UNL     1       3.703   5.909  17.742  0.00  0.00    +0.000 A 
ATOM      9  N   UNL     1       3.526   4.649  17.234  0.00  0.00    +0.000 N 
ATOM     10  C   UNL     1       2.618   3.948  17.976  0.00  0.00    +0.000 A 
ATOM     11  C   UNL     1       2.206   2.610  17.868  0.00  0.00    +0.000 A 
ATOM     12  C   UNL     1       1.277   2.140  18.799  0.00  0.00    +0.000 A 
ATOM     13  C   UNL     1       0.770   2.981  19.784  0.00  0.00    +0.000 A 
ATOM     14  C   UNL     1       1.175   4.317  19.863  0.00  0.00    +0.000 A 
ATOM     15  C   UNL     1       2.117   4.819  18.945  0.00  0.00    +0.000 A 
ATOM     16  C   UNL     1       2.770   6.088  18.758  0.00  0.00    +0.000 A 
ATOM     17  H   UNL     1       4.054   4.251  16.465  0.00  0.00    +0.000 HD
ENDBRANCH   6  16
ENDBRANCH   2   6
ENDBRANCH   1   4
BRANCH   1  18
ATOM     18  C   UNL     1       0.756  11.735  19.727  0.00  0.00    +0.000 C 
ATOM     19  O   UNL     1       0.082  12.087  20.707  0.00  0.00    +0.000 OA
ATOM     20  N   UNL     1       1.797  12.504  19.167  0.00  0.00    +0.000 N 
ATOM     21  C   UNL     1       2.543  12.086  17.973  0.00  0.00    +0.000 C 
BRANCH  20  22
ATOM     22  C   UNL     1       2.206  13.774  19.749  0.00  0.00    +0.000 A 
ATOM     23  C   UNL     1       3.100  13.852  20.827  0.00  0.00    +0.000 A 
ATOM     24  C   UNL     1       3.485  15.082  21.377  0.00  0.00    +0.000 A 
ATOM     25  C   UNL     1       2.990  16.270  20.859  0.00  0.00    +0.000 A 
ATOM     26  C   UNL     1       2.118  16.228  19.779  0.00  0.00    +0.000 A 
ATOM     27  C   UNL     1       1.736  14.996  19.229  0.00  0.00    +0.000 A 
ENDBRANCH  20  22
ENDBRANCH   1  18
BRANCH   1  28
ATOM     28  C   UNL     1      -1.184  10.196  19.290  0.00  0.00    +0.000 C 
BRANCH  28  29
ATOM     29  C   UNL     1      -2.070  10.383  18.078  0.00  0.00    +0.000 A 
ATOM     30  C   UNL     1      -3.125   9.494  17.818  0.00  0.00    +0.000 A 
ATOM     31  C   UNL     1      -3.883   9.612  16.652  0.00  0.00    +0.000 A 
ATOM     32  C   UNL     1      -3.603  10.622  15.734  0.00  0.00    +0.000 A 
ATOM     33  C   UNL     1      -2.583  11.532  15.997  0.00  0.00    +0.000 A 
ATOM     34  C   UNL     1      -1.832  11.423  17.169  0.00  0.00    +0.000 A 
ENDBRANCH  28  29
ENDBRANCH   1  28
TORSDOF 7
ENDMDL
MODEL 7
REMARK VINA RESULT:      -7.7      1.015      1.228
REMARK  Name = 
REMARK  9 active torsions:
REMARK  status: ('A' for Active; 'I' for Inactive)
REMARK    1  A    between atoms: C_1  and  C_2
REMARK    2  A    between atoms: C_10  and  C_11
REMARK    3  A    between atoms: C_11  and  C_12
REMARK    4  A    between atoms: N_14  and  C_15
REMARK    5  A    between atoms: C_15  and  C_16
REMARK    6  A    between atoms: C_15  and  C_23
REMARK    7  A    between atoms: C_16  and  C_17
REMARK    8  A    between atoms: N_25  and  C_26
REMARK    9  A    between atoms: N_25  and  C_27
REMARK                            x       y       z     vdW  Elec       q    Type
REMARK                         _______ _______ _______ _____ _____    ______ ____
ROOT
ATOM      1  C   UNL     1       0.232  10.343  18.586  0.00  0.00    +0.000 C 
ENDROOT
BRANCH   1   4
ATOM      2  C   UNL     1       1.937   8.522  18.533  0.00  0.00    +0.000 C 
ATOM      3  O   UNL     1       2.105   8.646  17.321  0.00  0.00    +0.000 OA
ATOM      4  N   UNL     1       1.062   9.317  19.241  0.00  0.00    +0.000 N 
ATOM      5  H   UNL     1       1.115   9.351  20.255  0.00  0.00    +0.000 HD
BRANCH   2   6
ATOM      6  C   UNL     1       2.664   7.462  19.350  0.00  0.00    +0.000 C 
BRANCH   6  16
ATOM      7  C   UNL     1       4.875   6.730  17.010  0.00  0.00    +0.000 C 
ATOM      8  C   UNL     1       3.781   5.913  17.595  0.00  0.00    +0.000 A 
ATOM      9  N   UNL     1       3.578   4.626  17.170  0.00  0.00    +0.000 N 
ATOM     10  C   UNL     1       2.660   3.991  17.960  0.00  0.00    +0.000 A 
ATOM     11  C   UNL     1       2.223   2.657  17.939  0.00  0.00    +0.000 A 
ATOM     12  C   UNL     1       1.291   2.265  18.902  0.00  0.00    +0.000 A 
ATOM     13  C   UNL     1       0.805   3.177  19.833  0.00  0.00    +0.000 A 
ATOM     14  C   UNL     1       1.234   4.508  19.824  0.00  0.00    +0.000 A 
ATOM     15  C   UNL     1       2.181   4.932  18.872  0.00  0.00    +0.000 A 
ATOM     16  C   UNL     1       2.856   6.174  18.602  0.00  0.00    +0.000 A 
ATOM     17  H   UNL     1       4.094   4.170  16.427  0.00  0.00    +0.000 HD
ENDBRANCH   6  16
ENDBRANCH   2   6
ENDBRANCH   1   4
BRANCH   1  18
ATOM     18  C   UNL     1       0.721  11.729  19.089  0.00  0.00    +0.000 C 
ATOM     19  O   UNL     1       1.020  12.558  18.216  0.00  0.00    +0.000 OA
ATOM     20  N   UNL     1       0.892  11.943  20.472  0.00  0.00    +0.000 N 
ATOM     21  C   UNL     1       0.579  10.923  21.482  0.00  0.00    +0.000 C 
BRANCH  20  22
ATOM     22  C   UNL     1       1.392  13.207  20.994  0.00  0.00    +0.000 A 
ATOM     23  C   UNL     1       0.551  14.158  21.591  0.00  0.00    +0.000 A 
ATOM     24  C   UNL     1       1.046  15.371  22.088  0.00  0.00    +0.000 A 
ATOM     25  C   UNL     1       2.400  15.663  22.007  0.00  0.00    +0.000 A 
ATOM     26  C   UNL     1       3.262  14.735  21.439  0.00  0.00    +0.000 A 
ATOM     27  C   UNL     1       2.765  13.521  20.944  0.00  0.00    +0.000 A 
ENDBRANCH  20  22
ENDBRANCH   1  18
BRANCH   1  28
ATOM     28  C   UNL     1      -1.263  10.191  18.958  0.00  0.00    +0.000 C 
BRANCH  28  29
ATOM     29  C   UNL     1      -2.229  10.372  17.807  0.00  0.00    +0.000 A 
ATOM     30  C   UNL     1      -1.995   9.745  16.572  0.00  0.00    +0.000 A 
ATOM     31  C   UNL     1      -2.835   9.986  15.483  0.00  0.00    +0.000 A 
ATOM     32  C   UNL     1      -3.921  10.848  15.614  0.00  0.00    +0.000 A 
ATOM     33  C   UNL     1      -4.185  11.446  16.843  0.00  0.00    +0.000 A 
ATOM     34  C   UNL     1      -3.353  11.197  17.936  0.00  0.00    +0.000 A 
ENDBRANCH  28  29
ENDBRANCH   1  28
TORSDOF 7
ENDMDL
MODEL 8
REMARK VINA RESULT:      -7.7      2.819      5.821
REMARK  Name = 
REMARK  9 active torsions:
REMARK  status: ('A' for Active; 'I' for Inactive)
REMARK    1  A    between atoms: C_1  and  C_2
REMARK    2  A    between atoms: C_10  and  C_11
REMARK    3  A    between atoms: C_11  and  C_12
REMARK    4  A    between atoms: N_14  and  C_15
REMARK    5  A    between atoms: C_15  and  C_16
REMARK    6  A    between atoms: C_15  and  C_23
REMARK    7  A    between atoms: C_16  and  C_17
REMARK    8  A    between atoms: N_25  and  C_26
REMARK    9  A    between atoms: N_25  and  C_27
REMARK                            x       y       z     vdW  Elec       q    Type
REMARK                         _______ _______ _______ _____ _____    ______ ____
ROOT
ATOM      1  C   UNL     1       1.898   6.843  19.719  0.00  0.00    +0.000 C 
ENDROOT
BRANCH   1   4
ATOM      2  C   UNL     1       3.940   5.737  18.803  0.00  0.00    +0.000 C 
ATOM      3  O   UNL     1       3.304   5.202  17.896  0.00  0.00    +0.000 OA
ATOM      4  N   UNL     1       3.346   6.570  19.726  0.00  0.00    +0.000 N 
ATOM      5  H   UNL     1       3.922   7.171  20.309  0.00  0.00    +0.000 HD
BRANCH   2   6
ATOM      6  C   UNL     1       5.432   5.505  18.996  0.00  0.00    +0.000 C 
BRANCH   6  16
ATOM      7  C   UNL     1       8.057   7.446  18.505  0.00  0.00    +0.000 C 
ATOM      8  C   UNL     1       7.310   6.573  17.562  0.00  0.00    +0.000 A 
ATOM      9  N   UNL     1       7.702   6.480  16.252  0.00  0.00    +0.000 N 
ATOM     10  C   UNL     1       7.013   5.491  15.607  0.00  0.00    +0.000 A 
ATOM     11  C   UNL     1       7.154   5.001  14.299  0.00  0.00    +0.000 A 
ATOM     12  C   UNL     1       6.330   3.941  13.912  0.00  0.00    +0.000 A 
ATOM     13  C   UNL     1       5.394   3.410  14.793  0.00  0.00    +0.000 A 
ATOM     14  C   UNL     1       5.252   3.926  16.085  0.00  0.00    +0.000 A 
ATOM     15  C   UNL     1       6.074   4.988  16.509  0.00  0.00    +0.000 A 
ATOM     16  C   UNL     1       6.227   5.719  17.740  0.00  0.00    +0.000 A 
ATOM     17  H   UNL     1       8.456   7.009  15.830  0.00  0.00    +0.000 HD
ENDBRANCH   6  16
ENDBRANCH   2   6
ENDBRANCH   1   4
BRANCH   1  18
ATOM     18  C   UNL     1       1.704   8.339  20.087  0.00  0.00    +0.000 C 
ATOM     19  O   UNL     1       1.666   8.607  21.297  0.00  0.00    +0.000 OA
ATOM     20  N   UNL     1       1.485   9.282  19.062  0.00  0.00    +0.000 N 
ATOM     21  C   UNL     1       1.483   8.924  17.637  0.00  0.00    +0.000 C 
BRANCH  20  22
ATOM     22  C   UNL     1       1.251  10.688  19.355  0.00  0.00    +0.000 A 
ATOM     23  C   UNL     1       0.390  11.109  20.379  0.00  0.00    +0.000 A 
ATOM     24  C   UNL     1       0.174  12.467  20.649  0.00  0.00    +0.000 A 
ATOM     25  C   UNL     1       0.819  13.443  19.904  0.00  0.00    +0.000 A 
ATOM     26  C   UNL     1       1.693  13.060  18.894  0.00  0.00    +0.000 A 
ATOM     27  C   UNL     1       1.909  11.700  18.628  0.00  0.00    +0.000 A 
ENDBRANCH  20  22
ENDBRANCH   1  18
BRANCH   1  28
ATOM     28  C   UNL     1       1.150   5.982  20.766  0.00  0.00    +0.000 C 
BRANCH  28  29
ATOM     29  C   UNL     1       1.389   4.492  20.655  0.00  0.00    +0.000 A 
ATOM     30  C   UNL     1       2.208   3.828  21.582  0.00  0.00    +0.000 A 
ATOM     31  C   UNL     1       2.503   2.472  21.426  0.00  0.00    +0.000 A 
ATOM     32  C   UNL     1       1.978   1.761  20.349  0.00  0.00    +0.000 A 
ATOM     33  C   UNL     1       1.134   2.399  19.444  0.00  0.00    +0.000 A 
ATOM     34  C   UNL     1       0.829   3.752  19.605  0.00  0.00    +0.000 A 
ENDBRANCH  28  29
ENDBRANCH   1  28
TORSDOF 7
ENDMDL
MODEL 9
REMARK VINA RESULT:      -7.6      3.044      8.988
REMARK  Name = 
REMARK  9 active torsions:
REMARK  status: ('A' for Active; 'I' for Inactive)
REMARK    1  A    between atoms: C_1  and  C_2
REMARK    2  A    between atoms: C_10  and  C_11
REMARK    3  A    between atoms: C_11  and  C_12
REMARK    4  A    between atoms: N_14  and  C_15
REMARK    5  A    between atoms: C_15  and  C_16
REMARK    6  A    between atoms: C_15  and  C_23
REMARK    7  A    between atoms: C_16  and  C_17
REMARK    8  A    between atoms: N_25  and  C_26
REMARK    9  A    between atoms: N_25  and  C_27
REMARK                            x       y       z     vdW  Elec       q    Type
REMARK                         _______ _______ _______ _____ _____    ______ ____
ROOT
ATOM      1  C   UNL     1      -0.627  11.798  19.149  0.00  0.00    +0.000 C 
ENDROOT
BRANCH   1   4
ATOM      2  C   UNL     1       1.323  13.353  19.060  0.00  0.00    +0.000 C 
ATOM      3  O   UNL     1       1.874  12.692  18.181  0.00  0.00    +0.000 OA
ATOM      4  N   UNL     1       0.094  13.009  19.579  0.00  0.00    +0.000 N 
ATOM      5  H   UNL     1      -0.433  13.686  20.124  0.00  0.00    +0.000 HD
BRANCH   2   6
ATOM      6  C   UNL     1       1.965  14.594  19.665  0.00  0.00    +0.000 C 
BRANCH   6  16
ATOM      7  C   UNL     1       4.586  15.302  17.787  0.00  0.00    +0.000 C 
ATOM      8  C   UNL     1       3.277  15.994  17.921  0.00  0.00    +0.000 A 
ATOM      9  N   UNL     1       3.011  17.115  17.179  0.00  0.00    +0.000 N 
ATOM     10  C   UNL     1       1.700  17.481  17.304  0.00  0.00    +0.000 A 
ATOM     11  C   UNL     1       0.985  18.503  16.659  0.00  0.00    +0.000 A 
ATOM     12  C   UNL     1      -0.375  18.628  16.954  0.00  0.00    +0.000 A 
ATOM     13  C   UNL     1      -0.985  17.777  17.869  0.00  0.00    +0.000 A 
ATOM     14  C   UNL     1      -0.251  16.779  18.519  0.00  0.00    +0.000 A 
ATOM     15  C   UNL     1       1.119  16.621  18.237  0.00  0.00    +0.000 A 
ATOM     16  C   UNL     1       2.142  15.707  18.673  0.00  0.00    +0.000 A 
ATOM     17  H   UNL     1       3.666  17.568  16.553  0.00  0.00    +0.000 HD
ENDBRANCH   6  16
ENDBRANCH   2   6
ENDBRANCH   1   4
BRANCH   1  18
ATOM     18  C   UNL     1      -2.144  12.134  19.151  0.00  0.00    +0.000 C 
ATOM     19  O   UNL     1      -2.517  12.996  19.961  0.00  0.00    +0.000 OA
ATOM     20  N   UNL     1      -3.017  11.396  18.326  0.00  0.00    +0.000 N 
ATOM     21  C   UNL     1      -2.552  10.343  17.413  0.00  0.00    +0.000 C 
BRANCH  20  22
ATOM     22  C   UNL     1      -4.452  11.638  18.323  0.00  0.00    +0.000 A 
ATOM     23  C   UNL     1      -5.258  11.394  19.445  0.00  0.00    +0.000 A 
ATOM     24  C   UNL     1      -6.639  11.630  19.427  0.00  0.00    +0.000 A 
ATOM     25  C   UNL     1      -7.252  12.125  18.285  0.00  0.00    +0.000 A 
ATOM     26  C   UNL     1      -6.480  12.396  17.162  0.00  0.00    +0.000 A 
ATOM     27  C   UNL     1      -5.098  12.160  17.184  0.00  0.00    +0.000 A 
ENDBRANCH  20  22
ENDBRANCH   1  18
BRANCH   1  28
ATOM     28  C   UNL     1      -0.390  10.617  20.121  0.00  0.00    +0.000 C 
BRANCH  28  29
ATOM     29  C   UNL     1       0.622   9.596  19.648  0.00  0.00    +0.000 A 
ATOM     30  C   UNL     1       1.045   9.574  18.309  0.00  0.00    +0.000 A 
ATOM     31  C   UNL     1       1.907   8.575  17.852  0.00  0.00    +0.000 A 
ATOM     32  C   UNL     1       2.364   7.592  18.727  0.00  0.00    +0.000 A 
ATOM     33  C   UNL     1       1.982   7.623  20.065  0.00  0.00    +0.000 A 
ATOM     34  C   UNL     1       1.129   8.628  20.526  0.00  0.00    +0.000 A 
ENDBRANCH  28  29
ENDBRANCH   1  28
TORSDOF 7
ENDMDL
