MODEL 1
REMARK VINA RESULT:      -6.9      0.000      0.000
REMARK  Name = 
REMARK  7 active torsions:
REMARK  status: ('A' for Active; 'I' for Inactive)
REMARK    1  A    between atoms: C_1  and  C_2
REMARK    2  A    between atoms: C_2  and  C_3
REMARK    3  A    between atoms: C_2  and  C_4
REMARK    4  A    between atoms: C_4  and  O_5
REMARK    5  A    between atoms: O_5  and  C_6
REMARK    6  A    between atoms: C_9  and  C_10
REMARK    7  A    between atoms: C_10  and  N_11
REMARK                            x       y       z     vdW  Elec       q    Type
REMARK                         _______ _______ _______ _____ _____    ______ ____
ROOT
ATOM      1  C   UNL     1       4.771   5.733  16.788  0.00  0.00    +0.000 A 
ATOM      2  C   UNL     1       3.639   6.068  17.545  0.00  0.00    +0.000 A 
ATOM      3  C   UNL     1       2.788   5.084  18.039  0.00  0.00    +0.000 A 
ATOM      4  C   UNL     1       3.037   3.734  17.790  0.00  0.00    +0.000 A 
ATOM      5  C   UNL     1       4.159   3.385  17.027  0.00  0.00    +0.000 A 
ATOM      6  C   UNL     1       5.024   4.376  16.538  0.00  0.00    +0.000 A 
ATOM      7 CL   UNL     1       6.402   3.867  15.624  0.00  0.00    +0.000 Cl
ENDROOT
BRANCH   1   8
ATOM      8  O   UNL     1       5.641   6.669  16.269  0.00  0.00    +0.000 OA
BRANCH   8   9
ATOM      9  C   UNL     1       6.149   7.608  17.217  0.00  0.00    +0.000 C 
BRANCH   9  11
ATOM     10  C   UNL     1       8.239   8.702  17.984  0.00  0.00    +0.000 C 
ATOM     11  C   UNL     1       7.621   7.368  17.555  0.00  0.00    +0.000 C 
ATOM     12  C   UNL     1       7.788   6.319  18.653  0.00  0.00    +0.000 C 
ENDBRANCH   9  11
ENDBRANCH   8   9
ENDBRANCH   1   8
BRANCH   4  13
ATOM     13  C   UNL     1       2.071   2.696  18.301  0.00  0.00    +0.000 C 
BRANCH  13  14
ATOM     14  N   UNL     1       2.367   2.357  19.687  0.00  0.00    +0.000 NA
ATOM     15  C   UNL     1       1.592   2.808  20.598  0.00  0.00    +0.000 C 
ATOM     16  N   UNL     1       0.503   3.596  20.477  0.00  0.00    +0.000 N 
ATOM     17  N   UNL     1       1.804   2.446  21.879  0.00  0.00    +0.000 N 
ATOM     18  H   UNL     1       0.372   4.083  19.602  0.00  0.00    +0.000 HD
ATOM     19  H   UNL     1       0.221   4.129  21.285  0.00  0.00    +0.000 HD
ATOM     20  H   UNL     1       2.692   1.963  21.972  0.00  0.00    +0.000 HD
ATOM     21  H   UNL     1       1.689   3.163  22.578  0.00  0.00    +0.000 HD
ENDBRANCH  13  14
ENDBRANCH   4  13
TORSDOF 5
ENDMDL
MODEL 2
REMARK VINA RESULT:      -6.6      4.102      6.484
REMARK  Name = 
REMARK  7 active torsions:
REMARK  status: ('A' for Active; 'I' for Inactive)
REMARK    1  A    between atoms: C_1  and  C_2
REMARK    2  A    between atoms: C_2  and  C_3
REMARK    3  A    between atoms: C_2  and  C_4
REMARK    4  A    between atoms: C_4  and  O_5
REMARK    5  A    between atoms: O_5  and  C_6
REMARK    6  A    between atoms: C_9  and  C_10
REMARK    7  A    between atoms: C_10  and  N_11
REMARK                            x       y       z     vdW  Elec       q    Type
REMARK                         _______ _______ _______ _____ _____    ______ ____
ROOT
ATOM      1  C   UNL     1       3.019   5.156  18.316  0.00  0.00    +0.000 A 
ATOM      2  C   UNL     1       4.020   4.180  18.209  0.00  0.00    +0.000 A 
ATOM      3  C   UNL     1       5.280   4.495  17.709  0.00  0.00    +0.000 A 
ATOM      4  C   UNL     1       5.581   5.793  17.296  0.00  0.00    +0.000 A 
ATOM      5  C   UNL     1       4.587   6.776  17.387  0.00  0.00    +0.000 A 
ATOM      6  C   UNL     1       3.319   6.462  17.902  0.00  0.00    +0.000 A 
ATOM      7 CL   UNL     1       2.152   7.735  18.008  0.00  0.00    +0.000 Cl
ENDROOT
BRANCH   1   8
ATOM      8  O   UNL     1       1.752   4.895  18.796  0.00  0.00    +0.000 OA
BRANCH   8   9
ATOM      9  C   UNL     1       1.664   4.759  20.215  0.00  0.00    +0.000 C 
BRANCH   9  11
ATOM     10  C   UNL     1       0.805   2.586  19.384  0.00  0.00    +0.000 C 
ATOM     11  C   UNL     1       1.061   3.420  20.642  0.00  0.00    +0.000 C 
ATOM     12  C   UNL     1       1.973   2.670  21.611  0.00  0.00    +0.000 C 
ENDBRANCH   9  11
ENDBRANCH   8   9
ENDBRANCH   1   8
BRANCH   4  13
ATOM     13  C   UNL     1       6.940   6.090  16.717  0.00  0.00    +0.000 C 
BRANCH  13  14
ATOM     14  N   UNL     1       7.275   7.498  16.891  0.00  0.00    +0.000 NA
ATOM     15  C   UNL     1       7.943   7.836  17.928  0.00  0.00    +0.000 C 
ATOM     16  N   UNL     1       8.394   7.065  18.939  0.00  0.00    +0.000 N 
ATOM     17  N   UNL     1       8.327   9.120  18.071  0.00  0.00    +0.000 N 
ATOM     18  H   UNL     1       7.999   6.140  19.035  0.00  0.00    +0.000 HD
ATOM     19  H   UNL     1       8.590   7.518  19.819  0.00  0.00    +0.000 HD
ATOM     20  H   UNL     1       7.876   9.709  17.377  0.00  0.00    +0.000 HD
ATOM     21  H   UNL     1       8.262   9.512  18.997  0.00  0.00    +0.000 HD
ENDBRANCH  13  14
ENDBRANCH   4  13
TORSDOF 5
ENDMDL
MODEL 3
REMARK VINA RESULT:      -6.6      4.121      6.387
REMARK  Name = 
REMARK  7 active torsions:
REMARK  status: ('A' for Active; 'I' for Inactive)
REMARK    1  A    between atoms: C_1  and  C_2
REMARK    2  A    between atoms: C_2  and  C_3
REMARK    3  A    between atoms: C_2  and  C_4
REMARK    4  A    between atoms: C_4  and  O_5
REMARK    5  A    between atoms: O_5  and  C_6
REMARK    6  A    between atoms: C_9  and  C_10
REMARK    7  A    between atoms: C_10  and  N_11
REMARK                            x       y       z     vdW  Elec       q    Type
REMARK                         _______ _______ _______ _____ _____    ______ ____
ROOT
ATOM      1  C   UNL     1       3.908   4.847  18.685  0.00  0.00    +0.000 A 
ATOM      2  C   UNL     1       4.175   6.088  18.090  0.00  0.00    +0.000 A 
ATOM      3  C   UNL     1       4.796   6.169  16.846  0.00  0.00    +0.000 A 
ATOM      4  C   UNL     1       5.173   5.015  16.160  0.00  0.00    +0.000 A 
ATOM      5  C   UNL     1       4.921   3.769  16.748  0.00  0.00    +0.000 A 
ATOM      6  C   UNL     1       4.285   3.685  17.996  0.00  0.00    +0.000 A 
ATOM      7 CL   UNL     1       3.985   2.110  18.647  0.00  0.00    +0.000 Cl
ENDROOT
BRANCH   1   8
ATOM      8  O   UNL     1       3.304   4.711  19.918  0.00  0.00    +0.000 OA
BRANCH   8   9
ATOM      9  C   UNL     1       1.902   4.984  19.933  0.00  0.00    +0.000 C 
BRANCH   9  11
ATOM     10  C   UNL     1       0.678   2.904  19.360  0.00  0.00    +0.000 C 
ATOM     11  C   UNL     1       1.082   3.830  20.511  0.00  0.00    +0.000 C 
ATOM     12  C   UNL     1       1.859   3.059  21.576  0.00  0.00    +0.000 C 
ENDBRANCH   9  11
ENDBRANCH   8   9
ENDBRANCH   1   8
BRANCH   4  13
ATOM     13  C   UNL     1       5.884   5.139  14.837  0.00  0.00    +0.000 C 
BRANCH  13  14
ATOM     14  N   UNL     1       5.632   3.967  14.008  0.00  0.00    +0.000 NA
ATOM     15  C   UNL     1       6.347   3.803  12.959  0.00  0.00    +0.000 C 
ATOM     16  N   UNL     1       7.331   4.586  12.469  0.00  0.00    +0.000 N 
ATOM     17  N   UNL     1       6.182   2.690  12.219  0.00  0.00    +0.000 N 
ATOM     18  H   UNL     1       7.401   5.529  12.824  0.00  0.00    +0.000 HD
ATOM     19  H   UNL     1       7.546   4.504  11.487  0.00  0.00    +0.000 HD
ATOM     20  H   UNL     1       5.359   2.177  12.523  0.00  0.00    +0.000 HD
ATOM     21  H   UNL     1       6.208   2.802  11.218  0.00  0.00    +0.000 HD
ENDBRANCH  13  14
ENDBRANCH   4  13
TORSDOF 5
ENDMDL
MODEL 4
REMARK VINA RESULT:      -6.5      1.401      1.837
REMARK  Name = 
REMARK  7 active torsions:
REMARK  status: ('A' for Active; 'I' for Inactive)
REMARK    1  A    between atoms: C_1  and  C_2
REMARK    2  A    between atoms: C_2  and  C_3
REMARK    3  A    between atoms: C_2  and  C_4
REMARK    4  A    between atoms: C_4  and  O_5
REMARK    5  A    between atoms: O_5  and  C_6
REMARK    6  A    between atoms: C_9  and  C_10
REMARK    7  A    between atoms: C_10  and  N_11
REMARK                            x       y       z     vdW  Elec       q    Type
REMARK                         _______ _______ _______ _____ _____    ______ ____
ROOT
ATOM      1  C   UNL     1       4.803   5.529  16.823  0.00  0.00    +0.000 A 
ATOM      2  C   UNL     1       4.959   4.144  16.667  0.00  0.00    +0.000 A 
ATOM      3  C   UNL     1       3.991   3.256  17.125  0.00  0.00    +0.000 A 
ATOM      4  C   UNL     1       2.837   3.720  17.757  0.00  0.00    +0.000 A 
ATOM      5  C   UNL     1       2.673   5.101  17.929  0.00  0.00    +0.000 A 
ATOM      6  C   UNL     1       3.643   5.998  17.458  0.00  0.00    +0.000 A 
ATOM      7 CL   UNL     1       3.358   7.689  17.684  0.00  0.00    +0.000 Cl
ENDROOT
BRANCH   1   8
ATOM      8  O   UNL     1       5.735   6.451  16.396  0.00  0.00    +0.000 OA
BRANCH   8   9
ATOM      9  C   UNL     1       7.094   6.024  16.503  0.00  0.00    +0.000 C 
BRANCH   9  11
ATOM     10  C   UNL     1       7.461   8.178  17.677  0.00  0.00    +0.000 C 
ATOM     11  C   UNL     1       7.833   6.693  17.663  0.00  0.00    +0.000 C 
ATOM     12  C   UNL     1       7.495   6.041  19.003  0.00  0.00    +0.000 C 
ENDBRANCH   9  11
ENDBRANCH   8   9
ENDBRANCH   1   8
BRANCH   4  13
ATOM     13  C   UNL     1       1.830   2.729  18.283  0.00  0.00    +0.000 C 
BRANCH  13  14
ATOM     14  N   UNL     1       2.141   2.362  19.658  0.00  0.00    +0.000 NA
ATOM     15  C   UNL     1       1.474   2.918  20.598  0.00  0.00    +0.000 C 
ATOM     16  N   UNL     1       0.496   3.844  20.515  0.00  0.00    +0.000 N 
ATOM     17  N   UNL     1       1.694   2.539  21.872  0.00  0.00    +0.000 N 
ATOM     18  H   UNL     1       0.392   4.338  19.641  0.00  0.00    +0.000 HD
ATOM     19  H   UNL     1       0.325   4.414  21.329  0.00  0.00    +0.000 HD
ATOM     20  H   UNL     1       2.514   1.941  21.932  0.00  0.00    +0.000 HD
ATOM     21  H   UNL     1       1.708   3.269  22.567  0.00  0.00    +0.000 HD
ENDBRANCH  13  14
ENDBRANCH   4  13
TORSDOF 5
ENDMDL
MODEL 5
REMARK VINA RESULT:      -6.5      2.243      3.306
REMARK  Name = 
REMARK  7 active torsions:
REMARK  status: ('A' for Active; 'I' for Inactive)
REMARK    1  A    between atoms: C_1  and  C_2
REMARK    2  A    between atoms: C_2  and  C_3
REMARK    3  A    between atoms: C_2  and  C_4
REMARK    4  A    between atoms: C_4  and  O_5
REMARK    5  A    between atoms: O_5  and  C_6
REMARK    6  A    between atoms: C_9  and  C_10
REMARK    7  A    between atoms: C_10  and  N_11
REMARK                            x       y       z     vdW  Elec       q    Type
REMARK                         _______ _______ _______ _____ _____    ______ ____
ROOT
ATOM      1  C   UNL     1       5.436   4.617  17.248  0.00  0.00    +0.000 A 
ATOM      2  C   UNL     1       4.096   4.322  16.960  0.00  0.00    +0.000 A 
ATOM      3  C   UNL     1       3.087   4.596  17.878  0.00  0.00    +0.000 A 
ATOM      4  C   UNL     1       3.382   5.168  19.115  0.00  0.00    +0.000 A 
ATOM      5  C   UNL     1       4.718   5.459  19.421  0.00  0.00    +0.000 A 
ATOM      6  C   UNL     1       5.736   5.194  18.491  0.00  0.00    +0.000 A 
ATOM      7 CL   UNL     1       7.358   5.603  18.930  0.00  0.00    +0.000 Cl
ENDROOT
BRANCH   1   8
ATOM      8  O   UNL     1       6.474   4.359  16.378  0.00  0.00    +0.000 OA
BRANCH   8   9
ATOM      9  C   UNL     1       6.121   3.574  15.238  0.00  0.00    +0.000 C 
BRANCH   9  11
ATOM     10  C   UNL     1       7.495   5.112  13.860  0.00  0.00    +0.000 C 
ATOM     11  C   UNL     1       6.153   4.377  13.937  0.00  0.00    +0.000 C 
ATOM     12  C   UNL     1       5.958   3.484  12.713  0.00  0.00    +0.000 C 
ENDBRANCH   9  11
ENDBRANCH   8   9
ENDBRANCH   1   8
BRANCH   4  13
ATOM     13  C   UNL     1       2.272   5.409  20.105  0.00  0.00    +0.000 C 
BRANCH  13  14
ATOM     14  N   UNL     1       2.327   4.433  21.186  0.00  0.00    +0.000 NA
ATOM     15  C   UNL     1       1.515   3.445  21.150  0.00  0.00    +0.000 C 
ATOM     16  N   UNL     1       0.563   3.158  20.237  0.00  0.00    +0.000 N 
ATOM     17  N   UNL     1       1.599   2.491  22.098  0.00  0.00    +0.000 N 
ATOM     18  H   UNL     1       0.283   3.895  19.606  0.00  0.00    +0.000 HD
ATOM     19  H   UNL     1      -0.195   2.559  20.527  0.00  0.00    +0.000 HD
ATOM     20  H   UNL     1       2.226   2.781  22.843  0.00  0.00    +0.000 HD
ATOM     21  H   UNL     1       0.729   2.131  22.457  0.00  0.00    +0.000 HD
ENDBRANCH  13  14
ENDBRANCH   4  13
TORSDOF 5
ENDMDL
MODEL 6
REMARK VINA RESULT:      -6.5      1.462      2.065
REMARK  Name = 
REMARK  7 active torsions:
REMARK  status: ('A' for Active; 'I' for Inactive)
REMARK    1  A    between atoms: C_1  and  C_2
REMARK    2  A    between atoms: C_2  and  C_3
REMARK    3  A    between atoms: C_2  and  C_4
REMARK    4  A    between atoms: C_4  and  O_5
REMARK    5  A    between atoms: O_5  and  C_6
REMARK    6  A    between atoms: C_9  and  C_10
REMARK    7  A    between atoms: C_10  and  N_11
REMARK                            x       y       z     vdW  Elec       q    Type
REMARK                         _______ _______ _______ _____ _____    ______ ____
ROOT
ATOM      1  C   UNL     1       4.624   5.080  16.798  0.00  0.00    +0.000 A 
ATOM      2  C   UNL     1       4.509   3.683  16.759  0.00  0.00    +0.000 A 
ATOM      3  C   UNL     1       3.404   3.038  17.306  0.00  0.00    +0.000 A 
ATOM      4  C   UNL     1       2.381   3.765  17.913  0.00  0.00    +0.000 A 
ATOM      5  C   UNL     1       2.487   5.161  17.968  0.00  0.00    +0.000 A 
ATOM      6  C   UNL     1       3.595   5.814  17.407  0.00  0.00    +0.000 A 
ATOM      7 CL   UNL     1       3.644   7.541  17.491  0.00  0.00    +0.000 Cl
ENDROOT
BRANCH   1   8
ATOM      8  O   UNL     1       5.701   5.768  16.279  0.00  0.00    +0.000 OA
BRANCH   8   9
ATOM      9  C   UNL     1       6.938   5.548  16.959  0.00  0.00    +0.000 C 
BRANCH   9  11
ATOM     10  C   UNL     1       7.999   5.810  19.185  0.00  0.00    +0.000 C 
ATOM     11  C   UNL     1       7.150   6.516  18.124  0.00  0.00    +0.000 C 
ATOM     12  C   UNL     1       7.821   7.811  17.672  0.00  0.00    +0.000 C 
ENDBRANCH   9  11
ENDBRANCH   8   9
ENDBRANCH   1   8
BRANCH   4  13
ATOM     13  C   UNL     1       1.220   3.032  18.536  0.00  0.00    +0.000 C 
BRANCH  13  14
ATOM     14  N   UNL     1       1.636   2.360  19.761  0.00  0.00    +0.000 NA
ATOM     15  C   UNL     1       1.633   3.031  20.850  0.00  0.00    +0.000 C 
ATOM     16  N   UNL     1       1.306   4.325  21.052  0.00  0.00    +0.000 N 
ATOM     17  N   UNL     1       1.942   2.410  22.005  0.00  0.00    +0.000 N 
ATOM     18  H   UNL     1       1.255   4.927  20.242  0.00  0.00    +0.000 HD
ATOM     19  H   UNL     1       1.679   4.777  21.873  0.00  0.00    +0.000 HD
ATOM     20  H   UNL     1       2.307   1.479  21.824  0.00  0.00    +0.000 HD
ATOM     21  H   UNL     1       2.518   2.921  22.655  0.00  0.00    +0.000 HD
ENDBRANCH  13  14
ENDBRANCH   4  13
TORSDOF 5
ENDMDL
MODEL 7
REMARK VINA RESULT:      -6.4      4.392      6.482
REMARK  Name = 
REMARK  7 active torsions:
REMARK  status: ('A' for Active; 'I' for Inactive)
REMARK    1  A    between atoms: C_1  and  C_2
REMARK    2  A    between atoms: C_2  and  C_3
REMARK    3  A    between atoms: C_2  and  C_4
REMARK    4  A    between atoms: C_4  and  O_5
REMARK    5  A    between atoms: O_5  and  C_6
REMARK    6  A    between atoms: C_9  and  C_10
REMARK    7  A    between atoms: C_10  and  N_11
REMARK                            x       y       z     vdW  Elec       q    Type
REMARK                         _______ _______ _______ _____ _____    ______ ____
ROOT
ATOM      1  C   UNL     1       4.161   5.044  18.553  0.00  0.00    +0.000 A 
ATOM      2  C   UNL     1       4.422   6.147  17.726  0.00  0.00    +0.000 A 
ATOM      3  C   UNL     1       4.943   5.978  16.447  0.00  0.00    +0.000 A 
ATOM      4  C   UNL     1       5.224   4.704  15.952  0.00  0.00    +0.000 A 
ATOM      5  C   UNL     1       4.977   3.594  16.771  0.00  0.00    +0.000 A 
ATOM      6  C   UNL     1       4.442   3.762  18.057  0.00  0.00    +0.000 A 
ATOM      7 CL   UNL     1       4.142   2.343  18.999  0.00  0.00    +0.000 Cl
ENDROOT
BRANCH   1   8
ATOM      8  O   UNL     1       3.654   5.156  19.830  0.00  0.00    +0.000 OA
BRANCH   8   9
ATOM      9  C   UNL     1       2.276   5.527  19.899  0.00  0.00    +0.000 C 
BRANCH   9  11
ATOM     10  C   UNL     1       0.861   3.527  19.511  0.00  0.00    +0.000 C 
ATOM     11  C   UNL     1       1.414   4.466  20.586  0.00  0.00    +0.000 C 
ATOM     12  C   UNL     1       2.204   3.682  21.632  0.00  0.00    +0.000 C 
ENDBRANCH   9  11
ENDBRANCH   8   9
ENDBRANCH   1   8
BRANCH   4  13
ATOM     13  C   UNL     1       5.830   4.559  14.580  0.00  0.00    +0.000 C 
BRANCH  13  14
ATOM     14  N   UNL     1       7.106   5.259  14.506  0.00  0.00    +0.000 NA
ATOM     15  C   UNL     1       7.743   5.240  13.397  0.00  0.00    +0.000 C 
ATOM     16  N   UNL     1       7.414   4.634  12.237  0.00  0.00    +0.000 N 
ATOM     17  N   UNL     1       8.888   5.942  13.284  0.00  0.00    +0.000 N 
ATOM     18  H   UNL     1       6.693   3.927  12.265  0.00  0.00    +0.000 HD
ATOM     19  H   UNL     1       8.161   4.428  11.591  0.00  0.00    +0.000 HD
ATOM     20  H   UNL     1       9.188   6.285  14.192  0.00  0.00    +0.000 HD
ATOM     21  H   UNL     1       9.641   5.503  12.779  0.00  0.00    +0.000 HD
ENDBRANCH  13  14
ENDBRANCH   4  13
TORSDOF 5
ENDMDL
MODEL 8
REMARK VINA RESULT:      -6.4      3.831      6.209
REMARK  Name = 
REMARK  7 active torsions:
REMARK  status: ('A' for Active; 'I' for Inactive)
REMARK    1  A    between atoms: C_1  and  C_2
REMARK    2  A    between atoms: C_2  and  C_3
REMARK    3  A    between atoms: C_2  and  C_4
REMARK    4  A    between atoms: C_4  and  O_5
REMARK    5  A    between atoms: O_5  and  C_6
REMARK    6  A    between atoms: C_9  and  C_10
REMARK    7  A    between atoms: C_10  and  N_11
REMARK                            x       y       z     vdW  Elec       q    Type
REMARK                         _______ _______ _______ _____ _____    ______ ____
ROOT
ATOM      1  C   UNL     1       2.728   4.590  17.636  0.00  0.00    +0.000 A 
ATOM      2  C   UNL     1       3.615   3.603  17.182  0.00  0.00    +0.000 A 
ATOM      3  C   UNL     1       4.924   3.920  16.830  0.00  0.00    +0.000 A 
ATOM      4  C   UNL     1       5.389   5.233  16.917  0.00  0.00    +0.000 A 
ATOM      5  C   UNL     1       4.510   6.231  17.359  0.00  0.00    +0.000 A 
ATOM      6  C   UNL     1       3.194   5.910  17.725  0.00  0.00    +0.000 A 
ATOM      7 CL   UNL     1       2.176   7.192  18.286  0.00  0.00    +0.000 Cl
ENDROOT
BRANCH   1   8
ATOM      8  O   UNL     1       1.420   4.331  17.988  0.00  0.00    +0.000 OA
BRANCH   8   9
ATOM      9  C   UNL     1       1.222   3.111  18.704  0.00  0.00    +0.000 C 
BRANCH   9  11
ATOM     10  C   UNL     1       2.051   2.475  20.954  0.00  0.00    +0.000 C 
ATOM     11  C   UNL     1       1.027   3.333  20.205  0.00  0.00    +0.000 C 
ATOM     12  C   UNL     1       1.176   4.804  20.586  0.00  0.00    +0.000 C 
ENDBRANCH   9  11
ENDBRANCH   8   9
ENDBRANCH   1   8
BRANCH   4  13
ATOM     13  C   UNL     1       6.798   5.550  16.485  0.00  0.00    +0.000 C 
BRANCH  13  14
ATOM     14  N   UNL     1       7.632   5.853  17.641  0.00  0.00    +0.000 NA
ATOM     15  C   UNL     1       7.856   7.081  17.920  0.00  0.00    +0.000 C 
ATOM     16  N   UNL     1       7.436   8.191  17.276  0.00  0.00    +0.000 N 
ATOM     17  N   UNL     1       8.562   7.386  19.026  0.00  0.00    +0.000 N 
ATOM     18  H   UNL     1       7.076   8.080  16.339  0.00  0.00    +0.000 HD
ATOM     19  H   UNL     1       7.967   9.037  17.411  0.00  0.00    +0.000 HD
ATOM     20  H   UNL     1       8.978   6.549  19.427  0.00  0.00    +0.000 HD
ATOM     21  H   UNL     1       9.230   8.137  18.946  0.00  0.00    +0.000 HD
ENDBRANCH  13  14
ENDBRANCH   4  13
TORSDOF 5
ENDMDL
MODEL 9
REMARK VINA RESULT:      -6.4      4.251      6.224
REMARK  Name = 
REMARK  7 active torsions:
REMARK  status: ('A' for Active; 'I' for Inactive)
REMARK    1  A    between atoms: C_1  and  C_2
REMARK    2  A    between atoms: C_2  and  C_3
REMARK    3  A    between atoms: C_2  and  C_4
REMARK    4  A    between atoms: C_4  and  O_5
REMARK    5  A    between atoms: O_5  and  C_6
REMARK    6  A    between atoms: C_9  and  C_10
REMARK    7  A    between atoms: C_10  and  N_11
REMARK                            x       y       z     vdW  Elec       q    Type
REMARK                         _______ _______ _______ _____ _____    ______ ____
ROOT
ATOM      1  C   UNL     1       5.158   4.653  18.365  0.00  0.00    +0.000 A 
ATOM      2  C   UNL     1       4.342   4.132  17.350  0.00  0.00    +0.000 A 
ATOM      3  C   UNL     1       4.824   3.968  16.055  0.00  0.00    +0.000 A 
ATOM      4  C   UNL     1       6.133   4.321  15.729  0.00  0.00    +0.000 A 
ATOM      5  C   UNL     1       6.957   4.852  16.731  0.00  0.00    +0.000 A 
ATOM      6  C   UNL     1       6.476   5.008  18.040  0.00  0.00    +0.000 A 
ATOM      7 CL   UNL     1       7.559   5.647  19.228  0.00  0.00    +0.000 Cl
ENDROOT
BRANCH   1   8
ATOM      8  O   UNL     1       4.728   4.845  19.661  0.00  0.00    +0.000 OA
BRANCH   8   9
ATOM      9  C   UNL     1       3.348   5.190  19.790  0.00  0.00    +0.000 C 
BRANCH   9  11
ATOM     10  C   UNL     1       1.111   4.303  20.391  0.00  0.00    +0.000 C 
ATOM     11  C   UNL     1       2.598   4.270  20.755  0.00  0.00    +0.000 C 
ATOM     12  C   UNL     1       3.133   2.840  20.708  0.00  0.00    +0.000 C 
ENDBRANCH   9  11
ENDBRANCH   8   9
ENDBRANCH   1   8
BRANCH   4  13
ATOM     13  C   UNL     1       6.610   4.172  14.307  0.00  0.00    +0.000 C 
BRANCH  13  14
ATOM     14  N   UNL     1       5.477   4.082  13.394  0.00  0.00    +0.000 NA
ATOM     15  C   UNL     1       5.581   3.312  12.377  0.00  0.00    +0.000 C 
ATOM     16  N   UNL     1       6.624   2.549  11.989  0.00  0.00    +0.000 N 
ATOM     17  N   UNL     1       4.520   3.157  11.561  0.00  0.00    +0.000 N 
ATOM     18  H   UNL     1       7.524   2.739  12.407  0.00  0.00    +0.000 HD
ATOM     19  H   UNL     1       6.673   2.286  11.017  0.00  0.00    +0.000 HD
ATOM     20  H   UNL     1       3.792   3.828  11.787  0.00  0.00    +0.000 HD
ATOM     21  H   UNL     1       4.709   3.125  10.571  0.00  0.00    +0.000 HD
ENDBRANCH  13  14
ENDBRANCH   4  13
TORSDOF 5
ENDMDL
