MODEL 1
REMARK VINA RESULT:      -9.0      0.000      0.000
REMARK  Name = 
REMARK  2 active torsions:
REMARK  status: ('A' for Active; 'I' for Inactive)
REMARK    1  A    between atoms: C_2  and  C_3
REMARK    2  A    between atoms: C_3  and  C_4
REMARK                            x       y       z     vdW  Elec       q    Type
REMARK                         _______ _______ _______ _____ _____    ______ ____
ROOT
ATOM      1  O   UNL     1       0.187  11.135  18.474  0.00  0.00    +0.000 OA
ATOM      2  C   UNL     1       0.444  10.466  19.485  0.00  0.00    +0.000 C 
ATOM      3  N   UNL     1       1.511   9.569  19.511  0.00  0.00    +0.000 N 
ATOM      4  C   UNL     1       1.805   8.602  20.570  0.00  0.00    +0.000 C 
ATOM      5  C   UNL     1       1.319   7.182  20.183  0.00  0.00    +0.000 C 
ATOM      6  C   UNL     1       1.895   6.772  18.820  0.00  0.00    +0.000 C 
ATOM      7  C   UNL     1       2.595   5.612  18.633  0.00  0.00    +0.000 C 
ATOM      8  C   UNL     1       3.704   5.502  17.606  0.00  0.00    +0.000 A 
ATOM      9  C   UNL     1       4.283   6.622  16.993  0.00  0.00    +0.000 A 
ATOM     10  C   UNL     1       5.200   6.527  15.944  0.00  0.00    +0.000 A 
ATOM     11  C   UNL     1       5.595   5.277  15.508  0.00  0.00    +0.000 A 
ATOM     12 CL   UNL     1       6.652   5.132  14.165  0.00  0.00    +0.000 Cl
ATOM     13  C   UNL     1       5.224   4.158  16.241  0.00  0.00    +0.000 A 
ATOM     14  C   UNL     1       4.399   4.300  17.376  0.00  0.00    +0.000 A 
ATOM     15  C   UNL     1       4.535   3.237  18.455  0.00  0.00    +0.000 C 
ATOM     16  C   UNL     1       4.594   3.865  19.876  0.00  0.00    +0.000 C 
ATOM     17  C   UNL     1       3.178   3.895  20.388  0.00  0.00    +0.000 A 
ATOM     18  N   UNL     1       2.899   2.959  21.336  0.00  0.00    +0.000 NA
ATOM     19  C   UNL     1       1.693   2.375  21.277  0.00  0.00    +0.000 A 
ATOM     20  C   UNL     1       0.780   2.650  20.278  0.00  0.00    +0.000 A 
ATOM     21  C   UNL     1       1.039   3.728  19.417  0.00  0.00    +0.000 A 
ATOM     22  C   UNL     1       2.229   4.462  19.537  0.00  0.00    +0.000 A 
ATOM     23  C   UNL     1       1.646   7.873  17.777  0.00  0.00    +0.000 C 
ATOM     24  C   UNL     1       2.160   9.243  18.244  0.00  0.00    +0.000 C 
ENDROOT
BRANCH   2  25
ATOM     25  C   UNL     1      -0.427  10.589  20.719  0.00  0.00    +0.000 C 
BRANCH  25  26
ATOM     26  C   UNL     1      -0.303  11.902  21.454  0.00  0.00    +0.000 A 
ATOM     27  C   UNL     1       0.646  12.867  21.098  0.00  0.00    +0.000 A 
ATOM     28  C   UNL     1       0.654  14.069  21.789  0.00  0.00    +0.000 A 
ATOM     29  N   UNL     1      -0.198  14.373  22.793  0.00  0.00    +0.000 NA
ATOM     30  C   UNL     1      -1.114  13.436  23.110  0.00  0.00    +0.000 A 
ATOM     31  C   UNL     1      -1.208  12.207  22.476  0.00  0.00    +0.000 A 
ENDBRANCH  25  26
ENDBRANCH   2  25
TORSDOF 2
ENDMDL
MODEL 2
REMARK VINA RESULT:      -8.3      1.494      1.805
REMARK  Name = 
REMARK  2 active torsions:
REMARK  status: ('A' for Active; 'I' for Inactive)
REMARK    1  A    between atoms: C_2  and  C_3
REMARK    2  A    between atoms: C_3  and  C_4
REMARK                            x       y       z     vdW  Elec       q    Type
REMARK                         _______ _______ _______ _____ _____    ______ ____
ROOT
ATOM      1  O   UNL     1       0.450  11.270  18.066  0.00  0.00    +0.000 OA
ATOM      2  C   UNL     1       0.638  10.614  19.099  0.00  0.00    +0.000 C 
ATOM      3  N   UNL     1       1.672   9.683  19.191  0.00  0.00    +0.000 N 
ATOM      4  C   UNL     1       1.886   8.729  20.281  0.00  0.00    +0.000 C 
ATOM      5  C   UNL     1       1.371   7.318  19.899  0.00  0.00    +0.000 C 
ATOM      6  C   UNL     1       1.994   6.862  18.572  0.00  0.00    +0.000 C 
ATOM      7  C   UNL     1       2.662   5.677  18.439  0.00  0.00    +0.000 C 
ATOM      8  C   UNL     1       3.813   5.509  17.466  0.00  0.00    +0.000 A 
ATOM      9  C   UNL     1       4.456   6.597  16.859  0.00  0.00    +0.000 A 
ATOM     10  C   UNL     1       5.416   6.452  15.856  0.00  0.00    +0.000 A 
ATOM     11  C   UNL     1       5.788   5.181  15.462  0.00  0.00    +0.000 A 
ATOM     12 CL   UNL     1       6.899   4.973  14.172  0.00  0.00    +0.000 Cl
ATOM     13  C   UNL     1       5.347   4.089  16.198  0.00  0.00    +0.000 A 
ATOM     14  C   UNL     1       4.477   4.281  17.291  0.00  0.00    +0.000 A 
ATOM     15  C   UNL     1       4.528   3.236  18.395  0.00  0.00    +0.000 C 
ATOM     16  C   UNL     1       4.544   3.892  19.805  0.00  0.00    +0.000 C 
ATOM     17  C   UNL     1       3.108   3.977  20.251  0.00  0.00    +0.000 A 
ATOM     18  N   UNL     1       2.756   3.071  21.202  0.00  0.00    +0.000 NA
ATOM     19  C   UNL     1       1.535   2.525  21.100  0.00  0.00    +0.000 A 
ATOM     20  C   UNL     1       0.677   2.809  20.055  0.00  0.00    +0.000 A 
ATOM     21  C   UNL     1       1.011   3.860  19.186  0.00  0.00    +0.000 A 
ATOM     22  C   UNL     1       2.218   4.557  19.347  0.00  0.00    +0.000 A 
ATOM     23  C   UNL     1       1.829   7.949  17.498  0.00  0.00    +0.000 C 
ATOM     24  C   UNL     1       2.366   9.311  17.961  0.00  0.00    +0.000 C 
ENDROOT
BRANCH   2  25
ATOM     25  C   UNL     1      -0.283  10.791  20.290  0.00  0.00    +0.000 C 
BRANCH  25  26
ATOM     26  C   UNL     1      -1.605  11.447  19.976  0.00  0.00    +0.000 A 
ATOM     27  C   UNL     1      -2.356  11.105  18.846  0.00  0.00    +0.000 A 
ATOM     28  C   UNL     1      -3.587  11.717  18.664  0.00  0.00    +0.000 A 
ATOM     29  N   UNL     1      -4.113  12.631  19.509  0.00  0.00    +0.000 NA
ATOM     30  C   UNL     1      -3.381  12.935  20.599  0.00  0.00    +0.000 A 
ATOM     31  C   UNL     1      -2.143  12.375  20.874  0.00  0.00    +0.000 A 
ENDBRANCH  25  26
ENDBRANCH   2  25
TORSDOF 2
ENDMDL
MODEL 3
REMARK VINA RESULT:      -7.9      2.878      4.500
REMARK  Name = 
REMARK  2 active torsions:
REMARK  status: ('A' for Active; 'I' for Inactive)
REMARK    1  A    between atoms: C_2  and  C_3
REMARK    2  A    between atoms: C_3  and  C_4
REMARK                            x       y       z     vdW  Elec       q    Type
REMARK                         _______ _______ _______ _____ _____    ______ ____
ROOT
ATOM      1  O   UNL     1       0.631  11.133  20.404  0.00  0.00    +0.000 OA
ATOM      2  C   UNL     1       0.948  10.792  19.257  0.00  0.00    +0.000 C 
ATOM      3  N   UNL     1       0.988   9.450  18.882  0.00  0.00    +0.000 N 
ATOM      4  C   UNL     1       1.512   8.916  17.624  0.00  0.00    +0.000 C 
ATOM      5  C   UNL     1       2.944   8.352  17.809  0.00  0.00    +0.000 C 
ATOM      6  C   UNL     1       2.972   7.327  18.953  0.00  0.00    +0.000 C 
ATOM      7  C   UNL     1       3.454   6.058  18.796  0.00  0.00    +0.000 C 
ATOM      8  C   UNL     1       2.901   4.886  19.582  0.00  0.00    +0.000 A 
ATOM      9  C   UNL     1       1.693   4.953  20.291  0.00  0.00    +0.000 A 
ATOM     10  C   UNL     1       1.247   3.933  21.134  0.00  0.00    +0.000 A 
ATOM     11  C   UNL     1       2.002   2.781  21.251  0.00  0.00    +0.000 A 
ATOM     12 CL   UNL     1       1.523   1.550  22.346  0.00  0.00    +0.000 Cl
ATOM     13  C   UNL     1       3.074   2.585  20.392  0.00  0.00    +0.000 A 
ATOM     14  C   UNL     1       3.422   3.585  19.459  0.00  0.00    +0.000 A 
ATOM     15  C   UNL     1       4.119   3.121  18.190  0.00  0.00    +0.000 C 
ATOM     16  C   UNL     1       3.524   3.802  16.925  0.00  0.00    +0.000 C 
ATOM     17  C   UNL     1       4.355   5.032  16.673  0.00  0.00    +0.000 A 
ATOM     18  N   UNL     1       5.216   4.928  15.625  0.00  0.00    +0.000 NA
ATOM     19  C   UNL     1       6.424   5.491  15.772  0.00  0.00    +0.000 A 
ATOM     20  C   UNL     1       6.823   6.105  16.944  0.00  0.00    +0.000 A 
ATOM     21  C   UNL     1       5.858   6.330  17.939  0.00  0.00    +0.000 A 
ATOM     22  C   UNL     1       4.540   5.882  17.763  0.00  0.00    +0.000 A 
ATOM     23  C   UNL     1       2.313   7.910  20.213  0.00  0.00    +0.000 C 
ATOM     24  C   UNL     1       0.899   8.444  19.937  0.00  0.00    +0.000 C 
ENDROOT
BRANCH   2  25
ATOM     25  C   UNL     1       1.334  11.841  18.232  0.00  0.00    +0.000 C 
BRANCH  25  26
ATOM     26  C   UNL     1       1.176  13.268  18.696  0.00  0.00    +0.000 A 
ATOM     27  C   UNL     1       2.249  14.009  19.203  0.00  0.00    +0.000 A 
ATOM     28  C   UNL     1       2.027  15.332  19.553  0.00  0.00    +0.000 A 
ATOM     29  N   UNL     1       0.836  15.959  19.440  0.00  0.00    +0.000 NA
ATOM     30  C   UNL     1      -0.181  15.232  18.935  0.00  0.00    +0.000 A 
ATOM     31  C   UNL     1      -0.061  13.905  18.550  0.00  0.00    +0.000 A 
ENDBRANCH  25  26
ENDBRANCH   2  25
TORSDOF 2
ENDMDL
MODEL 4
REMARK VINA RESULT:      -7.5      7.386      9.682
REMARK  Name = 
REMARK  2 active torsions:
REMARK  status: ('A' for Active; 'I' for Inactive)
REMARK    1  A    between atoms: C_2  and  C_3
REMARK    2  A    between atoms: C_3  and  C_4
REMARK                            x       y       z     vdW  Elec       q    Type
REMARK                         _______ _______ _______ _____ _____    ______ ____
ROOT
ATOM      1  O   UNL     1       1.697  14.163  21.879  0.00  0.00    +0.000 OA
ATOM      2  C   UNL     1       1.456  14.226  20.666  0.00  0.00    +0.000 C 
ATOM      3  N   UNL     1       0.147  14.258  20.185  0.00  0.00    +0.000 N 
ATOM      4  C   UNL     1      -0.265  14.154  18.784  0.00  0.00    +0.000 C 
ATOM      5  C   UNL     1      -0.746  12.720  18.447  0.00  0.00    +0.000 C 
ATOM      6  C   UNL     1      -1.841  12.278  19.428  0.00  0.00    +0.000 C 
ATOM      7  C   UNL     1      -3.062  11.823  19.016  0.00  0.00    +0.000 C 
ATOM      8  C   UNL     1      -4.318  12.041  19.837  0.00  0.00    +0.000 A 
ATOM      9  C   UNL     1      -4.379  12.951  20.901  0.00  0.00    +0.000 A 
ATOM     10  C   UNL     1      -5.481  13.055  21.753  0.00  0.00    +0.000 A 
ATOM     11  C   UNL     1      -6.585  12.258  21.521  0.00  0.00    +0.000 A 
ATOM     12 CL   UNL     1      -7.917  12.303  22.602  0.00  0.00    +0.000 Cl
ATOM     13  C   UNL     1      -6.652  11.521  20.347  0.00  0.00    +0.000 A 
ATOM     14  C   UNL     1      -5.572  11.538  19.441  0.00  0.00    +0.000 A 
ATOM     15  C   UNL     1      -5.902  11.277  17.980  0.00  0.00    +0.000 C 
ATOM     16  C   UNL     1      -5.178  12.281  17.038  0.00  0.00    +0.000 C 
ATOM     17  C   UNL     1      -3.882  11.628  16.637  0.00  0.00    +0.000 A 
ATOM     18  N   UNL     1      -3.858  11.155  15.361  0.00  0.00    +0.000 NA
ATOM     19  C   UNL     1      -3.228   9.989  15.157  0.00  0.00    +0.000 A 
ATOM     20  C   UNL     1      -2.670   9.253  16.185  0.00  0.00    +0.000 A 
ATOM     21  C   UNL     1      -2.576   9.846  17.453  0.00  0.00    +0.000 A 
ATOM     22  C   UNL     1      -3.096  11.131  17.677  0.00  0.00    +0.000 A 
ATOM     23  C   UNL     1      -1.389  12.510  20.879  0.00  0.00    +0.000 C 
ATOM     24  C   UNL     1      -0.931  13.956  21.122  0.00  0.00    +0.000 C 
ENDROOT
BRANCH   2  25
ATOM     25  C   UNL     1       2.594  14.240  19.664  0.00  0.00    +0.000 C 
BRANCH  25  26
ATOM     26  C   UNL     1       3.449  15.483  19.693  0.00  0.00    +0.000 A 
ATOM     27  C   UNL     1       4.610  15.607  18.923  0.00  0.00    +0.000 A 
ATOM     28  C   UNL     1       5.304  16.806  18.967  0.00  0.00    +0.000 A 
ATOM     29  N   UNL     1       4.934  17.872  19.712  0.00  0.00    +0.000 NA
ATOM     30  C   UNL     1       3.804  17.737  20.434  0.00  0.00    +0.000 A 
ATOM     31  C   UNL     1       3.037  16.583  20.454  0.00  0.00    +0.000 A 
ENDBRANCH  25  26
ENDBRANCH   2  25
TORSDOF 2
ENDMDL
MODEL 5
REMARK VINA RESULT:      -6.9      5.834      8.176
REMARK  Name = 
REMARK  2 active torsions:
REMARK  status: ('A' for Active; 'I' for Inactive)
REMARK    1  A    between atoms: C_2  and  C_3
REMARK    2  A    between atoms: C_3  and  C_4
REMARK                            x       y       z     vdW  Elec       q    Type
REMARK                         _______ _______ _______ _____ _____    ______ ____
ROOT
ATOM      1  O   UNL     1      -3.330  15.190  24.698  0.00  0.00    +0.000 OA
ATOM      2  C   UNL     1      -3.376  14.020  24.296  0.00  0.00    +0.000 C 
ATOM      3  N   UNL     1      -2.273  13.412  23.697  0.00  0.00    +0.000 N 
ATOM      4  C   UNL     1      -2.257  12.110  23.028  0.00  0.00    +0.000 C 
ATOM      5  C   UNL     1      -2.329  12.272  21.488  0.00  0.00    +0.000 C 
ATOM      6  C   UNL     1      -1.219  13.212  20.996  0.00  0.00    +0.000 C 
ATOM      7  C   UNL     1      -0.327  12.857  20.023  0.00  0.00    +0.000 C 
ATOM      8  C   UNL     1       1.093  13.387  20.003  0.00  0.00    +0.000 A 
ATOM      9  C   UNL     1       1.678  14.027  21.105  0.00  0.00    +0.000 A 
ATOM     10  C   UNL     1       2.928  14.645  21.051  0.00  0.00    +0.000 A 
ATOM     11  C   UNL     1       3.651  14.596  19.875  0.00  0.00    +0.000 A 
ATOM     12 CL   UNL     1       5.150  15.422  19.755  0.00  0.00    +0.000 Cl
ATOM     13  C   UNL     1       3.211  13.778  18.845  0.00  0.00    +0.000 A 
ATOM     14  C   UNL     1       2.003  13.061  18.980  0.00  0.00    +0.000 A 
ATOM     15  C   UNL     1       1.882  11.771  18.185  0.00  0.00    +0.000 C 
ATOM     16  C   UNL     1       1.294  10.618  19.047  0.00  0.00    +0.000 C 
ATOM     17  C   UNL     1      -0.195  10.639  18.826  0.00  0.00    +0.000 A 
ATOM     18  N   UNL     1      -0.664   9.639  18.030  0.00  0.00    +0.000 NA
ATOM     19  C   UNL     1      -1.647   9.954  17.174  0.00  0.00    +0.000 A 
ATOM     20  C   UNL     1      -2.141  11.238  17.045  0.00  0.00    +0.000 A 
ATOM     21  C   UNL     1      -1.746  12.201  17.987  0.00  0.00    +0.000 A 
ATOM     22  C   UNL     1      -0.824  11.873  18.994  0.00  0.00    +0.000 A 
ATOM     23  C   UNL     1      -1.220  14.517  21.808  0.00  0.00    +0.000 C 
ATOM     24  C   UNL     1      -1.147  14.262  23.321  0.00  0.00    +0.000 C 
ENDROOT
BRANCH   2  25
ATOM     25  C   UNL     1      -4.661  13.224  24.420  0.00  0.00    +0.000 C 
BRANCH  25  26
ATOM     26  C   UNL     1      -5.583  13.320  23.230  0.00  0.00    +0.000 A 
ATOM     27  C   UNL     1      -6.783  12.604  23.158  0.00  0.00    +0.000 A 
ATOM     28  C   UNL     1      -7.598  12.795  22.053  0.00  0.00    +0.000 A 
ATOM     29  N   UNL     1      -7.309  13.631  21.031  0.00  0.00    +0.000 NA
ATOM     30  C   UNL     1      -6.157  14.323  21.127  0.00  0.00    +0.000 A 
ATOM     31  C   UNL     1      -5.277  14.207  22.193  0.00  0.00    +0.000 A 
ENDBRANCH  25  26
ENDBRANCH   2  25
TORSDOF 2
ENDMDL
MODEL 6
REMARK VINA RESULT:      -6.9      4.052     10.656
REMARK  Name = 
REMARK  2 active torsions:
REMARK  status: ('A' for Active; 'I' for Inactive)
REMARK    1  A    between atoms: C_2  and  C_3
REMARK    2  A    between atoms: C_3  and  C_4
REMARK                            x       y       z     vdW  Elec       q    Type
REMARK                         _______ _______ _______ _____ _____    ______ ____
ROOT
ATOM      1  O   UNL     1      -0.309   9.299  17.223  0.00  0.00    +0.000 OA
ATOM      2  C   UNL     1       0.425   9.698  18.137  0.00  0.00    +0.000 C 
ATOM      3  N   UNL     1      -0.100  10.292  19.284  0.00  0.00    +0.000 N 
ATOM      4  C   UNL     1       0.662  10.958  20.342  0.00  0.00    +0.000 C 
ATOM      5  C   UNL     1       0.623  12.499  20.176  0.00  0.00    +0.000 C 
ATOM      6  C   UNL     1      -0.829  12.990  20.082  0.00  0.00    +0.000 C 
ATOM      7  C   UNL     1      -1.334  13.960  20.902  0.00  0.00    +0.000 C 
ATOM      8  C   UNL     1      -2.791  13.978  21.322  0.00  0.00    +0.000 A 
ATOM      9  C   UNL     1      -3.641  12.876  21.152  0.00  0.00    +0.000 A 
ATOM     10  C   UNL     1      -5.014  12.929  21.399  0.00  0.00    +0.000 A 
ATOM     11  C   UNL     1      -5.566  14.103  21.874  0.00  0.00    +0.000 A 
ATOM     12 CL   UNL     1      -7.262  14.222  22.103  0.00  0.00    +0.000 Cl
ATOM     13  C   UNL     1      -4.725  15.132  22.273  0.00  0.00    +0.000 A 
ATOM     14  C   UNL     1      -3.329  14.998  22.129  0.00  0.00    +0.000 A 
ATOM     15  C   UNL     1      -2.463  15.790  23.097  0.00  0.00    +0.000 C 
ATOM     16  C   UNL     1      -1.304  14.927  23.670  0.00  0.00    +0.000 C 
ATOM     17  C   UNL     1      -0.120  15.151  22.767  0.00  0.00    +0.000 A 
ATOM     18  N   UNL     1       0.851  15.945  23.294  0.00  0.00    +0.000 NA
ATOM     19  C   UNL     1       1.454  16.804  22.459  0.00  0.00    +0.000 A 
ATOM     20  C   UNL     1       1.086  16.938  21.134  0.00  0.00    +0.000 A 
ATOM     21  C   UNL     1       0.196  15.998  20.592  0.00  0.00    +0.000 A 
ATOM     22  C   UNL     1      -0.349  14.988  21.401  0.00  0.00    +0.000 A 
ATOM     23  C   UNL     1      -1.604  12.182  19.030  0.00  0.00    +0.000 C 
ATOM     24  C   UNL     1      -1.511  10.668  19.273  0.00  0.00    +0.000 C 
ENDROOT
BRANCH   2  25
ATOM     25  C   UNL     1       1.931   9.574  18.011  0.00  0.00    +0.000 C 
BRANCH  25  26
ATOM     26  C   UNL     1       2.485   8.213  18.353  0.00  0.00    +0.000 A 
ATOM     27  C   UNL     1       2.113   7.529  19.515  0.00  0.00    +0.000 A 
ATOM     28  C   UNL     1       2.626   6.257  19.723  0.00  0.00    +0.000 A 
ATOM     29  N   UNL     1       3.471   5.631  18.875  0.00  0.00    +0.000 NA
ATOM     30  C   UNL     1       3.806   6.302  17.754  0.00  0.00    +0.000 A 
ATOM     31  C   UNL     1       3.342   7.573  17.451  0.00  0.00    +0.000 A 
ENDBRANCH  25  26
ENDBRANCH   2  25
TORSDOF 2
ENDMDL
MODEL 7
REMARK VINA RESULT:      -6.8      5.532     11.410
REMARK  Name = 
REMARK  2 active torsions:
REMARK  status: ('A' for Active; 'I' for Inactive)
REMARK    1  A    between atoms: C_2  and  C_3
REMARK    2  A    between atoms: C_3  and  C_4
REMARK                            x       y       z     vdW  Elec       q    Type
REMARK                         _______ _______ _______ _____ _____    ______ ____
ROOT
ATOM      1  O   UNL     1       1.269  11.395  21.234  0.00  0.00    +0.000 OA
ATOM      2  C   UNL     1       0.565  11.598  20.236  0.00  0.00    +0.000 C 
ATOM      3  N   UNL     1      -0.377  12.627  20.208  0.00  0.00    +0.000 N 
ATOM      4  C   UNL     1      -1.382  12.854  19.168  0.00  0.00    +0.000 C 
ATOM      5  C   UNL     1      -2.770  12.320  19.603  0.00  0.00    +0.000 C 
ATOM      6  C   UNL     1      -3.169  12.913  20.962  0.00  0.00    +0.000 C 
ATOM      7  C   UNL     1      -4.352  13.569  21.163  0.00  0.00    +0.000 C 
ATOM      8  C   UNL     1      -4.482  14.698  22.165  0.00  0.00    +0.000 A 
ATOM      9  C   UNL     1      -3.372  15.338  22.735  0.00  0.00    +0.000 A 
ATOM     10  C   UNL     1      -3.479  16.276  23.763  0.00  0.00    +0.000 A 
ATOM     11  C   UNL     1      -4.733  16.630  24.222  0.00  0.00    +0.000 A 
ATOM     12 CL   UNL     1      -4.889  17.713  25.543  0.00  0.00    +0.000 Cl
ATOM     13  C   UNL     1      -5.854  16.195  23.528  0.00  0.00    +0.000 A 
ATOM     14  C   UNL     1      -5.706  15.348  22.410  0.00  0.00    +0.000 A 
ATOM     15  C   UNL     1      -6.800  15.413  21.356  0.00  0.00    +0.000 C 
ATOM     16  C   UNL     1      -6.211  15.463  19.917  0.00  0.00    +0.000 C 
ATOM     17  C   UNL     1      -6.135  14.037  19.440  0.00  0.00    +0.000 A 
ATOM     18  N   UNL     1      -7.082  13.696  18.523  0.00  0.00    +0.000 NA
ATOM     19  C   UNL     1      -7.614  12.469  18.626  0.00  0.00    +0.000 A 
ATOM     20  C   UNL     1      -7.276  11.593  19.639  0.00  0.00    +0.000 A 
ATOM     21  C   UNL     1      -6.189  11.918  20.465  0.00  0.00    +0.000 A 
ATOM     22  C   UNL     1      -5.508  13.134  20.298  0.00  0.00    +0.000 A 
ATOM     23  C   UNL     1      -2.033  12.736  21.981  0.00  0.00    +0.000 C 
ATOM     24  C   UNL     1      -0.697  13.293  21.467  0.00  0.00    +0.000 C 
ENDROOT
BRANCH   2  25
ATOM     25  C   UNL     1       0.693  10.702  19.020  0.00  0.00    +0.000 C 
BRANCH  25  26
ATOM     26  C   UNL     1       1.217   9.316  19.307  0.00  0.00    +0.000 A 
ATOM     27  C   UNL     1       2.048   8.634  18.411  0.00  0.00    +0.000 A 
ATOM     28  C   UNL     1       2.530   7.388  18.780  0.00  0.00    +0.000 A 
ATOM     29  N   UNL     1       2.248   6.781  19.954  0.00  0.00    +0.000 NA
ATOM     30  C   UNL     1       1.458   7.461  20.809  0.00  0.00    +0.000 A 
ATOM     31  C   UNL     1       0.931   8.714  20.537  0.00  0.00    +0.000 A 
ENDBRANCH  25  26
ENDBRANCH   2  25
TORSDOF 2
ENDMDL
MODEL 8
REMARK VINA RESULT:      -6.8      4.256     10.254
REMARK  Name = 
REMARK  2 active torsions:
REMARK  status: ('A' for Active; 'I' for Inactive)
REMARK    1  A    between atoms: C_2  and  C_3
REMARK    2  A    between atoms: C_3  and  C_4
REMARK                            x       y       z     vdW  Elec       q    Type
REMARK                         _______ _______ _______ _____ _____    ______ ____
ROOT
ATOM      1  O   UNL     1       0.791   9.267  17.192  0.00  0.00    +0.000 OA
ATOM      2  C   UNL     1       0.771   9.299  18.429  0.00  0.00    +0.000 C 
ATOM      3  N   UNL     1      -0.384   9.646  19.129  0.00  0.00    +0.000 N 
ATOM      4  C   UNL     1      -0.486   9.890  20.569  0.00  0.00    +0.000 C 
ATOM      5  C   UNL     1      -0.485  11.408  20.882  0.00  0.00    +0.000 C 
ATOM      6  C   UNL     1      -1.580  12.121  20.074  0.00  0.00    +0.000 C 
ATOM      7  C   UNL     1      -2.533  12.909  20.657  0.00  0.00    +0.000 C 
ATOM      8  C   UNL     1      -3.930  13.037  20.083  0.00  0.00    +0.000 A 
ATOM      9  C   UNL     1      -4.433  12.160  19.112  0.00  0.00    +0.000 A 
ATOM     10  C   UNL     1      -5.659  12.353  18.472  0.00  0.00    +0.000 A 
ATOM     11  C   UNL     1      -6.441  13.433  18.834  0.00  0.00    +0.000 A 
ATOM     12 CL   UNL     1      -7.910  13.744  18.004  0.00  0.00    +0.000 Cl
ATOM     13  C   UNL     1      -6.085  14.183  19.946  0.00  0.00    +0.000 A 
ATOM     14  C   UNL     1      -4.902  13.881  20.652  0.00  0.00    +0.000 A 
ATOM     15  C   UNL     1      -4.873  14.253  22.126  0.00  0.00    +0.000 C 
ATOM     16  C   UNL     1      -4.289  13.105  22.997  0.00  0.00    +0.000 C 
ATOM     17  C   UNL     1      -2.813  13.374  23.122  0.00  0.00    +0.000 A 
ATOM     18  N   UNL     1      -2.425  13.847  24.338  0.00  0.00    +0.000 NA
ATOM     19  C   UNL     1      -1.474  14.793  24.347  0.00  0.00    +0.000 A 
ATOM     20  C   UNL     1      -0.936  15.321  23.189  0.00  0.00    +0.000 A 
ATOM     21  C   UNL     1      -1.245  14.700  21.968  0.00  0.00    +0.000 A 
ATOM     22  C   UNL     1      -2.128  13.610  21.930  0.00  0.00    +0.000 A 
ATOM     23  C   UNL     1      -1.486  11.742  18.588  0.00  0.00    +0.000 C 
ATOM     24  C   UNL     1      -1.493  10.221  18.373  0.00  0.00    +0.000 C 
ENDROOT
BRANCH   2  25
ATOM     25  C   UNL     1       2.027   8.985  19.218  0.00  0.00    +0.000 C 
BRANCH  25  26
ATOM     26  C   UNL     1       2.308   7.514  19.404  0.00  0.00    +0.000 A 
ATOM     27  C   UNL     1       1.805   6.793  20.493  0.00  0.00    +0.000 A 
ATOM     28  C   UNL     1       2.064   5.432  20.555  0.00  0.00    +0.000 A 
ATOM     29  N   UNL     1       2.777   4.750  19.631  0.00  0.00    +0.000 NA
ATOM     30  C   UNL     1       3.238   5.461  18.583  0.00  0.00    +0.000 A 
ATOM     31  C   UNL     1       3.029   6.823  18.425  0.00  0.00    +0.000 A 
ENDBRANCH  25  26
ENDBRANCH   2  25
TORSDOF 2
ENDMDL
MODEL 9
REMARK VINA RESULT:      -6.8      6.208      9.986
REMARK  Name = 
REMARK  2 active torsions:
REMARK  status: ('A' for Active; 'I' for Inactive)
REMARK    1  A    between atoms: C_2  and  C_3
REMARK    2  A    between atoms: C_3  and  C_4
REMARK                            x       y       z     vdW  Elec       q    Type
REMARK                         _______ _______ _______ _____ _____    ______ ____
ROOT
ATOM      1  O   UNL     1       6.136  16.000  20.199  0.00  0.00    +0.000 OA
ATOM      2  C   UNL     1       5.406  15.642  19.265  0.00  0.00    +0.000 C 
ATOM      3  N   UNL     1       4.019  15.594  19.404  0.00  0.00    +0.000 N 
ATOM      4  C   UNL     1       3.070  15.026  18.445  0.00  0.00    +0.000 C 
ATOM      5  C   UNL     1       2.625  13.604  18.872  0.00  0.00    +0.000 C 
ATOM      6  C   UNL     1       2.085  13.622  20.310  0.00  0.00    +0.000 C 
ATOM      7  C   UNL     1       0.850  13.139  20.642  0.00  0.00    +0.000 C 
ATOM      8  C   UNL     1       0.038  13.726  21.779  0.00  0.00    +0.000 A 
ATOM      9  C   UNL     1       0.346  14.959  22.372  0.00  0.00    +0.000 A 
ATOM     10  C   UNL     1      -0.304  15.439  23.511  0.00  0.00    +0.000 A 
ATOM     11  C   UNL     1      -1.327  14.694  24.065  0.00  0.00    +0.000 A 
ATOM     12 CL   UNL     1      -2.082  15.217  25.513  0.00  0.00    +0.000 Cl
ATOM     13  C   UNL     1      -1.811  13.592  23.373  0.00  0.00    +0.000 A 
ATOM     14  C   UNL     1      -1.215  13.206  22.155  0.00  0.00    +0.000 A 
ATOM     15  C   UNL     1      -2.100  12.465  21.166  0.00  0.00    +0.000 C 
ATOM     16  C   UNL     1      -1.930  13.011  19.720  0.00  0.00    +0.000 C 
ATOM     17  C   UNL     1      -0.867  12.166  19.069  0.00  0.00    +0.000 A 
ATOM     18  N   UNL     1      -1.336  11.267  18.161  0.00  0.00    +0.000 NA
ATOM     19  C   UNL     1      -0.746  10.063  18.137  0.00  0.00    +0.000 A 
ATOM     20  C   UNL     1       0.255   9.706  19.020  0.00  0.00    +0.000 A 
ATOM     21  C   UNL     1       0.816  10.705  19.830  0.00  0.00    +0.000 A 
ATOM     22  C   UNL     1       0.323  12.018  19.782  0.00  0.00    +0.000 A 
ATOM     23  C   UNL     1       3.079  14.325  21.249  0.00  0.00    +0.000 C 
ATOM     24  C   UNL     1       3.463  15.725  20.748  0.00  0.00    +0.000 C 
ENDROOT
BRANCH   2  25
ATOM     25  C   UNL     1       6.015  15.215  17.944  0.00  0.00    +0.000 C 
BRANCH  25  26
ATOM     26  C   UNL     1       7.505  14.979  17.981  0.00  0.00    +0.000 A 
ATOM     27  C   UNL     1       8.053  13.700  18.126  0.00  0.00    +0.000 A 
ATOM     28  C   UNL     1       9.433  13.568  18.092  0.00  0.00    +0.000 A 
ATOM     29  N   UNL     1      10.292  14.599  17.931  0.00  0.00    +0.000 NA
ATOM     30  C   UNL     1       9.743  15.821  17.779  0.00  0.00    +0.000 A 
ATOM     31  C   UNL     1       8.376  16.057  17.792  0.00  0.00    +0.000 A 
ENDBRANCH  25  26
ENDBRANCH   2  25
TORSDOF 2
ENDMDL
