MODEL 1
REMARK VINA RESULT:      -8.3      0.000      0.000
REMARK  Name = 
REMARK  7 active torsions:
REMARK  status: ('A' for Active; 'I' for Inactive)
REMARK    1  A    between atoms: C_1  and  N_2
REMARK    2  A    between atoms: C_4  and  C_5
REMARK    3  A    between atoms: C_5  and  N_6
REMARK    4  A    between atoms: C_5  and  C_20
REMARK    5  A    between atoms: C_7  and  C_9
REMARK    6  A    between atoms: C_12  and  N_13
REMARK    7  A    between atoms: C_22  and  O_23
REMARK                            x       y       z     vdW  Elec       q    Type
REMARK                         _______ _______ _______ _____ _____    ______ ____
ROOT
ATOM      1  N   UNL     1       3.547   5.686  18.189  0.00  0.00    +0.000 N 
ATOM      2  C   UNL     1       3.039   6.211  19.360  0.00  0.00    +0.000 C 
ATOM      3  O   UNL     1       3.133   5.651  20.445  0.00  0.00    +0.000 OA
ATOM      4  H   UNL     1       3.289   6.102  17.308  0.00  0.00    +0.000 HD
ENDROOT
BRANCH   2   5
ATOM      5  C   UNL     1       2.287   7.493  19.234  0.00  0.00    +0.000 A 
ATOM      6  C   UNL     1       1.674   8.018  20.380  0.00  0.00    +0.000 A 
ATOM      7  C   UNL     1       0.892   9.177  20.306  0.00  0.00    +0.000 A 
ATOM      8  C   UNL     1       0.715   9.821  19.074  0.00  0.00    +0.000 A 
ATOM      9  C   UNL     1       1.366   9.322  17.933  0.00  0.00    +0.000 A 
ATOM     10  C   UNL     1       2.156   8.171  18.017  0.00  0.00    +0.000 A 
BRANCH   8  11
ATOM     11  N   UNL     1      -0.129  10.951  18.957  0.00  0.00    +0.000 N 
ATOM     12  C   UNL     1      -0.117  12.127  19.663  0.00  0.00    +0.000 A 
ATOM     13  N   UNL     1      -1.123  12.878  19.274  0.00  0.00    +0.000 NA
ATOM     14  N   UNL     1      -1.765  12.162  18.300  0.00  0.00    +0.000 NA
ATOM     15  N   UNL     1      -1.166  10.999  18.089  0.00  0.00    +0.000 NA
ENDBRANCH   8  11
ENDBRANCH   2   5
BRANCH   1  16
ATOM     16  C   UNL     1       4.196   4.384  18.145  0.00  0.00    +0.000 C 
BRANCH  16  20
ATOM     17  C   UNL     1       6.744   4.253  13.782  0.00  0.00    +0.000 C 
ATOM     18  N   UNL     1       6.368   4.338  15.172  0.00  0.00    +0.000 N 
ATOM     19  C   UNL     1       5.111   4.228  15.695  0.00  0.00    +0.000 A 
ATOM     20  C   UNL     1       5.232   4.394  17.065  0.00  0.00    +0.000 A 
ATOM     21  C   UNL     1       6.625   4.593  17.244  0.00  0.00    +0.000 A 
ATOM     22  N   UNL     1       7.313   4.545  16.102  0.00  0.00    +0.000 NA
ENDBRANCH  16  20
BRANCH  16  23
ATOM     23  C   UNL     1       3.078   3.347  17.967  0.00  0.00    +0.000 C 
ATOM     24  C   UNL     1       1.638   3.878  17.778  0.00  0.00    +0.000 C 
ATOM     25  C   UNL     1       1.124   2.828  18.778  0.00  0.00    +0.000 C 
ATOM     26  C   UNL     1       2.578   2.499  19.164  0.00  0.00    +0.000 C 
BRANCH  25  27
ATOM     27  O   UNL     1       0.348   1.746  18.231  0.00  0.00    +0.000 OA
ATOM     28  H   UNL     1       0.889   0.947  18.351  0.00  0.00    +0.000 HD
ENDBRANCH  25  27
ENDBRANCH  16  23
ENDBRANCH   1  16
TORSDOF 6
ENDMDL
MODEL 2
REMARK VINA RESULT:      -8.3      0.456      1.058
REMARK  Name = 
REMARK  7 active torsions:
REMARK  status: ('A' for Active; 'I' for Inactive)
REMARK    1  A    between atoms: C_1  and  N_2
REMARK    2  A    between atoms: C_4  and  C_5
REMARK    3  A    between atoms: C_5  and  N_6
REMARK    4  A    between atoms: C_5  and  C_20
REMARK    5  A    between atoms: C_7  and  C_9
REMARK    6  A    between atoms: C_12  and  N_13
REMARK    7  A    between atoms: C_22  and  O_23
REMARK                            x       y       z     vdW  Elec       q    Type
REMARK                         _______ _______ _______ _____ _____    ______ ____
ROOT
ATOM      1  N   UNL     1       3.539   5.677  18.209  0.00  0.00    +0.000 N 
ATOM      2  C   UNL     1       3.026   6.204  19.376  0.00  0.00    +0.000 C 
ATOM      3  O   UNL     1       3.124   5.651  20.465  0.00  0.00    +0.000 OA
ATOM      4  H   UNL     1       3.279   6.085  17.325  0.00  0.00    +0.000 HD
ENDROOT
BRANCH   2   5
ATOM      5  C   UNL     1       2.263   7.478  19.243  0.00  0.00    +0.000 A 
ATOM      6  C   UNL     1       2.229   8.104  17.989  0.00  0.00    +0.000 A 
ATOM      7  C   UNL     1       1.593   9.340  17.824  0.00  0.00    +0.000 A 
ATOM      8  C   UNL     1       0.985   9.964  18.921  0.00  0.00    +0.000 A 
ATOM      9  C   UNL     1       0.978   9.317  20.168  0.00  0.00    +0.000 A 
ATOM     10  C   UNL     1       1.604   8.076  20.323  0.00  0.00    +0.000 A 
BRANCH   8  11
ATOM     11  N   UNL     1       0.399  11.246  18.798  0.00  0.00    +0.000 N 
ATOM     12  C   UNL     1       0.977  12.486  18.915  0.00  0.00    +0.000 A 
ATOM     13  N   UNL     1       0.051  13.410  18.793  0.00  0.00    +0.000 NA
ATOM     14  N   UNL     1      -1.122  12.735  18.585  0.00  0.00    +0.000 NA
ATOM     15  N   UNL     1      -0.923  11.426  18.572  0.00  0.00    +0.000 NA
ENDBRANCH   8  11
ENDBRANCH   2   5
BRANCH   1  16
ATOM     16  C   UNL     1       4.200   4.380  18.174  0.00  0.00    +0.000 C 
BRANCH  16  20
ATOM     17  C   UNL     1       6.773   4.272  13.824  0.00  0.00    +0.000 C 
ATOM     18  N   UNL     1       6.389   4.350  15.213  0.00  0.00    +0.000 N 
ATOM     19  C   UNL     1       5.129   4.236  15.728  0.00  0.00    +0.000 A 
ATOM     20  C   UNL     1       5.243   4.396  17.099  0.00  0.00    +0.000 A 
ATOM     21  C   UNL     1       6.634   4.595  17.287  0.00  0.00    +0.000 A 
ATOM     22  N   UNL     1       7.328   4.554  16.148  0.00  0.00    +0.000 NA
ENDBRANCH  16  20
BRANCH  16  23
ATOM     23  C   UNL     1       3.093   3.333  17.993  0.00  0.00    +0.000 C 
ATOM     24  C   UNL     1       1.651   3.851  17.779  0.00  0.00    +0.000 C 
ATOM     25  C   UNL     1       1.133   2.808  18.784  0.00  0.00    +0.000 C 
ATOM     26  C   UNL     1       2.584   2.494  19.192  0.00  0.00    +0.000 C 
BRANCH  25  27
ATOM     27  O   UNL     1       0.372   1.714  18.239  0.00  0.00    +0.000 OA
ATOM     28  H   UNL     1       1.024   1.108  17.848  0.00  0.00    +0.000 HD
ENDBRANCH  25  27
ENDBRANCH  16  23
ENDBRANCH   1  16
TORSDOF 6
ENDMDL
MODEL 3
REMARK VINA RESULT:      -8.0      0.843      1.312
REMARK  Name = 
REMARK  7 active torsions:
REMARK  status: ('A' for Active; 'I' for Inactive)
REMARK    1  A    between atoms: C_1  and  N_2
REMARK    2  A    between atoms: C_4  and  C_5
REMARK    3  A    between atoms: C_5  and  N_6
REMARK    4  A    between atoms: C_5  and  C_20
REMARK    5  A    between atoms: C_7  and  C_9
REMARK    6  A    between atoms: C_12  and  N_13
REMARK    7  A    between atoms: C_22  and  O_23
REMARK                            x       y       z     vdW  Elec       q    Type
REMARK                         _______ _______ _______ _____ _____    ______ ____
ROOT
ATOM      1  N   UNL     1       3.230   5.934  17.970  0.00  0.00    +0.000 N 
ATOM      2  C   UNL     1       2.974   6.388  19.248  0.00  0.00    +0.000 C 
ATOM      3  O   UNL     1       3.344   5.802  20.258  0.00  0.00    +0.000 OA
ATOM      4  H   UNL     1       2.756   6.360  17.190  0.00  0.00    +0.000 HD
ENDROOT
BRANCH   2   5
ATOM      5  C   UNL     1       2.144   7.623  19.354  0.00  0.00    +0.000 A 
ATOM      6  C   UNL     1       1.994   8.422  18.212  0.00  0.00    +0.000 A 
ATOM      7  C   UNL     1       1.290   9.630  18.272  0.00  0.00    +0.000 A 
ATOM      8  C   UNL     1       0.730  10.051  19.486  0.00  0.00    +0.000 A 
ATOM      9  C   UNL     1       0.840   9.231  20.620  0.00  0.00    +0.000 A 
ATOM     10  C   UNL     1       1.534   8.018  20.550  0.00  0.00    +0.000 A 
BRANCH   8  11
ATOM     11  N   UNL     1       0.077  11.302  19.592  0.00  0.00    +0.000 N 
ATOM     12  C   UNL     1      -0.492  11.901  20.687  0.00  0.00    +0.000 A 
ATOM     13  N   UNL     1      -1.049  13.034  20.323  0.00  0.00    +0.000 NA
ATOM     14  N   UNL     1      -0.813  13.149  18.979  0.00  0.00    +0.000 NA
ATOM     15  N   UNL     1      -0.120  12.114  18.527  0.00  0.00    +0.000 NA
ENDBRANCH   8  11
ENDBRANCH   2   5
BRANCH   1  16
ATOM     16  C   UNL     1       3.923   4.678  17.723  0.00  0.00    +0.000 C 
BRANCH  16  20
ATOM     17  C   UNL     1       6.592   3.991  13.486  0.00  0.00    +0.000 C 
ATOM     18  N   UNL     1       5.943   4.550  14.647  0.00  0.00    +0.000 N 
ATOM     19  C   UNL     1       5.208   3.880  15.584  0.00  0.00    +0.000 A 
ATOM     20  C   UNL     1       4.770   4.825  16.497  0.00  0.00    +0.000 A 
ATOM     21  C   UNL     1       5.319   6.034  16.000  0.00  0.00    +0.000 A 
ATOM     22  N   UNL     1       6.039   5.865  14.889  0.00  0.00    +0.000 NA
ENDBRANCH  16  20
BRANCH  16  23
ATOM     23  C   UNL     1       2.841   3.593  17.642  0.00  0.00    +0.000 C 
ATOM     24  C   UNL     1       1.375   4.031  17.867  0.00  0.00    +0.000 C 
ATOM     25  C   UNL     1       1.156   2.814  18.781  0.00  0.00    +0.000 C 
ATOM     26  C   UNL     1       2.672   2.548  18.774  0.00  0.00    +0.000 C 
BRANCH  25  27
ATOM     27  O   UNL     1       0.321   1.763  18.262  0.00  0.00    +0.000 OA
ATOM     28  H   UNL     1      -0.584   1.980  18.544  0.00  0.00    +0.000 HD
ENDBRANCH  25  27
ENDBRANCH  16  23
ENDBRANCH   1  16
TORSDOF 6
ENDMDL
MODEL 4
REMARK VINA RESULT:      -7.5      2.958      4.346
REMARK  Name = 
REMARK  7 active torsions:
REMARK  status: ('A' for Active; 'I' for Inactive)
REMARK    1  A    between atoms: C_1  and  N_2
REMARK    2  A    between atoms: C_4  and  C_5
REMARK    3  A    between atoms: C_5  and  N_6
REMARK    4  A    between atoms: C_5  and  C_20
REMARK    5  A    between atoms: C_7  and  C_9
REMARK    6  A    between atoms: C_12  and  N_13
REMARK    7  A    between atoms: C_22  and  O_23
REMARK                            x       y       z     vdW  Elec       q    Type
REMARK                         _______ _______ _______ _____ _____    ______ ____
ROOT
ATOM      1  N   UNL     1       2.590   6.937  18.664  0.00  0.00    +0.000 N 
ATOM      2  C   UNL     1       2.258   8.196  18.205  0.00  0.00    +0.000 C 
ATOM      3  O   UNL     1       2.549   8.604  17.088  0.00  0.00    +0.000 OA
ATOM      4  H   UNL     1       2.479   6.723  19.642  0.00  0.00    +0.000 HD
ENDROOT
BRANCH   2   5
ATOM      5  C   UNL     1       1.570   9.092  19.179  0.00  0.00    +0.000 A 
ATOM      6  C   UNL     1       1.146  10.352  18.738  0.00  0.00    +0.000 A 
ATOM      7  C   UNL     1       0.565  11.264  19.627  0.00  0.00    +0.000 A 
ATOM      8  C   UNL     1       0.406  10.917  20.976  0.00  0.00    +0.000 A 
ATOM      9  C   UNL     1       0.789   9.638  21.411  0.00  0.00    +0.000 A 
ATOM     10  C   UNL     1       1.358   8.728  20.514  0.00  0.00    +0.000 A 
BRANCH   8  11
ATOM     11  N   UNL     1      -0.111  11.845  21.911  0.00  0.00    +0.000 N 
ATOM     12  C   UNL     1      -1.112  11.689  22.835  0.00  0.00    +0.000 A 
ATOM     13  N   UNL     1      -1.316  12.830  23.453  0.00  0.00    +0.000 NA
ATOM     14  N   UNL     1      -0.417  13.710  22.912  0.00  0.00    +0.000 NA
ATOM     15  N   UNL     1       0.327  13.123  21.987  0.00  0.00    +0.000 NA
ENDBRANCH   8  11
ENDBRANCH   2   5
BRANCH   1  16
ATOM     16  C   UNL     1       3.368   6.005  17.862  0.00  0.00    +0.000 C 
BRANCH  16  20
ATOM     17  C   UNL     1       0.549   1.952  18.946  0.00  0.00    +0.000 C 
ATOM     18  N   UNL     1       1.500   2.873  18.372  0.00  0.00    +0.000 N 
ATOM     19  C   UNL     1       1.743   4.159  18.765  0.00  0.00    +0.000 A 
ATOM     20  C   UNL     1       2.717   4.658  17.916  0.00  0.00    +0.000 A 
ATOM     21  C   UNL     1       2.986   3.564  17.054  0.00  0.00    +0.000 A 
ATOM     22  N   UNL     1       2.259   2.482  17.338  0.00  0.00    +0.000 NA
ENDBRANCH  16  20
BRANCH  16  23
ATOM     23  C   UNL     1       4.804   6.058  18.404  0.00  0.00    +0.000 C 
ATOM     24  C   UNL     1       5.954   5.856  17.390  0.00  0.00    +0.000 C 
ATOM     25  C   UNL     1       6.651   4.905  18.378  0.00  0.00    +0.000 C 
ATOM     26  C   UNL     1       5.381   4.896  19.249  0.00  0.00    +0.000 C 
BRANCH  25  27
ATOM     27  O   UNL     1       7.850   5.396  19.005  0.00  0.00    +0.000 OA
ATOM     28  H   UNL     1       7.924   6.328  18.739  0.00  0.00    +0.000 HD
ENDBRANCH  25  27
ENDBRANCH  16  23
ENDBRANCH   1  16
TORSDOF 6
ENDMDL
MODEL 5
REMARK VINA RESULT:      -7.4      1.080      1.387
REMARK  Name = 
REMARK  7 active torsions:
REMARK  status: ('A' for Active; 'I' for Inactive)
REMARK    1  A    between atoms: C_1  and  N_2
REMARK    2  A    between atoms: C_4  and  C_5
REMARK    3  A    between atoms: C_5  and  N_6
REMARK    4  A    between atoms: C_5  and  C_20
REMARK    5  A    between atoms: C_7  and  C_9
REMARK    6  A    between atoms: C_12  and  N_13
REMARK    7  A    between atoms: C_22  and  O_23
REMARK                            x       y       z     vdW  Elec       q    Type
REMARK                         _______ _______ _______ _____ _____    ______ ____
ROOT
ATOM      1  N   UNL     1       4.125   6.129  18.874  0.00  0.00    +0.000 N 
ATOM      2  C   UNL     1       2.991   6.347  19.631  0.00  0.00    +0.000 C 
ATOM      3  O   UNL     1       2.563   5.542  20.448  0.00  0.00    +0.000 OA
ATOM      4  H   UNL     1       4.328   6.743  18.100  0.00  0.00    +0.000 HD
ENDROOT
BRANCH   2   5
ATOM      5  C   UNL     1       2.247   7.609  19.354  0.00  0.00    +0.000 A 
ATOM      6  C   UNL     1       1.567   8.225  20.413  0.00  0.00    +0.000 A 
ATOM      7  C   UNL     1       0.790   9.369  20.196  0.00  0.00    +0.000 A 
ATOM      8  C   UNL     1       0.685   9.906  18.906  0.00  0.00    +0.000 A 
ATOM      9  C   UNL     1       1.402   9.317  17.851  0.00  0.00    +0.000 A 
ATOM     10  C   UNL     1       2.187   8.182  18.078  0.00  0.00    +0.000 A 
BRANCH   8  11
ATOM     11  N   UNL     1      -0.151  11.017  18.644  0.00  0.00    +0.000 N 
ATOM     12  C   UNL     1      -1.472  11.048  18.273  0.00  0.00    +0.000 A 
ATOM     13  N   UNL     1      -1.836  12.294  18.069  0.00  0.00    +0.000 NA
ATOM     14  N   UNL     1      -0.727  13.053  18.330  0.00  0.00    +0.000 NA
ATOM     15  N   UNL     1       0.296  12.293  18.693  0.00  0.00    +0.000 NA
ENDBRANCH   8  11
ENDBRANCH   2   5
BRANCH   1  16
ATOM     16  C   UNL     1       4.878   4.886  18.953  0.00  0.00    +0.000 C 
BRANCH  16  20
ATOM     17  C   UNL     1       6.956   4.806  14.346  0.00  0.00    +0.000 C 
ATOM     18  N   UNL     1       6.723   4.754  15.769  0.00  0.00    +0.000 N 
ATOM     19  C   UNL     1       5.528   4.902  16.415  0.00  0.00    +0.000 A 
ATOM     20  C   UNL     1       5.792   4.797  17.770  0.00  0.00    +0.000 A 
ATOM     21  C   UNL     1       7.193   4.578  17.811  0.00  0.00    +0.000 A 
ATOM     22  N   UNL     1       7.752   4.539  16.601  0.00  0.00    +0.000 NA
ENDBRANCH  16  20
BRANCH  16  23
ATOM     23  C   UNL     1       3.844   3.757  19.065  0.00  0.00    +0.000 C 
ATOM     24  C   UNL     1       4.362   2.355  19.462  0.00  0.00    +0.000 C 
ATOM     25  C   UNL     1       3.493   1.727  18.359  0.00  0.00    +0.000 C 
ATOM     26  C   UNL     1       3.205   3.132  17.800  0.00  0.00    +0.000 C 
BRANCH  25  27
ATOM     27  O   UNL     1       2.351   0.968  18.797  0.00  0.00    +0.000 OA
ATOM     28  H   UNL     1       1.693   1.623  19.085  0.00  0.00    +0.000 HD
ENDBRANCH  25  27
ENDBRANCH  16  23
ENDBRANCH   1  16
TORSDOF 6
ENDMDL
MODEL 6
REMARK VINA RESULT:      -7.4      2.952      4.317
REMARK  Name = 
REMARK  7 active torsions:
REMARK  status: ('A' for Active; 'I' for Inactive)
REMARK    1  A    between atoms: C_1  and  N_2
REMARK    2  A    between atoms: C_4  and  C_5
REMARK    3  A    between atoms: C_5  and  N_6
REMARK    4  A    between atoms: C_5  and  C_20
REMARK    5  A    between atoms: C_7  and  C_9
REMARK    6  A    between atoms: C_12  and  N_13
REMARK    7  A    between atoms: C_22  and  O_23
REMARK                            x       y       z     vdW  Elec       q    Type
REMARK                         _______ _______ _______ _____ _____    ______ ____
ROOT
ATOM      1  N   UNL     1       2.572   6.798  18.535  0.00  0.00    +0.000 N 
ATOM      2  C   UNL     1       2.233   8.073  18.131  0.00  0.00    +0.000 C 
ATOM      3  O   UNL     1       2.525   8.531  17.034  0.00  0.00    +0.000 OA
ATOM      4  H   UNL     1       2.460   6.540  19.503  0.00  0.00    +0.000 HD
ENDROOT
BRANCH   2   5
ATOM      5  C   UNL     1       1.537   8.921  19.142  0.00  0.00    +0.000 A 
ATOM      6  C   UNL     1       1.061  10.176  18.740  0.00  0.00    +0.000 A 
ATOM      7  C   UNL     1       0.468  11.045  19.665  0.00  0.00    +0.000 A 
ATOM      8  C   UNL     1       0.351  10.661  21.007  0.00  0.00    +0.000 A 
ATOM      9  C   UNL     1       0.787   9.385  21.402  0.00  0.00    +0.000 A 
ATOM     10  C   UNL     1       1.367   8.518  20.471  0.00  0.00    +0.000 A 
BRANCH   8  11
ATOM     11  N   UNL     1      -0.177  11.548  21.975  0.00  0.00    +0.000 N 
ATOM     12  C   UNL     1      -1.187  11.350  22.883  0.00  0.00    +0.000 A 
ATOM     13  N   UNL     1      -1.398  12.465  23.547  0.00  0.00    +0.000 NA
ATOM     14  N   UNL     1      -0.497  13.368  23.052  0.00  0.00    +0.000 NA
ATOM     15  N   UNL     1       0.258  12.822  22.111  0.00  0.00    +0.000 NA
ENDBRANCH   8  11
ENDBRANCH   2   5
BRANCH   1  16
ATOM     16  C   UNL     1       3.359   5.907  17.696  0.00  0.00    +0.000 C 
BRANCH  16  20
ATOM     17  C   UNL     1       3.776   0.973  18.711  0.00  0.00    +0.000 C 
ATOM     18  N   UNL     1       3.560   2.397  18.792  0.00  0.00    +0.000 N 
ATOM     19  C   UNL     1       3.661   3.306  17.776  0.00  0.00    +0.000 A 
ATOM     20  C   UNL     1       3.387   4.548  18.324  0.00  0.00    +0.000 A 
ATOM     21  C   UNL     1       3.128   4.250  19.686  0.00  0.00    +0.000 A 
ATOM     22  N   UNL     1       3.219   2.949  19.965  0.00  0.00    +0.000 NA
ENDBRANCH  16  20
BRANCH  16  23
ATOM     23  C   UNL     1       4.731   6.573  17.520  0.00  0.00    +0.000 C 
ATOM     24  C   UNL     1       5.384   6.499  16.120  0.00  0.00    +0.000 C 
ATOM     25  C   UNL     1       6.728   6.131  16.771  0.00  0.00    +0.000 C 
ATOM     26  C   UNL     1       6.010   5.935  18.119  0.00  0.00    +0.000 C 
BRANCH  25  27
ATOM     27  O   UNL     1       7.756   7.138  16.736  0.00  0.00    +0.000 OA
ATOM     28  H   UNL     1       8.595   6.663  16.855  0.00  0.00    +0.000 HD
ENDBRANCH  25  27
ENDBRANCH  16  23
ENDBRANCH   1  16
TORSDOF 6
ENDMDL
MODEL 7
REMARK VINA RESULT:      -7.4      3.299      8.950
REMARK  Name = 
REMARK  7 active torsions:
REMARK  status: ('A' for Active; 'I' for Inactive)
REMARK    1  A    between atoms: C_1  and  N_2
REMARK    2  A    between atoms: C_4  and  C_5
REMARK    3  A    between atoms: C_5  and  N_6
REMARK    4  A    between atoms: C_5  and  C_20
REMARK    5  A    between atoms: C_7  and  C_9
REMARK    6  A    between atoms: C_12  and  N_13
REMARK    7  A    between atoms: C_22  and  O_23
REMARK                            x       y       z     vdW  Elec       q    Type
REMARK                         _______ _______ _______ _____ _____    ______ ____
ROOT
ATOM      1  N   UNL     1       0.302   9.788  19.554  0.00  0.00    +0.000 N 
ATOM      2  C   UNL     1       1.438   9.498  18.827  0.00  0.00    +0.000 C 
ATOM      3  O   UNL     1       1.962  10.290  18.053  0.00  0.00    +0.000 OA
ATOM      4  H   UNL     1      -0.179   9.045  20.036  0.00  0.00    +0.000 HD
ENDROOT
BRANCH   2   5
ATOM      5  C   UNL     1       1.979   8.116  18.973  0.00  0.00    +0.000 A 
ATOM      6  C   UNL     1       1.635   7.387  20.119  0.00  0.00    +0.000 A 
ATOM      7  C   UNL     1       2.174   6.115  20.346  0.00  0.00    +0.000 A 
ATOM      8  C   UNL     1       3.071   5.563  19.422  0.00  0.00    +0.000 A 
ATOM      9  C   UNL     1       3.382   6.273  18.251  0.00  0.00    +0.000 A 
ATOM     10  C   UNL     1       2.829   7.538  18.025  0.00  0.00    +0.000 A 
BRANCH   8  11
ATOM     11  N   UNL     1       3.687   4.312  19.662  0.00  0.00    +0.000 N 
ATOM     12  C   UNL     1       4.885   3.825  19.204  0.00  0.00    +0.000 A 
ATOM     13  N   UNL     1       5.039   2.587  19.618  0.00  0.00    +0.000 NA
ATOM     14  N   UNL     1       3.923   2.302  20.358  0.00  0.00    +0.000 NA
ATOM     15  N   UNL     1       3.103   3.342  20.404  0.00  0.00    +0.000 NA
ENDBRANCH   8  11
ENDBRANCH   2   5
BRANCH   1  16
ATOM     16  C   UNL     1      -0.401  11.055  19.414  0.00  0.00    +0.000 C 
BRANCH  16  20
ATOM     17  C   UNL     1      -1.101  14.147  23.351  0.00  0.00    +0.000 C 
ATOM     18  N   UNL     1      -0.861  13.003  22.505  0.00  0.00    +0.000 N 
ATOM     19  C   UNL     1      -0.783  12.988  21.141  0.00  0.00    +0.000 A 
ATOM     20  C   UNL     1      -0.560  11.673  20.769  0.00  0.00    +0.000 A 
ATOM     21  C   UNL     1      -0.517  10.988  22.011  0.00  0.00    +0.000 A 
ATOM     22  N   UNL     1      -0.685  11.795  23.060  0.00  0.00    +0.000 NA
ENDBRANCH  16  20
BRANCH  16  23
ATOM     23  C   UNL     1      -1.713  10.747  18.679  0.00  0.00    +0.000 C 
ATOM     24  C   UNL     1      -1.609  10.074  17.291  0.00  0.00    +0.000 C 
ATOM     25  C   UNL     1      -2.664  11.051  16.744  0.00  0.00    +0.000 C 
ATOM     26  C   UNL     1      -2.552  11.879  18.037  0.00  0.00    +0.000 C 
BRANCH  25  27
ATOM     27  O   UNL     1      -3.960  10.498  16.450  0.00  0.00    +0.000 OA
ATOM     28  H   UNL     1      -4.107   9.803  17.113  0.00  0.00    +0.000 HD
ENDBRANCH  25  27
ENDBRANCH  16  23
ENDBRANCH   1  16
TORSDOF 6
ENDMDL
MODEL 8
REMARK VINA RESULT:      -7.4      3.175      8.727
REMARK  Name = 
REMARK  7 active torsions:
REMARK  status: ('A' for Active; 'I' for Inactive)
REMARK    1  A    between atoms: C_1  and  N_2
REMARK    2  A    between atoms: C_4  and  C_5
REMARK    3  A    between atoms: C_5  and  N_6
REMARK    4  A    between atoms: C_5  and  C_20
REMARK    5  A    between atoms: C_7  and  C_9
REMARK    6  A    between atoms: C_12  and  N_13
REMARK    7  A    between atoms: C_22  and  O_23
REMARK                            x       y       z     vdW  Elec       q    Type
REMARK                         _______ _______ _______ _____ _____    ______ ____
ROOT
ATOM      1  N   UNL     1       0.680   9.792  19.042  0.00  0.00    +0.000 N 
ATOM      2  C   UNL     1       1.743   9.321  18.297  0.00  0.00    +0.000 C 
ATOM      3  O   UNL     1       2.186   9.902  17.314  0.00  0.00    +0.000 OA
ATOM      4  H   UNL     1       0.252   9.190  19.728  0.00  0.00    +0.000 HD
ENDROOT
BRANCH   2   5
ATOM      5  C   UNL     1       2.302   8.001  18.709  0.00  0.00    +0.000 A 
ATOM      6  C   UNL     1       3.169   7.342  17.827  0.00  0.00    +0.000 A 
ATOM      7  C   UNL     1       3.662   6.067  18.127  0.00  0.00    +0.000 A 
ATOM      8  C   UNL     1       3.285   5.438  19.321  0.00  0.00    +0.000 A 
ATOM      9  C   UNL     1       2.453   6.114  20.228  0.00  0.00    +0.000 A 
ATOM     10  C   UNL     1       1.974   7.393  19.926  0.00  0.00    +0.000 A 
BRANCH   8  11
ATOM     11  N   UNL     1       3.710   4.120  19.615  0.00  0.00    +0.000 N 
ATOM     12  C   UNL     1       3.000   3.069  20.139  0.00  0.00    +0.000 A 
ATOM     13  N   UNL     1       3.805   2.045  20.312  0.00  0.00    +0.000 NA
ATOM     14  N   UNL     1       5.035   2.461  19.878  0.00  0.00    +0.000 NA
ATOM     15  N   UNL     1       4.988   3.710  19.441  0.00  0.00    +0.000 NA
ENDBRANCH   8  11
ENDBRANCH   2   5
BRANCH   1  16
ATOM     16  C   UNL     1      -0.038  11.004  18.679  0.00  0.00    +0.000 C 
BRANCH  16  20
ATOM     17  C   UNL     1       1.515  15.352  20.737  0.00  0.00    +0.000 C 
ATOM     18  N   UNL     1       1.065  13.999  20.516  0.00  0.00    +0.000 N 
ATOM     19  C   UNL     1       0.812  13.400  19.315  0.00  0.00    +0.000 A 
ATOM     20  C   UNL     1       0.387  12.112  19.593  0.00  0.00    +0.000 A 
ATOM     21  C   UNL     1       0.434  12.055  21.010  0.00  0.00    +0.000 A 
ATOM     22  N   UNL     1       0.857  13.191  21.566  0.00  0.00    +0.000 NA
ENDBRANCH  16  20
BRANCH  16  23
ATOM     23  C   UNL     1      -1.532  10.656  18.727  0.00  0.00    +0.000 C 
ATOM     24  C   UNL     1      -2.183  10.132  17.425  0.00  0.00    +0.000 C 
ATOM     25  C   UNL     1      -3.386  11.062  17.658  0.00  0.00    +0.000 C 
ATOM     26  C   UNL     1      -2.610  11.768  18.785  0.00  0.00    +0.000 C 
BRANCH  25  27
ATOM     27  O   UNL     1      -4.623  10.429  18.034  0.00  0.00    +0.000 OA
ATOM     28  H   UNL     1      -4.962  10.940  18.788  0.00  0.00    +0.000 HD
ENDBRANCH  25  27
ENDBRANCH  16  23
ENDBRANCH   1  16
TORSDOF 6
ENDMDL
MODEL 9
REMARK VINA RESULT:      -7.4      1.023      1.335
REMARK  Name = 
REMARK  7 active torsions:
REMARK  status: ('A' for Active; 'I' for Inactive)
REMARK    1  A    between atoms: C_1  and  N_2
REMARK    2  A    between atoms: C_4  and  C_5
REMARK    3  A    between atoms: C_5  and  N_6
REMARK    4  A    between atoms: C_5  and  C_20
REMARK    5  A    between atoms: C_7  and  C_9
REMARK    6  A    between atoms: C_12  and  N_13
REMARK    7  A    between atoms: C_22  and  O_23
REMARK                            x       y       z     vdW  Elec       q    Type
REMARK                         _______ _______ _______ _____ _____    ______ ____
ROOT
ATOM      1  N   UNL     1       3.943   5.666  17.491  0.00  0.00    +0.000 N 
ATOM      2  C   UNL     1       3.688   6.198  18.739  0.00  0.00    +0.000 C 
ATOM      3  O   UNL     1       4.099   5.700  19.779  0.00  0.00    +0.000 OA
ATOM      4  H   UNL     1       3.438   6.016  16.692  0.00  0.00    +0.000 HD
ENDROOT
BRANCH   2   5
ATOM      5  C   UNL     1       2.805   7.399  18.775  0.00  0.00    +0.000 A 
ATOM      6  C   UNL     1       2.080   7.656  19.947  0.00  0.00    +0.000 A 
ATOM      7  C   UNL     1       1.179   8.725  20.010  0.00  0.00    +0.000 A 
ATOM      8  C   UNL     1       0.994   9.549  18.891  0.00  0.00    +0.000 A 
ATOM      9  C   UNL     1       1.753   9.321  17.732  0.00  0.00    +0.000 A 
ATOM     10  C   UNL     1       2.661   8.258  17.680  0.00  0.00    +0.000 A 
BRANCH   8  11
ATOM     11  N   UNL     1       0.037  10.591  18.904  0.00  0.00    +0.000 N 
ATOM     12  C   UNL     1      -1.328  10.526  18.772  0.00  0.00    +0.000 A 
ATOM     13  N   UNL     1      -1.823  11.743  18.775  0.00  0.00    +0.000 NA
ATOM     14  N   UNL     1      -0.750  12.580  18.922  0.00  0.00    +0.000 NA
ATOM     15  N   UNL     1       0.380  11.895  19.015  0.00  0.00    +0.000 NA
ENDBRANCH   8  11
ENDBRANCH   2   5
BRANCH   1  16
ATOM     16  C   UNL     1       4.687   4.428  17.318  0.00  0.00    +0.000 C 
BRANCH  16  20
ATOM     17  C   UNL     1       7.846   5.358  13.484  0.00  0.00    +0.000 C 
ATOM     18  N   UNL     1       6.776   4.867  14.318  0.00  0.00    +0.000 N 
ATOM     19  C   UNL     1       6.520   5.207  15.616  0.00  0.00    +0.000 A 
ATOM     20  C   UNL     1       5.411   4.475  16.009  0.00  0.00    +0.000 A 
ATOM     21  C   UNL     1       5.086   3.732  14.845  0.00  0.00    +0.000 A 
ATOM     22  N   UNL     1       5.903   3.979  13.820  0.00  0.00    +0.000 NA
ENDBRANCH  16  20
BRANCH  16  23
ATOM     23  C   UNL     1       3.670   3.286  17.459  0.00  0.00    +0.000 C 
ATOM     24  C   UNL     1       2.174   3.671  17.536  0.00  0.00    +0.000 C 
ATOM     25  C   UNL     1       1.984   2.684  18.700  0.00  0.00    +0.000 C 
ATOM     26  C   UNL     1       3.512   2.519  18.796  0.00  0.00    +0.000 C 
BRANCH  25  27
ATOM     27  O   UNL     1       1.231   1.491  18.414  0.00  0.00    +0.000 OA
ATOM     28  H   UNL     1       0.801   1.243  19.250  0.00  0.00    +0.000 HD
ENDBRANCH  25  27
ENDBRANCH  16  23
ENDBRANCH   1  16
TORSDOF 6
ENDMDL
