MODEL 1
REMARK VINA RESULT:      -7.0      0.000      0.000
REMARK  Name = 
REMARK  19 active torsions:
REMARK  status: ('A' for Active; 'I' for Inactive)
REMARK    1  A    between atoms: C_1  and  C_2
REMARK    2  A    between atoms: C_2  and  C_3
REMARK    3  A    between atoms: C_3  and  C_4
REMARK    4  A    between atoms: C_4  and  C_5
REMARK    5  A    between atoms: C_5  and  C_6
REMARK    6  A    between atoms: C_5  and  C_7
REMARK    7  A    between atoms: C_5  and  C_8
REMARK    8  A    between atoms: C_8  and  O_9
REMARK    9  A    between atoms: C_8  and  C_10
REMARK   10  A    between atoms: C_11  and  C_12
REMARK   11  A    between atoms: C_17  and  C_18
REMARK   12  A    between atoms: C_18  and  C_19
REMARK   13  A    between atoms: C_19  and  C_20
REMARK   14  A    between atoms: C_20  and  C_21
REMARK   15  A    between atoms: C_21  and  C_22
REMARK   16  A    between atoms: C_22  and  C_23
REMARK   17  A    between atoms: C_23  and  C_24
REMARK   18  A    between atoms: C_23  and  C_25
REMARK   19  A    between atoms: C_25  and  O_27
REMARK                            x       y       z     vdW  Elec       q    Type
REMARK                         _______ _______ _______ _____ _____    ______ ____
ROOT
ATOM      1  C   UNL     1       5.263   6.259  17.592  0.00  0.00    +0.000 C 
ATOM      2  C   UNL     1       4.447   5.722  16.416  0.00  0.00    +0.000 C 
ATOM      3  C   UNL     1       5.390   4.807  15.665  0.00  0.00    +0.000 C 
ATOM      4  C   UNL     1       6.732   5.405  15.958  0.00  0.00    +0.000 C 
ATOM      5  O   UNL     1       7.743   5.069  15.347  0.00  0.00    +0.000 OA
ATOM      6  C   UNL     1       6.696   6.467  17.044  0.00  0.00    +0.000 C 
ENDROOT
BRANCH   1   8
ATOM      7  C   UNL     1       4.513   4.188  18.723  0.00  0.00    +0.000 C 
ATOM      8  C   UNL     1       5.193   5.339  18.778  0.00  0.00    +0.000 C 
BRANCH   7   9
ATOM      9  C   UNL     1       4.116   3.320  19.883  0.00  0.00    +0.000 C 
BRANCH   9  10
ATOM     10  C   UNL     1       2.582   3.117  20.051  0.00  0.00    +0.000 C 
ATOM     11  C   UNL     1       2.297   2.907  21.555  0.00  0.00    +0.000 C 
ATOM     12  C   UNL     1       2.107   1.868  19.277  0.00  0.00    +0.000 C 
BRANCH  10  13
ATOM     13  C   UNL     1       1.842   4.390  19.539  0.00  0.00    +0.000 C 
BRANCH  13  14
ATOM     14  C   UNL     1       1.524   5.409  20.627  0.00  0.00    +0.000 C 
BRANCH  14  16
ATOM     15  C   UNL     1       2.002   7.107  18.891  0.00  0.00    +0.000 C 
ATOM     16  C   UNL     1       2.173   6.761  20.361  0.00  0.00    +0.000 C 
ENDBRANCH  14  16
ENDBRANCH  13  14
ENDBRANCH  10  13
ENDBRANCH   9  10
BRANCH   9  17
ATOM     17  O   UNL     1       4.803   2.070  19.820  0.00  0.00    +0.000 OA
ATOM     18  H   UNL     1       5.609   2.145  20.353  0.00  0.00    +0.000 HD
ENDBRANCH   9  17
ENDBRANCH   7   9
ENDBRANCH   1   8
BRANCH   6  19
ATOM     19  C   UNL     1       7.827   6.375  18.084  0.00  0.00    +0.000 C 
BRANCH  19  20
ATOM     20  C   UNL     1       8.385   7.702  18.600  0.00  0.00    +0.000 C 
BRANCH  20  21
ATOM     21  C   UNL     1       7.798   8.928  17.908  0.00  0.00    +0.000 C 
BRANCH  21  22
ATOM     22  C   UNL     1       8.855  10.027  17.800  0.00  0.00    +0.000 C 
BRANCH  22  23
ATOM     23  C   UNL     1       9.324  10.493  19.177  0.00  0.00    +0.000 C 
BRANCH  23  24
ATOM     24  C   UNL     1      10.174  11.774  19.127  0.00  0.00    +0.000 C 
ATOM     25  C   UNL     1      11.509  11.582  18.409  0.00  0.00    +0.000 C 
BRANCH  24  26
ATOM     26  C   UNL     1       9.391  12.877  18.422  0.00  0.00    +0.000 C 
ATOM     27  O   UNL     1       8.407  13.437  18.865  0.00  0.00    +0.000 OA
BRANCH  26  28
ATOM     28  O   UNL     1       9.898  13.176  17.198  0.00  0.00    +0.000 OA
ATOM     29  H   UNL     1       9.758  14.099  16.920  0.00  0.00    +0.000 HD
ENDBRANCH  26  28
ENDBRANCH  24  26
ENDBRANCH  23  24
ENDBRANCH  22  23
ENDBRANCH  21  22
ENDBRANCH  20  21
ENDBRANCH  19  20
ENDBRANCH   6  19
TORSDOF 15
ENDMDL
MODEL 2
REMARK VINA RESULT:      -6.8      1.814      2.784
REMARK  Name = 
REMARK  19 active torsions:
REMARK  status: ('A' for Active; 'I' for Inactive)
REMARK    1  A    between atoms: C_1  and  C_2
REMARK    2  A    between atoms: C_2  and  C_3
REMARK    3  A    between atoms: C_3  and  C_4
REMARK    4  A    between atoms: C_4  and  C_5
REMARK    5  A    between atoms: C_5  and  C_6
REMARK    6  A    between atoms: C_5  and  C_7
REMARK    7  A    between atoms: C_5  and  C_8
REMARK    8  A    between atoms: C_8  and  O_9
REMARK    9  A    between atoms: C_8  and  C_10
REMARK   10  A    between atoms: C_11  and  C_12
REMARK   11  A    between atoms: C_17  and  C_18
REMARK   12  A    between atoms: C_18  and  C_19
REMARK   13  A    between atoms: C_19  and  C_20
REMARK   14  A    between atoms: C_20  and  C_21
REMARK   15  A    between atoms: C_21  and  C_22
REMARK   16  A    between atoms: C_22  and  C_23
REMARK   17  A    between atoms: C_23  and  C_24
REMARK   18  A    between atoms: C_23  and  C_25
REMARK   19  A    between atoms: C_25  and  O_27
REMARK                            x       y       z     vdW  Elec       q    Type
REMARK                         _______ _______ _______ _____ _____    ______ ____
ROOT
ATOM      1  C   UNL     1       5.765   6.390  16.143  0.00  0.00    +0.000 C 
ATOM      2  C   UNL     1       5.449   5.058  15.462  0.00  0.00    +0.000 C 
ATOM      3  C   UNL     1       6.131   4.007  16.310  0.00  0.00    +0.000 C 
ATOM      4  C   UNL     1       7.289   4.756  16.895  0.00  0.00    +0.000 C 
ATOM      5  O   UNL     1       8.209   4.185  17.476  0.00  0.00    +0.000 OA
ATOM      6  C   UNL     1       7.216   6.256  16.666  0.00  0.00    +0.000 C 
ENDROOT
BRANCH   1   8
ATOM      7  C   UNL     1       3.739   5.889  17.477  0.00  0.00    +0.000 C 
ATOM      8  C   UNL     1       4.761   6.713  17.214  0.00  0.00    +0.000 C 
BRANCH   7   9
ATOM      9  C   UNL     1       2.518   6.201  18.295  0.00  0.00    +0.000 C 
BRANCH   9  10
ATOM     10  C   UNL     1       2.300   5.268  19.521  0.00  0.00    +0.000 C 
ATOM     11  C   UNL     1       1.560   6.082  20.607  0.00  0.00    +0.000 C 
ATOM     12  C   UNL     1       3.652   4.791  20.095  0.00  0.00    +0.000 C 
BRANCH  10  13
ATOM     13  C   UNL     1       1.432   4.049  19.084  0.00  0.00    +0.000 C 
BRANCH  13  14
ATOM     14  C   UNL     1       1.789   2.743  19.785  0.00  0.00    +0.000 C 
BRANCH  14  16
ATOM     15  C   UNL     1       2.533   2.298  17.467  0.00  0.00    +0.000 C 
ATOM     16  C   UNL     1       2.632   1.827  18.908  0.00  0.00    +0.000 C 
ENDBRANCH  14  16
ENDBRANCH  13  14
ENDBRANCH  10  13
ENDBRANCH   9  10
BRANCH   9  17
ATOM     17  O   UNL     1       2.523   7.575  18.682  0.00  0.00    +0.000 OA
ATOM     18  H   UNL     1       3.119   8.052  18.084  0.00  0.00    +0.000 HD
ENDBRANCH   9  17
ENDBRANCH   7   9
ENDBRANCH   1   8
BRANCH   6  19
ATOM     19  C   UNL     1       7.566   7.121  17.891  0.00  0.00    +0.000 C 
BRANCH  19  20
ATOM     20  C   UNL     1       7.798   8.609  17.627  0.00  0.00    +0.000 C 
BRANCH  20  21
ATOM     21  C   UNL     1       8.641   9.299  18.694  0.00  0.00    +0.000 C 
BRANCH  21  22
ATOM     22  C   UNL     1       9.624  10.271  18.041  0.00  0.00    +0.000 C 
BRANCH  22  23
ATOM     23  C   UNL     1       9.173  11.722  18.206  0.00  0.00    +0.000 C 
BRANCH  23  24
ATOM     24  C   UNL     1      10.279  12.642  18.751  0.00  0.00    +0.000 C 
ATOM     25  C   UNL     1      10.093  12.997  20.225  0.00  0.00    +0.000 C 
BRANCH  24  26
ATOM     26  C   UNL     1      11.635  11.967  18.574  0.00  0.00    +0.000 C 
ATOM     27  O   UNL     1      12.302  11.482  19.467  0.00  0.00    +0.000 OA
BRANCH  26  28
ATOM     28  O   UNL     1      12.057  11.975  17.283  0.00  0.00    +0.000 OA
ATOM     29  H   UNL     1      12.935  11.576  17.146  0.00  0.00    +0.000 HD
ENDBRANCH  26  28
ENDBRANCH  24  26
ENDBRANCH  23  24
ENDBRANCH  22  23
ENDBRANCH  21  22
ENDBRANCH  20  21
ENDBRANCH  19  20
ENDBRANCH   6  19
TORSDOF 15
ENDMDL
MODEL 3
REMARK VINA RESULT:      -6.7      1.173      1.366
REMARK  Name = 
REMARK  19 active torsions:
REMARK  status: ('A' for Active; 'I' for Inactive)
REMARK    1  A    between atoms: C_1  and  C_2
REMARK    2  A    between atoms: C_2  and  C_3
REMARK    3  A    between atoms: C_3  and  C_4
REMARK    4  A    between atoms: C_4  and  C_5
REMARK    5  A    between atoms: C_5  and  C_6
REMARK    6  A    between atoms: C_5  and  C_7
REMARK    7  A    between atoms: C_5  and  C_8
REMARK    8  A    between atoms: C_8  and  O_9
REMARK    9  A    between atoms: C_8  and  C_10
REMARK   10  A    between atoms: C_11  and  C_12
REMARK   11  A    between atoms: C_17  and  C_18
REMARK   12  A    between atoms: C_18  and  C_19
REMARK   13  A    between atoms: C_19  and  C_20
REMARK   14  A    between atoms: C_20  and  C_21
REMARK   15  A    between atoms: C_21  and  C_22
REMARK   16  A    between atoms: C_22  and  C_23
REMARK   17  A    between atoms: C_23  and  C_24
REMARK   18  A    between atoms: C_23  and  C_25
REMARK   19  A    between atoms: C_25  and  O_27
REMARK                            x       y       z     vdW  Elec       q    Type
REMARK                         _______ _______ _______ _____ _____    ______ ____
ROOT
ATOM      1  C   UNL     1       4.780   5.652  17.022  0.00  0.00    +0.000 C 
ATOM      2  C   UNL     1       4.468   4.568  15.989  0.00  0.00    +0.000 C 
ATOM      3  C   UNL     1       5.761   3.804  15.813  0.00  0.00    +0.000 C 
ATOM      4  C   UNL     1       6.800   4.840  16.118  0.00  0.00    +0.000 C 
ATOM      5  O   UNL     1       7.991   4.661  15.873  0.00  0.00    +0.000 OA
ATOM      6  C   UNL     1       6.227   6.113  16.716  0.00  0.00    +0.000 C 
ENDROOT
BRANCH   1   8
ATOM      7  C   UNL     1       4.169   3.901  18.662  0.00  0.00    +0.000 C 
ATOM      8  C   UNL     1       4.585   5.150  18.424  0.00  0.00    +0.000 C 
BRANCH   7   9
ATOM      9  C   UNL     1       3.661   3.353  19.965  0.00  0.00    +0.000 C 
BRANCH   9  10
ATOM     10  C   UNL     1       2.185   3.721  20.296  0.00  0.00    +0.000 C 
ATOM     11  C   UNL     1       1.613   2.604  21.199  0.00  0.00    +0.000 C 
ATOM     12  C   UNL     1       1.338   3.798  19.007  0.00  0.00    +0.000 C 
BRANCH  10  13
ATOM     13  C   UNL     1       2.158   5.085  21.050  0.00  0.00    +0.000 C 
BRANCH  13  14
ATOM     14  C   UNL     1       1.309   6.155  20.375  0.00  0.00    +0.000 C 
BRANCH  14  16
ATOM     15  C   UNL     1       2.201   7.619  18.590  0.00  0.00    +0.000 C 
ATOM     16  C   UNL     1       2.097   7.428  20.094  0.00  0.00    +0.000 C 
ENDBRANCH  14  16
ENDBRANCH  13  14
ENDBRANCH  10  13
ENDBRANCH   9  10
BRANCH   9  17
ATOM     17  O   UNL     1       3.871   1.942  20.022  0.00  0.00    +0.000 OA
ATOM     18  H   UNL     1       3.180   1.560  20.584  0.00  0.00    +0.000 HD
ENDBRANCH   9  17
ENDBRANCH   7   9
ENDBRANCH   1   8
BRANCH   6  19
ATOM     19  C   UNL     1       7.011   6.682  17.912  0.00  0.00    +0.000 C 
BRANCH  19  20
ATOM     20  C   UNL     1       8.126   7.675  17.582  0.00  0.00    +0.000 C 
BRANCH  20  21
ATOM     21  C   UNL     1       7.768   9.126  17.887  0.00  0.00    +0.000 C 
BRANCH  21  22
ATOM     22  C   UNL     1       8.915   9.804  18.638  0.00  0.00    +0.000 C 
BRANCH  22  23
ATOM     23  C   UNL     1       9.307  11.129  17.987  0.00  0.00    +0.000 C 
BRANCH  23  24
ATOM     24  C   UNL     1      10.063  12.071  18.940  0.00  0.00    +0.000 C 
ATOM     25  C   UNL     1      10.350  11.443  20.303  0.00  0.00    +0.000 C 
BRANCH  24  26
ATOM     26  C   UNL     1      11.383  12.490  18.301  0.00  0.00    +0.000 C 
ATOM     27  O   UNL     1      11.851  13.611  18.321  0.00  0.00    +0.000 OA
BRANCH  26  28
ATOM     28  O   UNL     1      12.004  11.462  17.667  0.00  0.00    +0.000 OA
ATOM     29  H   UNL     1      11.868  11.445  16.702  0.00  0.00    +0.000 HD
ENDBRANCH  26  28
ENDBRANCH  24  26
ENDBRANCH  23  24
ENDBRANCH  22  23
ENDBRANCH  21  22
ENDBRANCH  20  21
ENDBRANCH  19  20
ENDBRANCH   6  19
TORSDOF 15
ENDMDL
MODEL 4
REMARK VINA RESULT:      -6.7      1.385      2.325
REMARK  Name = 
REMARK  19 active torsions:
REMARK  status: ('A' for Active; 'I' for Inactive)
REMARK    1  A    between atoms: C_1  and  C_2
REMARK    2  A    between atoms: C_2  and  C_3
REMARK    3  A    between atoms: C_3  and  C_4
REMARK    4  A    between atoms: C_4  and  C_5
REMARK    5  A    between atoms: C_5  and  C_6
REMARK    6  A    between atoms: C_5  and  C_7
REMARK    7  A    between atoms: C_5  and  C_8
REMARK    8  A    between atoms: C_8  and  O_9
REMARK    9  A    between atoms: C_8  and  C_10
REMARK   10  A    between atoms: C_11  and  C_12
REMARK   11  A    between atoms: C_17  and  C_18
REMARK   12  A    between atoms: C_18  and  C_19
REMARK   13  A    between atoms: C_19  and  C_20
REMARK   14  A    between atoms: C_20  and  C_21
REMARK   15  A    between atoms: C_21  and  C_22
REMARK   16  A    between atoms: C_22  and  C_23
REMARK   17  A    between atoms: C_23  and  C_24
REMARK   18  A    between atoms: C_23  and  C_25
REMARK   19  A    between atoms: C_25  and  O_27
REMARK                            x       y       z     vdW  Elec       q    Type
REMARK                         _______ _______ _______ _____ _____    ______ ____
ROOT
ATOM      1  C   UNL     1       5.264   6.175  16.730  0.00  0.00    +0.000 C 
ATOM      2  C   UNL     1       4.635   5.775  15.395  0.00  0.00    +0.000 C 
ATOM      3  C   UNL     1       5.559   4.724  14.821  0.00  0.00    +0.000 C 
ATOM      4  C   UNL     1       6.888   5.101  15.401  0.00  0.00    +0.000 C 
ATOM      5  O   UNL     1       7.939   4.609  14.997  0.00  0.00    +0.000 OA
ATOM      6  C   UNL     1       6.794   6.154  16.492  0.00  0.00    +0.000 C 
ENDROOT
BRANCH   1   8
ATOM      7  C   UNL     1       3.843   5.654  18.690  0.00  0.00    +0.000 C 
ATOM      8  C   UNL     1       4.809   5.276  17.845  0.00  0.00    +0.000 C 
BRANCH   7   9
ATOM      9  C   UNL     1       3.487   5.007  19.998  0.00  0.00    +0.000 C 
BRANCH   9  10
ATOM     10  C   UNL     1       1.978   4.666  20.167  0.00  0.00    +0.000 C 
ATOM     11  C   UNL     1       1.258   5.943  20.657  0.00  0.00    +0.000 C 
ATOM     12  C   UNL     1       1.782   3.552  21.219  0.00  0.00    +0.000 C 
BRANCH  10  13
ATOM     13  C   UNL     1       1.399   4.222  18.789  0.00  0.00    +0.000 C 
BRANCH  13  14
ATOM     14  C   UNL     1       1.436   2.718  18.550  0.00  0.00    +0.000 C 
BRANCH  14  16
ATOM     15  C   UNL     1       3.564   1.524  18.137  0.00  0.00    +0.000 C 
ATOM     16  C   UNL     1       2.450   2.325  17.484  0.00  0.00    +0.000 C 
ENDBRANCH  14  16
ENDBRANCH  13  14
ENDBRANCH  10  13
ENDBRANCH   9  10
BRANCH   9  17
ATOM     17  O   UNL     1       4.307   3.861  20.220  0.00  0.00    +0.000 OA
ATOM     18  H   UNL     1       3.823   3.081  19.907  0.00  0.00    +0.000 HD
ENDBRANCH   9  17
ENDBRANCH   7   9
ENDBRANCH   1   8
BRANCH   6  19
ATOM     19  C   UNL     1       7.658   5.882  17.736  0.00  0.00    +0.000 C 
BRANCH  19  20
ATOM     20  C   UNL     1       7.911   7.074  18.660  0.00  0.00    +0.000 C 
BRANCH  20  21
ATOM     21  C   UNL     1       8.147   8.387  17.922  0.00  0.00    +0.000 C 
BRANCH  21  22
ATOM     22  C   UNL     1       8.904   9.367  18.819  0.00  0.00    +0.000 C 
BRANCH  22  23
ATOM     23  C   UNL     1       9.052  10.736  18.157  0.00  0.00    +0.000 C 
BRANCH  23  24
ATOM     24  C   UNL     1       9.805  11.753  19.031  0.00  0.00    +0.000 C 
ATOM     25  C   UNL     1       9.834  11.370  20.510  0.00  0.00    +0.000 C 
BRANCH  24  26
ATOM     26  C   UNL     1      11.239  11.892  18.530  0.00  0.00    +0.000 C 
ATOM     27  O   UNL     1      12.164  12.362  19.163  0.00  0.00    +0.000 OA
BRANCH  26  28
ATOM     28  O   UNL     1      11.392  11.445  17.257  0.00  0.00    +0.000 OA
ATOM     29  H   UNL     1      11.133  12.087  16.572  0.00  0.00    +0.000 HD
ENDBRANCH  26  28
ENDBRANCH  24  26
ENDBRANCH  23  24
ENDBRANCH  22  23
ENDBRANCH  21  22
ENDBRANCH  20  21
ENDBRANCH  19  20
ENDBRANCH   6  19
TORSDOF 15
ENDMDL
MODEL 5
REMARK VINA RESULT:      -6.7      3.823      5.827
REMARK  Name = 
REMARK  19 active torsions:
REMARK  status: ('A' for Active; 'I' for Inactive)
REMARK    1  A    between atoms: C_1  and  C_2
REMARK    2  A    between atoms: C_2  and  C_3
REMARK    3  A    between atoms: C_3  and  C_4
REMARK    4  A    between atoms: C_4  and  C_5
REMARK    5  A    between atoms: C_5  and  C_6
REMARK    6  A    between atoms: C_5  and  C_7
REMARK    7  A    between atoms: C_5  and  C_8
REMARK    8  A    between atoms: C_8  and  O_9
REMARK    9  A    between atoms: C_8  and  C_10
REMARK   10  A    between atoms: C_11  and  C_12
REMARK   11  A    between atoms: C_17  and  C_18
REMARK   12  A    between atoms: C_18  and  C_19
REMARK   13  A    between atoms: C_19  and  C_20
REMARK   14  A    between atoms: C_20  and  C_21
REMARK   15  A    between atoms: C_21  and  C_22
REMARK   16  A    between atoms: C_22  and  C_23
REMARK   17  A    between atoms: C_23  and  C_24
REMARK   18  A    between atoms: C_23  and  C_25
REMARK   19  A    between atoms: C_25  and  O_27
REMARK                            x       y       z     vdW  Elec       q    Type
REMARK                         _______ _______ _______ _____ _____    ______ ____
ROOT
ATOM      1  C   UNL     1       4.774   4.369  15.904  0.00  0.00    +0.000 C 
ATOM      2  C   UNL     1       6.012   3.956  15.106  0.00  0.00    +0.000 C 
ATOM      3  C   UNL     1       7.157   4.725  15.725  0.00  0.00    +0.000 C 
ATOM      4  C   UNL     1       6.482   5.956  16.250  0.00  0.00    +0.000 C 
ATOM      5  O   UNL     1       7.118   6.934  16.636  0.00  0.00    +0.000 OA
ATOM      6  C   UNL     1       4.966   5.873  16.221  0.00  0.00    +0.000 C 
ENDROOT
BRANCH   1   8
ATOM      7  C   UNL     1       3.377   3.101  17.508  0.00  0.00    +0.000 C 
ATOM      8  C   UNL     1       4.592   3.509  17.123  0.00  0.00    +0.000 C 
BRANCH   7   9
ATOM      9  C   UNL     1       3.008   2.495  18.832  0.00  0.00    +0.000 C 
BRANCH   9  10
ATOM     10  C   UNL     1       1.680   3.026  19.444  0.00  0.00    +0.000 C 
ATOM     11  C   UNL     1       1.642   2.600  20.930  0.00  0.00    +0.000 C 
ATOM     12  C   UNL     1       0.459   2.415  18.722  0.00  0.00    +0.000 C 
BRANCH  10  13
ATOM     13  C   UNL     1       1.655   4.581  19.334  0.00  0.00    +0.000 C 
BRANCH  13  14
ATOM     14  C   UNL     1       1.403   5.298  20.655  0.00  0.00    +0.000 C 
BRANCH  14  16
ATOM     15  C   UNL     1       1.095   7.687  21.225  0.00  0.00    +0.000 C 
ATOM     16  C   UNL     1       2.089   6.656  20.717  0.00  0.00    +0.000 C 
ENDBRANCH  14  16
ENDBRANCH  13  14
ENDBRANCH  10  13
ENDBRANCH   9  10
BRANCH   9  17
ATOM     17  O   UNL     1       3.004   1.071  18.738  0.00  0.00    +0.000 OA
ATOM     18  H   UNL     1       3.406   0.827  17.890  0.00  0.00    +0.000 HD
ENDBRANCH   9  17
ENDBRANCH   7   9
ENDBRANCH   1   8
BRANCH   6  19
ATOM     19  C   UNL     1       4.260   6.381  17.490  0.00  0.00    +0.000 C 
BRANCH  19  20
ATOM     20  C   UNL     1       3.721   7.811  17.441  0.00  0.00    +0.000 C 
BRANCH  20  21
ATOM     21  C   UNL     1       2.214   7.909  17.649  0.00  0.00    +0.000 C 
BRANCH  21  22
ATOM     22  C   UNL     1       1.841   9.308  18.144  0.00  0.00    +0.000 C 
BRANCH  22  23
ATOM     23  C   UNL     1       0.454   9.724  17.657  0.00  0.00    +0.000 C 
BRANCH  23  24
ATOM     24  C   UNL     1      -0.466  10.206  18.791  0.00  0.00    +0.000 C 
ATOM     25  C   UNL     1       0.157  11.312  19.641  0.00  0.00    +0.000 C 
BRANCH  24  26
ATOM     26  C   UNL     1      -1.776  10.718  18.201  0.00  0.00    +0.000 C 
ATOM     27  O   UNL     1      -2.022  11.877  17.932  0.00  0.00    +0.000 OA
BRANCH  26  28
ATOM     28  O   UNL     1      -2.686   9.727  18.016  0.00  0.00    +0.000 OA
ATOM     29  H   UNL     1      -3.373   9.679  18.705  0.00  0.00    +0.000 HD
ENDBRANCH  26  28
ENDBRANCH  24  26
ENDBRANCH  23  24
ENDBRANCH  22  23
ENDBRANCH  21  22
ENDBRANCH  20  21
ENDBRANCH  19  20
ENDBRANCH   6  19
TORSDOF 15
ENDMDL
MODEL 6
REMARK VINA RESULT:      -6.6      1.602      2.626
REMARK  Name = 
REMARK  19 active torsions:
REMARK  status: ('A' for Active; 'I' for Inactive)
REMARK    1  A    between atoms: C_1  and  C_2
REMARK    2  A    between atoms: C_2  and  C_3
REMARK    3  A    between atoms: C_3  and  C_4
REMARK    4  A    between atoms: C_4  and  C_5
REMARK    5  A    between atoms: C_5  and  C_6
REMARK    6  A    between atoms: C_5  and  C_7
REMARK    7  A    between atoms: C_5  and  C_8
REMARK    8  A    between atoms: C_8  and  O_9
REMARK    9  A    between atoms: C_8  and  C_10
REMARK   10  A    between atoms: C_11  and  C_12
REMARK   11  A    between atoms: C_17  and  C_18
REMARK   12  A    between atoms: C_18  and  C_19
REMARK   13  A    between atoms: C_19  and  C_20
REMARK   14  A    between atoms: C_20  and  C_21
REMARK   15  A    between atoms: C_21  and  C_22
REMARK   16  A    between atoms: C_22  and  C_23
REMARK   17  A    between atoms: C_23  and  C_24
REMARK   18  A    between atoms: C_23  and  C_25
REMARK   19  A    between atoms: C_25  and  O_27
REMARK                            x       y       z     vdW  Elec       q    Type
REMARK                         _______ _______ _______ _____ _____    ______ ____
ROOT
ATOM      1  C   UNL     1       5.123   6.219  16.517  0.00  0.00    +0.000 C 
ATOM      2  C   UNL     1       4.802   4.939  15.743  0.00  0.00    +0.000 C 
ATOM      3  C   UNL     1       5.778   3.907  16.262  0.00  0.00    +0.000 C 
ATOM      4  C   UNL     1       6.954   4.741  16.670  0.00  0.00    +0.000 C 
ATOM      5  O   UNL     1       8.043   4.244  16.944  0.00  0.00    +0.000 OA
ATOM      6  C   UNL     1       6.664   6.232  16.676  0.00  0.00    +0.000 C 
ENDROOT
BRANCH   1   8
ATOM      7  C   UNL     1       3.313   5.497  18.045  0.00  0.00    +0.000 C 
ATOM      8  C   UNL     1       4.377   6.278  17.819  0.00  0.00    +0.000 C 
BRANCH   7   9
ATOM      9  C   UNL     1       2.310   5.640  19.154  0.00  0.00    +0.000 C 
BRANCH   9  10
ATOM     10  C   UNL     1       2.031   4.334  19.952  0.00  0.00    +0.000 C 
ATOM     11  C   UNL     1       0.506   4.080  19.922  0.00  0.00    +0.000 C 
ATOM     12  C   UNL     1       2.479   4.483  21.422  0.00  0.00    +0.000 C 
BRANCH  10  13
ATOM     13  C   UNL     1       2.783   3.150  19.271  0.00  0.00    +0.000 C 
BRANCH  13  14
ATOM     14  C   UNL     1       3.953   2.605  20.079  0.00  0.00    +0.000 C 
BRANCH  14  16
ATOM     15  C   UNL     1       3.876   1.086  18.127  0.00  0.00    +0.000 C 
ATOM     16  C   UNL     1       4.670   1.466  19.365  0.00  0.00    +0.000 C 
ENDBRANCH  14  16
ENDBRANCH  13  14
ENDBRANCH  10  13
ENDBRANCH   9  10
BRANCH   9  17
ATOM     17  O   UNL     1       2.684   6.710  20.021  0.00  0.00    +0.000 OA
ATOM     18  H   UNL     1       1.886   7.222  20.224  0.00  0.00    +0.000 HD
ENDBRANCH   9  17
ENDBRANCH   7   9
ENDBRANCH   1   8
BRANCH   6  19
ATOM     19  C   UNL     1       7.200   6.996  17.900  0.00  0.00    +0.000 C 
BRANCH  19  20
ATOM     20  C   UNL     1       7.835   8.360  17.625  0.00  0.00    +0.000 C 
BRANCH  20  21
ATOM     21  C   UNL     1       8.845   8.794  18.681  0.00  0.00    +0.000 C 
BRANCH  21  22
ATOM     22  C   UNL     1       8.925  10.320  18.737  0.00  0.00    +0.000 C 
BRANCH  22  23
ATOM     23  C   UNL     1       9.912  10.792  19.803  0.00  0.00    +0.000 C 
BRANCH  23  24
ATOM     24  C   UNL     1      10.671  12.069  19.404  0.00  0.00    +0.000 C 
ATOM     25  C   UNL     1      12.097  12.116  19.951  0.00  0.00    +0.000 C 
BRANCH  24  26
ATOM     26  C   UNL     1      10.722  12.176  17.884  0.00  0.00    +0.000 C 
ATOM     27  O   UNL     1       9.934  12.792  17.194  0.00  0.00    +0.000 OA
BRANCH  26  28
ATOM     28  O   UNL     1      11.757  11.479  17.347  0.00  0.00    +0.000 OA
ATOM     29  H   UNL     1      12.405  12.028  16.870  0.00  0.00    +0.000 HD
ENDBRANCH  26  28
ENDBRANCH  24  26
ENDBRANCH  23  24
ENDBRANCH  22  23
ENDBRANCH  21  22
ENDBRANCH  20  21
ENDBRANCH  19  20
ENDBRANCH   6  19
TORSDOF 15
ENDMDL
MODEL 7
REMARK VINA RESULT:      -6.6      3.978      7.984
REMARK  Name = 
REMARK  19 active torsions:
REMARK  status: ('A' for Active; 'I' for Inactive)
REMARK    1  A    between atoms: C_1  and  C_2
REMARK    2  A    between atoms: C_2  and  C_3
REMARK    3  A    between atoms: C_3  and  C_4
REMARK    4  A    between atoms: C_4  and  C_5
REMARK    5  A    between atoms: C_5  and  C_6
REMARK    6  A    between atoms: C_5  and  C_7
REMARK    7  A    between atoms: C_5  and  C_8
REMARK    8  A    between atoms: C_8  and  O_9
REMARK    9  A    between atoms: C_8  and  C_10
REMARK   10  A    between atoms: C_11  and  C_12
REMARK   11  A    between atoms: C_17  and  C_18
REMARK   12  A    between atoms: C_18  and  C_19
REMARK   13  A    between atoms: C_19  and  C_20
REMARK   14  A    between atoms: C_20  and  C_21
REMARK   15  A    between atoms: C_21  and  C_22
REMARK   16  A    between atoms: C_22  and  C_23
REMARK   17  A    between atoms: C_23  and  C_24
REMARK   18  A    between atoms: C_23  and  C_25
REMARK   19  A    between atoms: C_25  and  O_27
REMARK                            x       y       z     vdW  Elec       q    Type
REMARK                         _______ _______ _______ _____ _____    ______ ____
ROOT
ATOM      1  C   UNL     1       4.133   6.718  18.169  0.00  0.00    +0.000 C 
ATOM      2  C   UNL     1       5.399   6.714  17.311  0.00  0.00    +0.000 C 
ATOM      3  C   UNL     1       5.119   5.732  16.194  0.00  0.00    +0.000 C 
ATOM      4  C   UNL     1       4.155   4.778  16.829  0.00  0.00    +0.000 C 
ATOM      5  O   UNL     1       3.855   3.708  16.305  0.00  0.00    +0.000 OA
ATOM      6  C   UNL     1       3.630   5.253  18.173  0.00  0.00    +0.000 C 
ENDROOT
BRANCH   1   8
ATOM      7  C   UNL     1       2.633   8.667  18.448  0.00  0.00    +0.000 C 
ATOM      8  C   UNL     1       3.124   7.706  17.657  0.00  0.00    +0.000 C 
BRANCH   7   9
ATOM      9  C   UNL     1       1.433   9.530  18.178  0.00  0.00    +0.000 C 
BRANCH   9  10
ATOM     10  C   UNL     1       0.657   9.983  19.448  0.00  0.00    +0.000 C 
ATOM     11  C   UNL     1      -0.852   9.963  19.111  0.00  0.00    +0.000 C 
ATOM     12  C   UNL     1       1.055  11.420  19.851  0.00  0.00    +0.000 C 
BRANCH  10  13
ATOM     13  C   UNL     1       0.957   8.988  20.610  0.00  0.00    +0.000 C 
BRANCH  13  14
ATOM     14  C   UNL     1      -0.211   8.767  21.562  0.00  0.00    +0.000 C 
BRANCH  14  16
ATOM     15  C   UNL     1      -0.969  10.554  23.098  0.00  0.00    +0.000 C 
ATOM     16  C   UNL     1       0.019   9.413  22.922  0.00  0.00    +0.000 C 
ENDBRANCH  14  16
ENDBRANCH  13  14
ENDBRANCH  10  13
ENDBRANCH   9  10
BRANCH   9  17
ATOM     17  O   UNL     1       1.801  10.646  17.367  0.00  0.00    +0.000 OA
ATOM     18  H   UNL     1       1.701  10.386  16.439  0.00  0.00    +0.000 HD
ENDBRANCH   9  17
ENDBRANCH   7   9
ENDBRANCH   1   8
BRANCH   6  19
ATOM     19  C   UNL     1       2.116   5.070  18.384  0.00  0.00    +0.000 C 
BRANCH  19  20
ATOM     20  C   UNL     1       1.568   5.470  19.755  0.00  0.00    +0.000 C 
BRANCH  20  21
ATOM     21  C   UNL     1       1.061   4.295  20.583  0.00  0.00    +0.000 C 
BRANCH  21  22
ATOM     22  C   UNL     1       2.161   3.800  21.523  0.00  0.00    +0.000 C 
BRANCH  22  23
ATOM     23  C   UNL     1       2.573   2.365  21.199  0.00  0.00    +0.000 C 
BRANCH  23  24
ATOM     24  C   UNL     1       3.719   2.279  20.176  0.00  0.00    +0.000 C 
ATOM     25  C   UNL     1       4.971   1.603  20.733  0.00  0.00    +0.000 C 
BRANCH  24  26
ATOM     26  C   UNL     1       3.248   1.508  18.947  0.00  0.00    +0.000 C 
ATOM     27  O   UNL     1       3.973   0.988  18.122  0.00  0.00    +0.000 OA
BRANCH  26  28
ATOM     28  O   UNL     1       1.895   1.471  18.842  0.00  0.00    +0.000 OA
ATOM     29  H   UNL     1       1.562   0.860  18.160  0.00  0.00    +0.000 HD
ENDBRANCH  26  28
ENDBRANCH  24  26
ENDBRANCH  23  24
ENDBRANCH  22  23
ENDBRANCH  21  22
ENDBRANCH  20  21
ENDBRANCH  19  20
ENDBRANCH   6  19
TORSDOF 15
ENDMDL
MODEL 8
REMARK VINA RESULT:      -6.5      1.237      1.806
REMARK  Name = 
REMARK  19 active torsions:
REMARK  status: ('A' for Active; 'I' for Inactive)
REMARK    1  A    between atoms: C_1  and  C_2
REMARK    2  A    between atoms: C_2  and  C_3
REMARK    3  A    between atoms: C_3  and  C_4
REMARK    4  A    between atoms: C_4  and  C_5
REMARK    5  A    between atoms: C_5  and  C_6
REMARK    6  A    between atoms: C_5  and  C_7
REMARK    7  A    between atoms: C_5  and  C_8
REMARK    8  A    between atoms: C_8  and  O_9
REMARK    9  A    between atoms: C_8  and  C_10
REMARK   10  A    between atoms: C_11  and  C_12
REMARK   11  A    between atoms: C_17  and  C_18
REMARK   12  A    between atoms: C_18  and  C_19
REMARK   13  A    between atoms: C_19  and  C_20
REMARK   14  A    between atoms: C_20  and  C_21
REMARK   15  A    between atoms: C_21  and  C_22
REMARK   16  A    between atoms: C_22  and  C_23
REMARK   17  A    between atoms: C_23  and  C_24
REMARK   18  A    between atoms: C_23  and  C_25
REMARK   19  A    between atoms: C_25  and  O_27
REMARK                            x       y       z     vdW  Elec       q    Type
REMARK                         _______ _______ _______ _____ _____    ______ ____
ROOT
ATOM      1  C   UNL     1       4.630   4.633  15.672  0.00  0.00    +0.000 C 
ATOM      2  C   UNL     1       4.988   3.919  14.368  0.00  0.00    +0.000 C 
ATOM      3  C   UNL     1       6.497   3.976  14.287  0.00  0.00    +0.000 C 
ATOM      4  C   UNL     1       6.821   5.230  15.039  0.00  0.00    +0.000 C 
ATOM      5  O   UNL     1       7.939   5.738  15.011  0.00  0.00    +0.000 OA
ATOM      6  C   UNL     1       5.634   5.806  15.793  0.00  0.00    +0.000 C 
ENDROOT
BRANCH   1   8
ATOM      7  C   UNL     1       3.519   3.269  17.415  0.00  0.00    +0.000 C 
ATOM      8  C   UNL     1       4.652   3.690  16.842  0.00  0.00    +0.000 C 
BRANCH   7   9
ATOM      9  C   UNL     1       3.383   2.574  18.740  0.00  0.00    +0.000 C 
BRANCH   9  10
ATOM     10  C   UNL     1       2.514   3.329  19.786  0.00  0.00    +0.000 C 
ATOM     11  C   UNL     1       2.775   2.686  21.168  0.00  0.00    +0.000 C 
ATOM     12  C   UNL     1       1.012   3.193  19.453  0.00  0.00    +0.000 C 
BRANCH  10  13
ATOM     13  C   UNL     1       2.934   4.830  19.808  0.00  0.00    +0.000 C 
BRANCH  13  14
ATOM     14  C   UNL     1       1.944   5.747  20.517  0.00  0.00    +0.000 C 
BRANCH  14  16
ATOM     15  C   UNL     1       2.597   7.212  18.632  0.00  0.00    +0.000 C 
ATOM     16  C   UNL     1       2.059   7.193  20.053  0.00  0.00    +0.000 C 
ENDBRANCH  14  16
ENDBRANCH  13  14
ENDBRANCH  10  13
ENDBRANCH   9  10
BRANCH   9  17
ATOM     17  O   UNL     1       2.923   1.236  18.549  0.00  0.00    +0.000 OA
ATOM     18  H   UNL     1       3.324   0.896  17.734  0.00  0.00    +0.000 HD
ENDBRANCH   9  17
ENDBRANCH   7   9
ENDBRANCH   1   8
BRANCH   6  19
ATOM     19  C   UNL     1       5.938   6.277  17.226  0.00  0.00    +0.000 C 
BRANCH  19  20
ATOM     20  C   UNL     1       7.353   6.011  17.743  0.00  0.00    +0.000 C 
BRANCH  20  21
ATOM     21  C   UNL     1       7.996   7.213  18.427  0.00  0.00    +0.000 C 
BRANCH  21  22
ATOM     22  C   UNL     1       7.491   8.510  17.794  0.00  0.00    +0.000 C 
BRANCH  22  23
ATOM     23  C   UNL     1       8.627   9.507  17.572  0.00  0.00    +0.000 C 
BRANCH  23  24
ATOM     24  C   UNL     1       8.614  10.674  18.573  0.00  0.00    +0.000 C 
ATOM     25  C   UNL     1       9.705  10.564  19.637  0.00  0.00    +0.000 C 
BRANCH  24  26
ATOM     26  C   UNL     1       8.787  11.990  17.823  0.00  0.00    +0.000 C 
ATOM     27  O   UNL     1       9.759  12.717  17.891  0.00  0.00    +0.000 OA
BRANCH  26  28
ATOM     28  O   UNL     1       7.709  12.300  17.058  0.00  0.00    +0.000 OA
ATOM     29  H   UNL     1       7.735  11.929  16.158  0.00  0.00    +0.000 HD
ENDBRANCH  26  28
ENDBRANCH  24  26
ENDBRANCH  23  24
ENDBRANCH  22  23
ENDBRANCH  21  22
ENDBRANCH  20  21
ENDBRANCH  19  20
ENDBRANCH   6  19
TORSDOF 15
ENDMDL
MODEL 9
REMARK VINA RESULT:      -6.5      1.403      1.815
REMARK  Name = 
REMARK  19 active torsions:
REMARK  status: ('A' for Active; 'I' for Inactive)
REMARK    1  A    between atoms: C_1  and  C_2
REMARK    2  A    between atoms: C_2  and  C_3
REMARK    3  A    between atoms: C_3  and  C_4
REMARK    4  A    between atoms: C_4  and  C_5
REMARK    5  A    between atoms: C_5  and  C_6
REMARK    6  A    between atoms: C_5  and  C_7
REMARK    7  A    between atoms: C_5  and  C_8
REMARK    8  A    between atoms: C_8  and  O_9
REMARK    9  A    between atoms: C_8  and  C_10
REMARK   10  A    between atoms: C_11  and  C_12
REMARK   11  A    between atoms: C_17  and  C_18
REMARK   12  A    between atoms: C_18  and  C_19
REMARK   13  A    between atoms: C_19  and  C_20
REMARK   14  A    between atoms: C_20  and  C_21
REMARK   15  A    between atoms: C_21  and  C_22
REMARK   16  A    between atoms: C_22  and  C_23
REMARK   17  A    between atoms: C_23  and  C_24
REMARK   18  A    between atoms: C_23  and  C_25
REMARK   19  A    between atoms: C_25  and  O_27
REMARK                            x       y       z     vdW  Elec       q    Type
REMARK                         _______ _______ _______ _____ _____    ______ ____
ROOT
ATOM      1  C   UNL     1       4.650   4.818  16.285  0.00  0.00    +0.000 C 
ATOM      2  C   UNL     1       4.711   4.373  14.823  0.00  0.00    +0.000 C 
ATOM      3  C   UNL     1       6.141   3.931  14.603  0.00  0.00    +0.000 C 
ATOM      4  C   UNL     1       6.900   4.771  15.584  0.00  0.00    +0.000 C 
ATOM      5  O   UNL     1       8.125   4.857  15.558  0.00  0.00    +0.000 OA
ATOM      6  C   UNL     1       6.007   5.508  16.567  0.00  0.00    +0.000 C 
ENDROOT
BRANCH   1   8
ATOM      7  C   UNL     1       3.296   3.683  18.020  0.00  0.00    +0.000 C 
ATOM      8  C   UNL     1       4.354   3.663  17.200  0.00  0.00    +0.000 C 
BRANCH   7   9
ATOM      9  C   UNL     1       3.034   2.757  19.174  0.00  0.00    +0.000 C 
BRANCH   9  10
ATOM     10  C   UNL     1       2.215   3.384  20.340  0.00  0.00    +0.000 C 
ATOM     11  C   UNL     1       2.475   2.537  21.607  0.00  0.00    +0.000 C 
ATOM     12  C   UNL     1       0.703   3.354  20.025  0.00  0.00    +0.000 C 
BRANCH  10  13
ATOM     13  C   UNL     1       2.695   4.849  20.569  0.00  0.00    +0.000 C 
BRANCH  13  14
ATOM     14  C   UNL     1       1.575   5.881  20.574  0.00  0.00    +0.000 C 
BRANCH  14  16
ATOM     15  C   UNL     1       1.404   8.330  20.891  0.00  0.00    +0.000 C 
ATOM     16  C   UNL     1       2.032   7.235  20.045  0.00  0.00    +0.000 C 
ENDBRANCH  14  16
ENDBRANCH  13  14
ENDBRANCH  10  13
ENDBRANCH   9  10
BRANCH   9  17
ATOM     17  O   UNL     1       2.436   1.548  18.709  0.00  0.00    +0.000 OA
ATOM     18  H   UNL     1       2.721   0.829  19.294  0.00  0.00    +0.000 HD
ENDBRANCH   9  17
ENDBRANCH   7   9
ENDBRANCH   1   8
BRANCH   6  19
ATOM     19  C   UNL     1       6.480   5.474  18.031  0.00  0.00    +0.000 C 
BRANCH  19  20
ATOM     20  C   UNL     1       7.615   6.431  18.400  0.00  0.00    +0.000 C 
BRANCH  20  21
ATOM     21  C   UNL     1       7.583   7.750  17.635  0.00  0.00    +0.000 C 
BRANCH  21  22
ATOM     22  C   UNL     1       8.682   8.681  18.145  0.00  0.00    +0.000 C 
BRANCH  22  23
ATOM     23  C   UNL     1       8.192  10.125  18.251  0.00  0.00    +0.000 C 
BRANCH  23  24
ATOM     24  C   UNL     1       9.333  11.141  18.428  0.00  0.00    +0.000 C 
ATOM     25  C   UNL     1       9.091  12.452  17.682  0.00  0.00    +0.000 C 
BRANCH  24  26
ATOM     26  C   UNL     1       9.518  11.445  19.911  0.00  0.00    +0.000 C 
ATOM     27  O   UNL     1       9.226  10.699  20.825  0.00  0.00    +0.000 OA
BRANCH  26  28
ATOM     28  O   UNL     1      10.039  12.680  20.129  0.00  0.00    +0.000 OA
ATOM     29  H   UNL     1      10.717  12.949  19.483  0.00  0.00    +0.000 HD
ENDBRANCH  26  28
ENDBRANCH  24  26
ENDBRANCH  23  24
ENDBRANCH  22  23
ENDBRANCH  21  22
ENDBRANCH  20  21
ENDBRANCH  19  20
ENDBRANCH   6  19
TORSDOF 15
ENDMDL
