MODEL 1
REMARK VINA RESULT:      -7.2      0.000      0.000
REMARK  Name = 
REMARK  8 active torsions:
REMARK  status: ('A' for Active; 'I' for Inactive)
REMARK    1  A    between atoms: C_1  and  O_2
REMARK    2  A    between atoms: O_2  and  C_3
REMARK    3  A    between atoms: C_6  and  C_7
REMARK    4  A    between atoms: N_8  and  N_9
REMARK    5  A    between atoms: C_12  and  C_13
REMARK    6  A    between atoms: C_15  and  O_16
REMARK    7  A    between atoms: C_19  and  O_20
REMARK    8  A    between atoms: O_20  and  C_21
REMARK                            x       y       z     vdW  Elec       q    Type
REMARK                         _______ _______ _______ _____ _____    ______ ____
ROOT
ATOM      1  C   UNL     1       3.805   5.543  19.021  0.00  0.00    +0.000 C 
ATOM      2  N   UNL     1       3.128   6.641  19.124  0.00  0.00    +0.000 NA
ENDROOT
BRANCH   2   3
ATOM      3  N   UNL     1       2.295   6.711  20.203  0.00  0.00    +0.000 N 
ATOM      4  C   UNL     1       1.706   7.964  20.466  0.00  0.00    +0.000 A 
ATOM      5  N   UNL     1       1.422   8.806  19.452  0.00  0.00    +0.000 NA
ATOM      6  C   UNL     1       0.876   9.997  19.746  0.00  0.00    +0.000 A 
ATOM      7  C   UNL     1       0.584  10.913  18.600  0.00  0.00    +0.000 C 
ATOM      8  C   UNL     1       0.607  10.379  21.040  0.00  0.00    +0.000 A 
ATOM      9  C   UNL     1       0.924   9.451  22.001  0.00  0.00    +0.000 A 
ATOM     10  N   UNL     1       1.462   8.252  21.753  0.00  0.00    +0.000 NA
ATOM     11  H   UNL     1       2.623   6.357  21.100  0.00  0.00    +0.000 HD
BRANCH   9  12
ATOM     12  O   UNL     1       0.700   9.717  23.323  0.00  0.00    +0.000 OA
ATOM     13  H   UNL     1      -0.199  10.062  23.420  0.00  0.00    +0.000 HD
ENDBRANCH   9  12
ENDBRANCH   2   3
BRANCH   1  17
ATOM     14  C   UNL     1       6.516   5.134  15.735  0.00  0.00    +0.000 A 
ATOM     15  C   UNL     1       5.488   4.197  15.931  0.00  0.00    +0.000 A 
ATOM     16  C   UNL     1       4.608   4.316  17.007  0.00  0.00    +0.000 A 
ATOM     17  C   UNL     1       4.772   5.354  17.921  0.00  0.00    +0.000 A 
ATOM     18  C   UNL     1       5.839   6.242  17.784  0.00  0.00    +0.000 A 
ATOM     19  C   UNL     1       6.722   6.140  16.696  0.00  0.00    +0.000 A 
BRANCH  14  21
ATOM     20  C   UNL     1       6.809   4.350  13.517  0.00  0.00    +0.000 C 
ATOM     21  O   UNL     1       7.332   5.065  14.638  0.00  0.00    +0.000 OA
ENDBRANCH  14  21
BRANCH  19  22
ATOM     22  O   UNL     1       7.687   7.111  16.731  0.00  0.00    +0.000 OA
ATOM     23  C   UNL     1       7.787   7.948  17.873  0.00  0.00    +0.000 C 
ENDBRANCH  19  22
ENDBRANCH   1  17
TORSDOF 5
ENDMDL
MODEL 2
REMARK VINA RESULT:      -7.1      1.256      1.287
REMARK  Name = 
REMARK  8 active torsions:
REMARK  status: ('A' for Active; 'I' for Inactive)
REMARK    1  A    between atoms: C_1  and  O_2
REMARK    2  A    between atoms: O_2  and  C_3
REMARK    3  A    between atoms: C_6  and  C_7
REMARK    4  A    between atoms: N_8  and  N_9
REMARK    5  A    between atoms: C_12  and  C_13
REMARK    6  A    between atoms: C_15  and  O_16
REMARK    7  A    between atoms: C_19  and  O_20
REMARK    8  A    between atoms: O_20  and  C_21
REMARK                            x       y       z     vdW  Elec       q    Type
REMARK                         _______ _______ _______ _____ _____    ______ ____
ROOT
ATOM      1  C   UNL     1       3.152   5.325  19.638  0.00  0.00    +0.000 C 
ATOM      2  N   UNL     1       2.677   6.527  19.684  0.00  0.00    +0.000 NA
ENDROOT
BRANCH   2   3
ATOM      3  N   UNL     1       1.766   6.756  20.676  0.00  0.00    +0.000 N 
ATOM      4  C   UNL     1       1.313   8.082  20.823  0.00  0.00    +0.000 A 
ATOM      5  N   UNL     1       1.222   8.891  19.748  0.00  0.00    +0.000 NA
ATOM      6  C   UNL     1       0.800  10.151  19.934  0.00  0.00    +0.000 A 
ATOM      7  C   UNL     1       0.722  11.028  18.723  0.00  0.00    +0.000 C 
ATOM      8  C   UNL     1       0.466  10.636  21.177  0.00  0.00    +0.000 A 
ATOM      9  C   UNL     1       0.583   9.735  22.206  0.00  0.00    +0.000 A 
ATOM     10  N   UNL     1       0.993   8.469  22.066  0.00  0.00    +0.000 NA
ATOM     11  H   UNL     1       1.969   6.418  21.615  0.00  0.00    +0.000 HD
BRANCH   9  12
ATOM     12  O   UNL     1       0.278  10.101  23.487  0.00  0.00    +0.000 OA
ATOM     13  H   UNL     1       0.236  11.067  23.530  0.00  0.00    +0.000 HD
ENDBRANCH   9  12
ENDBRANCH   2   3
BRANCH   1  17
ATOM     14  C   UNL     1       6.145   4.442  16.709  0.00  0.00    +0.000 A 
ATOM     15  C   UNL     1       4.782   4.330  16.391  0.00  0.00    +0.000 A 
ATOM     16  C   UNL     1       3.800   4.604  17.343  0.00  0.00    +0.000 A 
ATOM     17  C   UNL     1       4.173   4.955  18.638  0.00  0.00    +0.000 A 
ATOM     18  C   UNL     1       5.522   4.988  18.990  0.00  0.00    +0.000 A 
ATOM     19  C   UNL     1       6.520   4.729  18.034  0.00  0.00    +0.000 A 
BRANCH  14  21
ATOM     20  C   UNL     1       6.827   4.793  14.467  0.00  0.00    +0.000 C 
ATOM     21  O   UNL     1       7.109   4.250  15.757  0.00  0.00    +0.000 OA
ENDBRANCH  14  21
BRANCH  19  22
ATOM     22  O   UNL     1       7.776   4.829  18.571  0.00  0.00    +0.000 OA
ATOM     23  C   UNL     1       7.988   5.678  19.688  0.00  0.00    +0.000 C 
ENDBRANCH  19  22
ENDBRANCH   1  17
TORSDOF 5
ENDMDL
MODEL 3
REMARK VINA RESULT:      -6.9      2.937      3.905
REMARK  Name = 
REMARK  8 active torsions:
REMARK  status: ('A' for Active; 'I' for Inactive)
REMARK    1  A    between atoms: C_1  and  O_2
REMARK    2  A    between atoms: O_2  and  C_3
REMARK    3  A    between atoms: C_6  and  C_7
REMARK    4  A    between atoms: N_8  and  N_9
REMARK    5  A    between atoms: C_12  and  C_13
REMARK    6  A    between atoms: C_15  and  O_16
REMARK    7  A    between atoms: C_19  and  O_20
REMARK    8  A    between atoms: O_20  and  C_21
REMARK                            x       y       z     vdW  Elec       q    Type
REMARK                         _______ _______ _______ _____ _____    ______ ____
ROOT
ATOM      1  C   UNL     1       4.287   3.246  17.192  0.00  0.00    +0.000 C 
ATOM      2  N   UNL     1       3.053   3.161  16.814  0.00  0.00    +0.000 NA
ENDROOT
BRANCH   2   3
ATOM      3  N   UNL     1       2.193   2.653  17.745  0.00  0.00    +0.000 N 
ATOM      4  C   UNL     1       2.059   3.381  18.944  0.00  0.00    +0.000 A 
ATOM      5  N   UNL     1       2.192   4.723  18.941  0.00  0.00    +0.000 NA
ATOM      6  C   UNL     1       2.072   5.377  20.107  0.00  0.00    +0.000 A 
ATOM      7  C   UNL     1       2.237   6.865  20.073  0.00  0.00    +0.000 C 
ATOM      8  C   UNL     1       1.826   4.724  21.292  0.00  0.00    +0.000 A 
ATOM      9  C   UNL     1       1.698   3.360  21.191  0.00  0.00    +0.000 A 
ATOM     10  N   UNL     1       1.804   2.669  20.051  0.00  0.00    +0.000 NA
ATOM     11  H   UNL     1       2.284   1.675  18.015  0.00  0.00    +0.000 HD
BRANCH   9  12
ATOM     12  O   UNL     1       1.450   2.602  22.301  0.00  0.00    +0.000 OA
ATOM     13  H   UNL     1       1.130   1.734  22.016  0.00  0.00    +0.000 HD
ENDBRANCH   9  12
ENDBRANCH   2   3
BRANCH   1  17
ATOM     14  C   UNL     1       7.141   5.041  14.555  0.00  0.00    +0.000 A 
ATOM     15  C   UNL     1       6.367   3.949  14.130  0.00  0.00    +0.000 A 
ATOM     16  C   UNL     1       5.443   3.350  14.987  0.00  0.00    +0.000 A 
ATOM     17  C   UNL     1       5.312   3.814  16.294  0.00  0.00    +0.000 A 
ATOM     18  C   UNL     1       6.135   4.842  16.754  0.00  0.00    +0.000 A 
ATOM     19  C   UNL     1       7.058   5.462  15.895  0.00  0.00    +0.000 A 
BRANCH  14  21
ATOM     20  C   UNL     1       7.833   5.359  12.311  0.00  0.00    +0.000 C 
ATOM     21  O   UNL     1       7.991   5.679  13.694  0.00  0.00    +0.000 OA
ENDBRANCH  14  21
BRANCH  19  22
ATOM     22  O   UNL     1       7.754   6.457  16.529  0.00  0.00    +0.000 OA
ATOM     23  C   UNL     1       7.090   7.265  17.488  0.00  0.00    +0.000 C 
ENDBRANCH  19  22
ENDBRANCH   1  17
TORSDOF 5
ENDMDL
MODEL 4
REMARK VINA RESULT:      -6.8      3.232      8.707
REMARK  Name = 
REMARK  8 active torsions:
REMARK  status: ('A' for Active; 'I' for Inactive)
REMARK    1  A    between atoms: C_1  and  O_2
REMARK    2  A    between atoms: O_2  and  C_3
REMARK    3  A    between atoms: C_6  and  C_7
REMARK    4  A    between atoms: N_8  and  N_9
REMARK    5  A    between atoms: C_12  and  C_13
REMARK    6  A    between atoms: C_15  and  O_16
REMARK    7  A    between atoms: C_19  and  O_20
REMARK    8  A    between atoms: O_20  and  C_21
REMARK                            x       y       z     vdW  Elec       q    Type
REMARK                         _______ _______ _______ _____ _____    ______ ____
ROOT
ATOM      1  C   UNL     1       1.455   8.695  19.875  0.00  0.00    +0.000 C 
ATOM      2  N   UNL     1       1.837   7.512  20.230  0.00  0.00    +0.000 NA
ENDROOT
BRANCH   2   3
ATOM      3  N   UNL     1       2.600   6.847  19.313  0.00  0.00    +0.000 N 
ATOM      4  C   UNL     1       2.918   5.506  19.609  0.00  0.00    +0.000 A 
ATOM      5  N   UNL     1       2.058   4.745  20.314  0.00  0.00    +0.000 NA
ATOM      6  C   UNL     1       2.405   3.478  20.588  0.00  0.00    +0.000 A 
ATOM      7  C   UNL     1       1.434   2.663  21.384  0.00  0.00    +0.000 C 
ATOM      8  C   UNL     1       3.604   2.942  20.177  0.00  0.00    +0.000 A 
ATOM      9  C   UNL     1       4.408   3.792  19.458  0.00  0.00    +0.000 A 
ATOM     10  N   UNL     1       4.098   5.059  19.158  0.00  0.00    +0.000 NA
ATOM     11  H   UNL     1       3.463   7.279  18.989  0.00  0.00    +0.000 HD
BRANCH   9  12
ATOM     12  O   UNL     1       5.622   3.372  18.994  0.00  0.00    +0.000 OA
ATOM     13  H   UNL     1       5.504   2.523  18.545  0.00  0.00    +0.000 HD
ENDBRANCH   9  12
ENDBRANCH   2   3
BRANCH   1  17
ATOM     14  C   UNL     1      -0.697  11.230  22.569  0.00  0.00    +0.000 A 
ATOM     15  C   UNL     1      -0.338   9.927  22.951  0.00  0.00    +0.000 A 
ATOM     16  C   UNL     1       0.353   9.090  22.075  0.00  0.00    +0.000 A 
ATOM     17  C   UNL     1       0.657   9.536  20.790  0.00  0.00    +0.000 A 
ATOM     18  C   UNL     1       0.232  10.796  20.370  0.00  0.00    +0.000 A 
ATOM     19  C   UNL     1      -0.451  11.653  21.250  0.00  0.00    +0.000 A 
BRANCH  14  21
ATOM     20  C   UNL     1      -2.733  12.103  23.412  0.00  0.00    +0.000 C 
ATOM     21  O   UNL     1      -1.305  12.081  23.452  0.00  0.00    +0.000 OA
ENDBRANCH  14  21
BRANCH  19  22
ATOM     22  O   UNL     1      -0.764  12.846  20.656  0.00  0.00    +0.000 OA
ATOM     23  C   UNL     1      -1.249  12.851  19.322  0.00  0.00    +0.000 C 
ENDBRANCH  19  22
ENDBRANCH   1  17
TORSDOF 5
ENDMDL
MODEL 5
REMARK VINA RESULT:      -6.8      4.285      7.100
REMARK  Name = 
REMARK  8 active torsions:
REMARK  status: ('A' for Active; 'I' for Inactive)
REMARK    1  A    between atoms: C_1  and  O_2
REMARK    2  A    between atoms: O_2  and  C_3
REMARK    3  A    between atoms: C_6  and  C_7
REMARK    4  A    between atoms: N_8  and  N_9
REMARK    5  A    between atoms: C_12  and  C_13
REMARK    6  A    between atoms: C_15  and  O_16
REMARK    7  A    between atoms: C_19  and  O_20
REMARK    8  A    between atoms: O_20  and  C_21
REMARK                            x       y       z     vdW  Elec       q    Type
REMARK                         _______ _______ _______ _____ _____    ______ ____
ROOT
ATOM      1  C   UNL     1       8.428   8.447  18.073  0.00  0.00    +0.000 C 
ATOM      2  N   UNL     1       7.695   8.023  17.095  0.00  0.00    +0.000 NA
ENDROOT
BRANCH   2   3
ATOM      3  N   UNL     1       7.502   6.671  17.056  0.00  0.00    +0.000 N 
ATOM      4  C   UNL     1       6.291   6.190  17.594  0.00  0.00    +0.000 A 
ATOM      5  N   UNL     1       5.174   6.942  17.527  0.00  0.00    +0.000 NA
ATOM      6  C   UNL     1       4.045   6.454  18.065  0.00  0.00    +0.000 A 
ATOM      7  C   UNL     1       2.825   7.318  17.986  0.00  0.00    +0.000 C 
ATOM      8  C   UNL     1       3.998   5.223  18.678  0.00  0.00    +0.000 A 
ATOM      9  C   UNL     1       5.184   4.530  18.688  0.00  0.00    +0.000 A 
ATOM     10  N   UNL     1       6.329   4.975  18.159  0.00  0.00    +0.000 NA
ATOM     11  H   UNL     1       8.234   6.061  17.415  0.00  0.00    +0.000 HD
BRANCH   9  12
ATOM     12  O   UNL     1       5.261   3.295  19.267  0.00  0.00    +0.000 OA
ATOM     13  H   UNL     1       4.395   2.869  19.199  0.00  0.00    +0.000 HD
ENDBRANCH   9  12
ENDBRANCH   2   3
BRANCH   1  17
ATOM     14  C   UNL     1       9.047  12.627  18.748  0.00  0.00    +0.000 A 
ATOM     15  C   UNL     1       8.195  12.190  17.720  0.00  0.00    +0.000 A 
ATOM     16  C   UNL     1       7.998  10.830  17.485  0.00  0.00    +0.000 A 
ATOM     17  C   UNL     1       8.682   9.890  18.253  0.00  0.00    +0.000 A 
ATOM     18  C   UNL     1       9.594  10.311  19.220  0.00  0.00    +0.000 A 
ATOM     19  C   UNL     1       9.789  11.680  19.476  0.00  0.00    +0.000 A 
BRANCH  14  21
ATOM     20  C   UNL     1      10.065  14.690  18.179  0.00  0.00    +0.000 C 
ATOM     21  O   UNL     1       9.182  13.959  19.031  0.00  0.00    +0.000 OA
ENDBRANCH  14  21
BRANCH  19  22
ATOM     22  O   UNL     1      10.707  11.885  20.470  0.00  0.00    +0.000 OA
ATOM     23  C   UNL     1      12.078  12.028  20.131  0.00  0.00    +0.000 C 
ENDBRANCH  19  22
ENDBRANCH   1  17
TORSDOF 5
ENDMDL
MODEL 6
REMARK VINA RESULT:      -6.7      2.788      3.981
REMARK  Name = 
REMARK  8 active torsions:
REMARK  status: ('A' for Active; 'I' for Inactive)
REMARK    1  A    between atoms: C_1  and  O_2
REMARK    2  A    between atoms: O_2  and  C_3
REMARK    3  A    between atoms: C_6  and  C_7
REMARK    4  A    between atoms: N_8  and  N_9
REMARK    5  A    between atoms: C_12  and  C_13
REMARK    6  A    between atoms: C_15  and  O_16
REMARK    7  A    between atoms: C_19  and  O_20
REMARK    8  A    between atoms: O_20  and  C_21
REMARK                            x       y       z     vdW  Elec       q    Type
REMARK                         _______ _______ _______ _____ _____    ______ ____
ROOT
ATOM      1  C   UNL     1       2.160   7.790  18.926  0.00  0.00    +0.000 C 
ATOM      2  N   UNL     1       1.782   8.914  18.410  0.00  0.00    +0.000 NA
ENDROOT
BRANCH   2   3
ATOM      3  N   UNL     1       1.090   9.737  19.252  0.00  0.00    +0.000 N 
ATOM      4  C   UNL     1      -0.038  10.387  18.713  0.00  0.00    +0.000 A 
ATOM      5  N   UNL     1      -0.767   9.792  17.747  0.00  0.00    +0.000 NA
ATOM      6  C   UNL     1      -1.825  10.451  17.250  0.00  0.00    +0.000 A 
ATOM      7  C   UNL     1      -2.605   9.769  16.170  0.00  0.00    +0.000 C 
ATOM      8  C   UNL     1      -2.179  11.706  17.690  0.00  0.00    +0.000 A 
ATOM      9  C   UNL     1      -1.382  12.224  18.680  0.00  0.00    +0.000 A 
ATOM     10  N   UNL     1      -0.323  11.600  19.209  0.00  0.00    +0.000 NA
ATOM     11  H   UNL     1       1.601  10.443  19.777  0.00  0.00    +0.000 HD
BRANCH   9  12
ATOM     12  O   UNL     1      -1.636  13.462  19.199  0.00  0.00    +0.000 OA
ATOM     13  H   UNL     1      -1.966  13.355  20.103  0.00  0.00    +0.000 HD
ENDBRANCH   9  12
ENDBRANCH   2   3
BRANCH   1  17
ATOM     14  C   UNL     1       4.548   4.949  16.795  0.00  0.00    +0.000 A 
ATOM     15  C   UNL     1       4.809   6.324  16.684  0.00  0.00    +0.000 A 
ATOM     16  C   UNL     1       4.028   7.258  17.365  0.00  0.00    +0.000 A 
ATOM     17  C   UNL     1       2.950   6.825  18.136  0.00  0.00    +0.000 A 
ATOM     18  C   UNL     1       2.630   5.469  18.186  0.00  0.00    +0.000 A 
ATOM     19  C   UNL     1       3.420   4.519  17.516  0.00  0.00    +0.000 A 
BRANCH  14  21
ATOM     20  C   UNL     1       6.747   4.361  16.135  0.00  0.00    +0.000 C 
ATOM     21  O   UNL     1       5.360   4.027  16.191  0.00  0.00    +0.000 OA
ENDBRANCH  14  21
BRANCH  19  22
ATOM     22  O   UNL     1       2.952   3.246  17.704  0.00  0.00    +0.000 OA
ATOM     23  C   UNL     1       3.553   2.425  18.694  0.00  0.00    +0.000 C 
ENDBRANCH  19  22
ENDBRANCH   1  17
TORSDOF 5
ENDMDL
MODEL 7
REMARK VINA RESULT:      -6.6      2.466      3.671
REMARK  Name = 
REMARK  8 active torsions:
REMARK  status: ('A' for Active; 'I' for Inactive)
REMARK    1  A    between atoms: C_1  and  O_2
REMARK    2  A    between atoms: O_2  and  C_3
REMARK    3  A    between atoms: C_6  and  C_7
REMARK    4  A    between atoms: N_8  and  N_9
REMARK    5  A    between atoms: C_12  and  C_13
REMARK    6  A    between atoms: C_15  and  O_16
REMARK    7  A    between atoms: C_19  and  O_20
REMARK    8  A    between atoms: O_20  and  C_21
REMARK                            x       y       z     vdW  Elec       q    Type
REMARK                         _______ _______ _______ _____ _____    ______ ____
ROOT
ATOM      1  C   UNL     1       2.850   8.184  17.881  0.00  0.00    +0.000 C 
ATOM      2  N   UNL     1       1.620   8.581  17.851  0.00  0.00    +0.000 NA
ENDROOT
BRANCH   2   3
ATOM      3  N   UNL     1       1.446   9.936  17.845  0.00  0.00    +0.000 N 
ATOM      4  C   UNL     1       0.620  10.471  18.854  0.00  0.00    +0.000 A 
ATOM      5  N   UNL     1       0.557   9.879  20.063  0.00  0.00    +0.000 NA
ATOM      6  C   UNL     1      -0.254  10.411  20.992  0.00  0.00    +0.000 A 
ATOM      7  C   UNL     1      -0.311   9.724  22.320  0.00  0.00    +0.000 C 
ATOM      8  C   UNL     1      -1.017  11.528  20.744  0.00  0.00    +0.000 A 
ATOM      9  C   UNL     1      -0.878  12.063  19.487  0.00  0.00    +0.000 A 
ATOM     10  N   UNL     1      -0.078  11.570  18.534  0.00  0.00    +0.000 NA
ATOM     11  H   UNL     1       1.166  10.390  16.978  0.00  0.00    +0.000 HD
BRANCH   9  12
ATOM     12  O   UNL     1      -1.584  13.175  19.123  0.00  0.00    +0.000 OA
ATOM     13  H   UNL     1      -2.388  12.893  18.664  0.00  0.00    +0.000 HD
ENDBRANCH   9  12
ENDBRANCH   2   3
BRANCH   1  17
ATOM     14  C   UNL     1       3.777   4.015  17.605  0.00  0.00    +0.000 A 
ATOM     15  C   UNL     1       2.520   4.436  18.069  0.00  0.00    +0.000 A 
ATOM     16  C   UNL     1       2.214   5.793  18.173  0.00  0.00    +0.000 A 
ATOM     17  C   UNL     1       3.179   6.745  17.852  0.00  0.00    +0.000 A 
ATOM     18  C   UNL     1       4.458   6.340  17.472  0.00  0.00    +0.000 A 
ATOM     19  C   UNL     1       4.772   4.975  17.348  0.00  0.00    +0.000 A 
BRANCH  14  21
ATOM     20  C   UNL     1       3.350   1.785  18.283  0.00  0.00    +0.000 C 
ATOM     21  O   UNL     1       4.053   2.687  17.428  0.00  0.00    +0.000 OA
ENDBRANCH  14  21
BRANCH  19  22
ATOM     22  O   UNL     1       6.067   4.786  16.947  0.00  0.00    +0.000 OA
ATOM     23  C   UNL     1       6.349   4.611  15.567  0.00  0.00    +0.000 C 
ENDBRANCH  19  22
ENDBRANCH   1  17
TORSDOF 5
ENDMDL
MODEL 8
REMARK VINA RESULT:      -6.6      2.721      8.452
REMARK  Name = 
REMARK  8 active torsions:
REMARK  status: ('A' for Active; 'I' for Inactive)
REMARK    1  A    between atoms: C_1  and  O_2
REMARK    2  A    between atoms: O_2  and  C_3
REMARK    3  A    between atoms: C_6  and  C_7
REMARK    4  A    between atoms: N_8  and  N_9
REMARK    5  A    between atoms: C_12  and  C_13
REMARK    6  A    between atoms: C_15  and  O_16
REMARK    7  A    between atoms: C_19  and  O_20
REMARK    8  A    between atoms: O_20  and  C_21
REMARK                            x       y       z     vdW  Elec       q    Type
REMARK                         _______ _______ _______ _____ _____    ______ ____
ROOT
ATOM      1  C   UNL     1       1.787   8.556  18.982  0.00  0.00    +0.000 C 
ATOM      2  N   UNL     1       2.236   7.353  19.138  0.00  0.00    +0.000 NA
ENDROOT
BRANCH   2   3
ATOM      3  N   UNL     1       2.914   6.842  18.068  0.00  0.00    +0.000 N 
ATOM      4  C   UNL     1       2.951   5.438  17.956  0.00  0.00    +0.000 A 
ATOM      5  N   UNL     1       1.919   4.695  18.403  0.00  0.00    +0.000 NA
ATOM      6  C   UNL     1       2.000   3.359  18.291  0.00  0.00    +0.000 A 
ATOM      7  C   UNL     1       0.844   2.562  18.809  0.00  0.00    +0.000 C 
ATOM      8  C   UNL     1       3.098   2.736  17.744  0.00  0.00    +0.000 A 
ATOM      9  C   UNL     1       4.092   3.578  17.311  0.00  0.00    +0.000 A 
ATOM     10  N   UNL     1       4.050   4.912  17.396  0.00  0.00    +0.000 NA
ATOM     11  H   UNL     1       3.862   7.167  17.888  0.00  0.00    +0.000 HD
BRANCH   9  12
ATOM     12  O   UNL     1       5.231   3.074  16.747  0.00  0.00    +0.000 OA
ATOM     13  H   UNL     1       5.331   3.456  15.863  0.00  0.00    +0.000 HD
ENDBRANCH   9  12
ENDBRANCH   2   3
BRANCH   1  17
ATOM     14  C   UNL     1      -0.123  10.615  22.211  0.00  0.00    +0.000 A 
ATOM     15  C   UNL     1       0.136   9.237  22.299  0.00  0.00    +0.000 A 
ATOM     16  C   UNL     1       0.747   8.556  21.246  0.00  0.00    +0.000 A 
ATOM     17  C   UNL     1       1.070   9.241  20.076  0.00  0.00    +0.000 A 
ATOM     18  C   UNL     1       0.741  10.589  19.945  0.00  0.00    +0.000 A 
ATOM     19  C   UNL     1       0.140  11.289  21.005  0.00  0.00    +0.000 A 
BRANCH  14  21
ATOM     20  C   UNL     1      -2.045  11.598  23.189  0.00  0.00    +0.000 C 
ATOM     21  O   UNL     1      -0.650  11.301  23.271  0.00  0.00    +0.000 OA
ENDBRANCH  14  21
BRANCH  19  22
ATOM     22  O   UNL     1      -0.085  12.601  20.685  0.00  0.00    +0.000 OA
ATOM     23  C   UNL     1      -0.929  12.913  19.587  0.00  0.00    +0.000 C 
ENDBRANCH  19  22
ENDBRANCH   1  17
TORSDOF 5
ENDMDL
MODEL 9
REMARK VINA RESULT:      -6.6      3.067      4.458
REMARK  Name = 
REMARK  8 active torsions:
REMARK  status: ('A' for Active; 'I' for Inactive)
REMARK    1  A    between atoms: C_1  and  O_2
REMARK    2  A    between atoms: O_2  and  C_3
REMARK    3  A    between atoms: C_6  and  C_7
REMARK    4  A    between atoms: N_8  and  N_9
REMARK    5  A    between atoms: C_12  and  C_13
REMARK    6  A    between atoms: C_15  and  O_16
REMARK    7  A    between atoms: C_19  and  O_20
REMARK    8  A    between atoms: O_20  and  C_21
REMARK                            x       y       z     vdW  Elec       q    Type
REMARK                         _______ _______ _______ _____ _____    ______ ____
ROOT
ATOM      1  C   UNL     1       2.773   8.332  17.932  0.00  0.00    +0.000 C 
ATOM      2  N   UNL     1       1.544   8.735  17.939  0.00  0.00    +0.000 NA
ENDROOT
BRANCH   2   3
ATOM      3  N   UNL     1       1.377  10.090  17.895  0.00  0.00    +0.000 N 
ATOM      4  C   UNL     1       0.589  10.662  18.914  0.00  0.00    +0.000 A 
ATOM      5  N   UNL     1       0.566  10.110  20.144  0.00  0.00    +0.000 NA
ATOM      6  C   UNL     1      -0.209  10.677  21.082  0.00  0.00    +0.000 A 
ATOM      7  C   UNL     1      -0.223  10.032  22.433  0.00  0.00    +0.000 C 
ATOM      8  C   UNL     1      -0.975  11.790  20.825  0.00  0.00    +0.000 A 
ATOM      9  C   UNL     1      -0.877  12.283  19.547  0.00  0.00    +0.000 A 
ATOM     10  N   UNL     1      -0.114  11.754  18.584  0.00  0.00    +0.000 NA
ATOM     11  H   UNL     1       1.069  10.518  17.024  0.00  0.00    +0.000 HD
BRANCH   9  12
ATOM     12  O   UNL     1      -1.590  13.387  19.173  0.00  0.00    +0.000 OA
ATOM     13  H   UNL     1      -1.700  13.959  19.947  0.00  0.00    +0.000 HD
ENDBRANCH   9  12
ENDBRANCH   2   3
BRANCH   1  17
ATOM     14  C   UNL     1       3.733   4.166  18.137  0.00  0.00    +0.000 A 
ATOM     15  C   UNL     1       4.664   5.087  17.630  0.00  0.00    +0.000 A 
ATOM     16  C   UNL     1       4.355   6.445  17.548  0.00  0.00    +0.000 A 
ATOM     17  C   UNL     1       3.093   6.890  17.937  0.00  0.00    +0.000 A 
ATOM     18  C   UNL     1       2.132   5.974  18.363  0.00  0.00    +0.000 A 
ATOM     19  C   UNL     1       2.438   4.606  18.464  0.00  0.00    +0.000 A 
BRANCH  14  21
ATOM     20  C   UNL     1       4.394   2.438  19.618  0.00  0.00    +0.000 C 
ATOM     21  O   UNL     1       4.061   2.846  18.291  0.00  0.00    +0.000 OA
ENDBRANCH  14  21
BRANCH  19  22
ATOM     22  O   UNL     1       1.370   3.879  18.916  0.00  0.00    +0.000 OA
ATOM     23  C   UNL     1       0.951   4.026  20.265  0.00  0.00    +0.000 C 
ENDBRANCH  19  22
ENDBRANCH   1  17
TORSDOF 5
ENDMDL
