MODEL 1
REMARK VINA RESULT:      -7.1      0.000      0.000
REMARK  Name = 
REMARK  5 active torsions:
REMARK  status: ('A' for Active; 'I' for Inactive)
REMARK    1  A    between atoms: O5*_1  and  C5*_2
REMARK    2  A    between atoms: C5*_2  and  C4*_3
REMARK    3  A    between atoms: C1*_5  and  N_6
REMARK    4  A    between atoms: C2*_21  and  O2*_22
REMARK    5  A    between atoms: C3*_23  and  O3*_24
REMARK                            x       y       z     vdW  Elec       q    Type
REMARK                         _______ _______ _______ _____ _____    ______ ____
ROOT
ATOM      1  N   UNL     1       4.701   4.515  18.361  0.00  0.00    +0.000 N 
ATOM      2  C   UNL     1       4.075   5.741  18.169  0.00  0.00    +0.000 A 
ATOM      3  C   UNL     1       4.497   6.937  17.560  0.00  0.00    +0.000 A 
ATOM      4  C   UNL     1       3.590   7.988  17.404  0.00  0.00    +0.000 A 
ATOM      5  C   UNL     1       2.296   7.871  17.888  0.00  0.00    +0.000 A 
ATOM      6 CL   UNL     1       1.187   9.169  17.659  0.00  0.00    +0.000 Cl
ATOM      7  C   UNL     1       1.892   6.729  18.580  0.00  0.00    +0.000 A 
ATOM      8  C   UNL     1       2.793   5.651  18.743  0.00  0.00    +0.000 A 
ATOM      9  C   UNL     1       2.732   4.417  19.454  0.00  0.00    +0.000 A 
ATOM     10  C   UNL     1       1.854   3.733  20.287  0.00  0.00    +0.000 A 
ATOM     11 CL   UNL     1       0.362   4.426  20.701  0.00  0.00    +0.000 Cl
ATOM     12  N   UNL     1       2.150   2.540  20.820  0.00  0.00    +0.000 NA
ATOM     13  C   UNL     1       3.345   2.023  20.509  0.00  0.00    +0.000 A 
ATOM     14  N   UNL     1       4.283   2.559  19.711  0.00  0.00    +0.000 NA
ATOM     15  C   UNL     1       3.929   3.760  19.219  0.00  0.00    +0.000 A 
ENDROOT
BRANCH   1  18
ATOM     16  C4* UNL     1       7.755   5.630  17.617  0.00  0.00    +0.000 C 
ATOM     17  O4* UNL     1       7.067   4.780  18.567  0.00  0.00    +0.000 OA
ATOM     18  C1* UNL     1       6.010   4.056  17.881  0.00  0.00    +0.000 C 
ATOM     19  C2* UNL     1       6.342   4.223  16.377  0.00  0.00    +0.000 C 
ATOM     20  C3* UNL     1       6.937   5.619  16.335  0.00  0.00    +0.000 C 
BRANCH  19  21
ATOM     21  O2* UNL     1       5.357   4.039  15.376  0.00  0.00    +0.000 OA
ATOM     22  H2* UNL     1       4.696   3.385  15.667  0.00  0.00    +0.000 HD
ENDBRANCH  19  21
BRANCH  20  23
ATOM     23  O3* UNL     1       7.748   5.870  15.191  0.00  0.00    +0.000 OA
ATOM     24  H3* UNL     1       8.136   5.030  14.885  0.00  0.00    +0.000 HD
ENDBRANCH  20  23
BRANCH  16  25
ATOM     25  C5* UNL     1       7.936   7.050  18.157  0.00  0.00    +0.000 C 
BRANCH  25  26
ATOM     26  O5* UNL     1       7.794   8.019  17.120  0.00  0.00    +0.000 OA
ATOM     27  H5* UNL     1       6.844   8.112  16.934  0.00  0.00    +0.000 HD
ENDBRANCH  25  26
ENDBRANCH  16  25
ENDBRANCH   1  18
TORSDOF 5
ENDMDL
MODEL 2
REMARK VINA RESULT:      -7.0      1.153      1.423
REMARK  Name = 
REMARK  5 active torsions:
REMARK  status: ('A' for Active; 'I' for Inactive)
REMARK    1  A    between atoms: O5*_1  and  C5*_2
REMARK    2  A    between atoms: C5*_2  and  C4*_3
REMARK    3  A    between atoms: C1*_5  and  N_6
REMARK    4  A    between atoms: C2*_21  and  O2*_22
REMARK    5  A    between atoms: C3*_23  and  O3*_24
REMARK                            x       y       z     vdW  Elec       q    Type
REMARK                         _______ _______ _______ _____ _____    ______ ____
ROOT
ATOM      1  N   UNL     1       4.555   4.550  17.619  0.00  0.00    +0.000 N 
ATOM      2  C   UNL     1       3.883   5.756  17.774  0.00  0.00    +0.000 A 
ATOM      3  C   UNL     1       4.275   7.094  17.581  0.00  0.00    +0.000 A 
ATOM      4  C   UNL     1       3.329   8.114  17.700  0.00  0.00    +0.000 A 
ATOM      5  C   UNL     1       2.021   7.815  18.053  0.00  0.00    +0.000 A 
ATOM      6 CL   UNL     1       0.865   9.086  18.167  0.00  0.00    +0.000 Cl
ATOM      7  C   UNL     1       1.640   6.505  18.343  0.00  0.00    +0.000 A 
ATOM      8  C   UNL     1       2.582   5.457  18.221  0.00  0.00    +0.000 A 
ATOM      9  C   UNL     1       2.547   4.063  18.521  0.00  0.00    +0.000 A 
ATOM     10  C   UNL     1       1.666   3.132  19.057  0.00  0.00    +0.000 A 
ATOM     11 CL   UNL     1       0.127   3.620  19.578  0.00  0.00    +0.000 Cl
ATOM     12  N   UNL     1       1.993   1.842  19.219  0.00  0.00    +0.000 NA
ATOM     13  C   UNL     1       3.223   1.482  18.833  0.00  0.00    +0.000 A 
ATOM     14  N   UNL     1       4.170   2.264  18.289  0.00  0.00    +0.000 NA
ATOM     15  C   UNL     1       3.782   3.546  18.164  0.00  0.00    +0.000 A 
ENDROOT
BRANCH   1  18
ATOM     16  C4* UNL     1       7.744   5.413  18.079  0.00  0.00    +0.000 C 
ATOM     17  O4* UNL     1       6.859   4.272  18.191  0.00  0.00    +0.000 OA
ATOM     18  C1* UNL     1       5.904   4.300  17.097  0.00  0.00    +0.000 C 
ATOM     19  C2* UNL     1       6.502   5.313  16.089  0.00  0.00    +0.000 C 
ATOM     20  C3* UNL     1       7.164   6.324  17.008  0.00  0.00    +0.000 C 
BRANCH  19  21
ATOM     21  O2* UNL     1       5.699   5.940  15.105  0.00  0.00    +0.000 OA
ATOM     22  H2* UNL     1       5.862   5.542  14.231  0.00  0.00    +0.000 HD
ENDBRANCH  19  21
BRANCH  20  23
ATOM     23  O3* UNL     1       8.174   7.106  16.379  0.00  0.00    +0.000 OA
ATOM     24  H3* UNL     1       8.713   7.542  17.064  0.00  0.00    +0.000 HD
ENDBRANCH  20  23
BRANCH  16  25
ATOM     25  C5* UNL     1       7.898   6.144  19.415  0.00  0.00    +0.000 C 
BRANCH  25  26
ATOM     26  O5* UNL     1       8.143   5.227  20.479  0.00  0.00    +0.000 OA
ATOM     27  H5* UNL     1       9.074   4.954  20.423  0.00  0.00    +0.000 HD
ENDBRANCH  25  26
ENDBRANCH  16  25
ENDBRANCH   1  18
TORSDOF 5
ENDMDL
MODEL 3
REMARK VINA RESULT:      -6.8      2.875      5.151
REMARK  Name = 
REMARK  5 active torsions:
REMARK  status: ('A' for Active; 'I' for Inactive)
REMARK    1  A    between atoms: O5*_1  and  C5*_2
REMARK    2  A    between atoms: C5*_2  and  C4*_3
REMARK    3  A    between atoms: C1*_5  and  N_6
REMARK    4  A    between atoms: C2*_21  and  O2*_22
REMARK    5  A    between atoms: C3*_23  and  O3*_24
REMARK                            x       y       z     vdW  Elec       q    Type
REMARK                         _______ _______ _______ _____ _____    ______ ____
ROOT
ATOM      1  N   UNL     1       4.079   4.563  18.110  0.00  0.00    +0.000 N 
ATOM      2  C   UNL     1       3.345   5.732  17.947  0.00  0.00    +0.000 A 
ATOM      3  C   UNL     1       1.963   5.985  17.878  0.00  0.00    +0.000 A 
ATOM      4  C   UNL     1       1.504   7.303  17.831  0.00  0.00    +0.000 A 
ATOM      5  C   UNL     1       2.407   8.355  17.806  0.00  0.00    +0.000 A 
ATOM      6 CL   UNL     1       1.818   9.974  17.777  0.00  0.00    +0.000 Cl
ATOM      7  C   UNL     1       3.781   8.119  17.776  0.00  0.00    +0.000 A 
ATOM      8  C   UNL     1       4.266   6.791  17.829  0.00  0.00    +0.000 A 
ATOM      9  C   UNL     1       5.566   6.213  17.727  0.00  0.00    +0.000 A 
ATOM     10  C   UNL     1       6.877   6.622  17.516  0.00  0.00    +0.000 A 
ATOM     11 CL   UNL     1       7.226   8.264  17.275  0.00  0.00    +0.000 Cl
ATOM     12  N   UNL     1       7.899   5.757  17.457  0.00  0.00    +0.000 NA
ATOM     13  C   UNL     1       7.601   4.463  17.615  0.00  0.00    +0.000 A 
ATOM     14  N   UNL     1       6.390   3.926  17.840  0.00  0.00    +0.000 NA
ATOM     15  C   UNL     1       5.409   4.844  17.877  0.00  0.00    +0.000 A 
ENDROOT
BRANCH   1  18
ATOM     16  C4* UNL     1       1.780   2.865  19.830  0.00  0.00    +0.000 C 
ATOM     17  O4* UNL     1       2.154   3.192  18.470  0.00  0.00    +0.000 OA
ATOM     18  C1* UNL     1       3.603   3.197  18.361  0.00  0.00    +0.000 C 
ATOM     19  C2* UNL     1       4.087   2.474  19.642  0.00  0.00    +0.000 C 
ATOM     20  C3* UNL     1       3.051   2.906  20.664  0.00  0.00    +0.000 C 
BRANCH  19  21
ATOM     21  O2* UNL     1       5.408   2.635  20.130  0.00  0.00    +0.000 OA
ATOM     22  H2* UNL     1       5.427   3.294  20.846  0.00  0.00    +0.000 HD
ENDBRANCH  19  21
BRANCH  20  23
ATOM     23  O3* UNL     1       2.963   2.050  21.799  0.00  0.00    +0.000 OA
ATOM     24  H3* UNL     1       2.168   1.492  21.717  0.00  0.00    +0.000 HD
ENDBRANCH  20  23
BRANCH  16  25
ATOM     25  C5* UNL     1       0.720   3.827  20.372  0.00  0.00    +0.000 C 
BRANCH  25  26
ATOM     26  O5* UNL     1       1.319   5.000  20.919  0.00  0.00    +0.000 OA
ATOM     27  H5* UNL     1       1.359   5.665  20.212  0.00  0.00    +0.000 HD
ENDBRANCH  25  26
ENDBRANCH  16  25
ENDBRANCH   1  18
TORSDOF 5
ENDMDL
MODEL 4
REMARK VINA RESULT:      -6.8      2.246      4.472
REMARK  Name = 
REMARK  5 active torsions:
REMARK  status: ('A' for Active; 'I' for Inactive)
REMARK    1  A    between atoms: O5*_1  and  C5*_2
REMARK    2  A    between atoms: C5*_2  and  C4*_3
REMARK    3  A    between atoms: C1*_5  and  N_6
REMARK    4  A    between atoms: C2*_21  and  O2*_22
REMARK    5  A    between atoms: C3*_23  and  O3*_24
REMARK                            x       y       z     vdW  Elec       q    Type
REMARK                         _______ _______ _______ _____ _____    ______ ____
ROOT
ATOM      1  N   UNL     1       4.148   6.778  17.863  0.00  0.00    +0.000 N 
ATOM      2  C   UNL     1       3.853   5.638  18.602  0.00  0.00    +0.000 A 
ATOM      3  C   UNL     1       4.353   4.323  18.561  0.00  0.00    +0.000 A 
ATOM      4  C   UNL     1       3.947   3.400  19.527  0.00  0.00    +0.000 A 
ATOM      5  C   UNL     1       3.021   3.764  20.493  0.00  0.00    +0.000 A 
ATOM      6 CL   UNL     1       2.556   2.617  21.692  0.00  0.00    +0.000 Cl
ATOM      7  C   UNL     1       2.443   5.033  20.489  0.00  0.00    +0.000 A 
ATOM      8  C   UNL     1       2.846   5.984  19.523  0.00  0.00    +0.000 A 
ATOM      9  C   UNL     1       2.403   7.299  19.192  0.00  0.00    +0.000 A 
ATOM     10  C   UNL     1       1.429   8.205  19.594  0.00  0.00    +0.000 A 
ATOM     11 CL   UNL     1       0.342   7.792  20.829  0.00  0.00    +0.000 Cl
ATOM     12  N   UNL     1       1.280   9.405  19.015  0.00  0.00    +0.000 NA
ATOM     13  C   UNL     1       2.124   9.700  18.021  0.00  0.00    +0.000 A 
ATOM     14  N   UNL     1       3.118   8.935  17.538  0.00  0.00    +0.000 NA
ATOM     15  C   UNL     1       3.206   7.742  18.153  0.00  0.00    +0.000 A 
ENDROOT
BRANCH   1  18
ATOM     16  C4* UNL     1       5.810   5.156  15.468  0.00  0.00    +0.000 C 
ATOM     17  O4* UNL     1       4.842   6.220  15.645  0.00  0.00    +0.000 OA
ATOM     18  C1* UNL     1       5.179   6.977  16.838  0.00  0.00    +0.000 C 
ATOM     19  C2* UNL     1       6.633   6.554  17.165  0.00  0.00    +0.000 C 
ATOM     20  C3* UNL     1       6.645   5.098  16.737  0.00  0.00    +0.000 C 
BRANCH  19  21
ATOM     21  O2* UNL     1       7.182   6.729  18.460  0.00  0.00    +0.000 OA
ATOM     22  H2* UNL     1       7.846   6.040  18.642  0.00  0.00    +0.000 HD
ENDBRANCH  19  21
BRANCH  20  23
ATOM     23  O3* UNL     1       7.947   4.577  16.487  0.00  0.00    +0.000 OA
ATOM     24  H3* UNL     1       7.947   4.121  15.626  0.00  0.00    +0.000 HD
ENDBRANCH  20  23
BRANCH  16  25
ATOM     25  C5* UNL     1       5.130   3.816  15.180  0.00  0.00    +0.000 C 
BRANCH  25  26
ATOM     26  O5* UNL     1       5.840   2.736  15.782  0.00  0.00    +0.000 OA
ATOM     27  H5* UNL     1       6.758   3.028  15.916  0.00  0.00    +0.000 HD
ENDBRANCH  25  26
ENDBRANCH  16  25
ENDBRANCH   1  18
TORSDOF 5
ENDMDL
MODEL 5
REMARK VINA RESULT:      -6.4      8.933     10.986
REMARK  Name = 
REMARK  5 active torsions:
REMARK  status: ('A' for Active; 'I' for Inactive)
REMARK    1  A    between atoms: O5*_1  and  C5*_2
REMARK    2  A    between atoms: C5*_2  and  C4*_3
REMARK    3  A    between atoms: C1*_5  and  N_6
REMARK    4  A    between atoms: C2*_21  and  O2*_22
REMARK    5  A    between atoms: C3*_23  and  O3*_24
REMARK                            x       y       z     vdW  Elec       q    Type
REMARK                         _______ _______ _______ _____ _____    ______ ____
ROOT
ATOM      1  N   UNL     1      -2.966  12.603  20.635  0.00  0.00    +0.000 N 
ATOM      2  C   UNL     1      -2.885  12.149  19.324  0.00  0.00    +0.000 A 
ATOM      3  C   UNL     1      -1.797  11.939  18.457  0.00  0.00    +0.000 A 
ATOM      4  C   UNL     1      -2.012  11.348  17.210  0.00  0.00    +0.000 A 
ATOM      5  C   UNL     1      -3.297  11.012  16.810  0.00  0.00    +0.000 A 
ATOM      6 CL   UNL     1      -3.536  10.258  15.280  0.00  0.00    +0.000 Cl
ATOM      7  C   UNL     1      -4.397  11.303  17.617  0.00  0.00    +0.000 A 
ATOM      8  C   UNL     1      -4.199  11.895  18.887  0.00  0.00    +0.000 A 
ATOM      9  C   UNL     1      -5.083  12.391  19.889  0.00  0.00    +0.000 A 
ATOM     10  C   UNL     1      -6.449  12.551  20.091  0.00  0.00    +0.000 A 
ATOM     11 CL   UNL     1      -7.547  12.084  18.886  0.00  0.00    +0.000 Cl
ATOM     12  N   UNL     1      -6.951  13.103  21.205  0.00  0.00    +0.000 NA
ATOM     13  C   UNL     1      -6.069  13.496  22.131  0.00  0.00    +0.000 A 
ATOM     14  N   UNL     1      -4.731  13.391  22.080  0.00  0.00    +0.000 NA
ATOM     15  C   UNL     1      -4.292  12.841  20.934  0.00  0.00    +0.000 A 
ENDROOT
BRANCH   1  18
ATOM     16  C4* UNL     1       0.111  11.659  21.508  0.00  0.00    +0.000 C 
ATOM     17  O4* UNL     1      -0.599  12.773  20.915  0.00  0.00    +0.000 OA
ATOM     18  C1* UNL     1      -1.885  12.924  21.574  0.00  0.00    +0.000 C 
ATOM     19  C2* UNL     1      -1.757  12.079  22.866  0.00  0.00    +0.000 C 
ATOM     20  C3* UNL     1      -0.873  10.932  22.411  0.00  0.00    +0.000 C 
BRANCH  19  21
ATOM     21  O2* UNL     1      -2.900  11.618  23.567  0.00  0.00    +0.000 OA
ATOM     22  H2* UNL     1      -2.694  11.505  24.512  0.00  0.00    +0.000 HD
ENDBRANCH  19  21
BRANCH  20  23
ATOM     23  O3* UNL     1      -0.211  10.252  23.472  0.00  0.00    +0.000 OA
ATOM     24  H3* UNL     1       0.613  10.726  23.690  0.00  0.00    +0.000 HD
ENDBRANCH  20  23
BRANCH  16  25
ATOM     25  C5* UNL     1       0.691  10.727  20.442  0.00  0.00    +0.000 C 
BRANCH  25  26
ATOM     26  O5* UNL     1       0.040   9.459  20.455  0.00  0.00    +0.000 OA
ATOM     27  H5* UNL     1       0.716   8.780  20.285  0.00  0.00    +0.000 HD
ENDBRANCH  25  26
ENDBRANCH  16  25
ENDBRANCH   1  18
TORSDOF 5
ENDMDL
MODEL 6
REMARK VINA RESULT:      -6.4      9.927     12.220
REMARK  Name = 
REMARK  5 active torsions:
REMARK  status: ('A' for Active; 'I' for Inactive)
REMARK    1  A    between atoms: O5*_1  and  C5*_2
REMARK    2  A    between atoms: C5*_2  and  C4*_3
REMARK    3  A    between atoms: C1*_5  and  N_6
REMARK    4  A    between atoms: C2*_21  and  O2*_22
REMARK    5  A    between atoms: C3*_23  and  O3*_24
REMARK                            x       y       z     vdW  Elec       q    Type
REMARK                         _______ _______ _______ _____ _____    ______ ____
ROOT
ATOM      1  N   UNL     1      -3.640  12.570  20.401  0.00  0.00    +0.000 N 
ATOM      2  C   UNL     1      -3.673  12.008  19.131  0.00  0.00    +0.000 A 
ATOM      3  C   UNL     1      -4.728  11.732  18.242  0.00  0.00    +0.000 A 
ATOM      4  C   UNL     1      -4.443  11.265  16.956  0.00  0.00    +0.000 A 
ATOM      5  C   UNL     1      -3.131  11.031  16.575  0.00  0.00    +0.000 A 
ATOM      6 CL   UNL     1      -2.801  10.483  14.975  0.00  0.00    +0.000 Cl
ATOM      7  C   UNL     1      -2.081  11.208  17.476  0.00  0.00    +0.000 A 
ATOM      8  C   UNL     1      -2.348  11.686  18.780  0.00  0.00    +0.000 A 
ATOM      9  C   UNL     1      -1.543  11.883  19.940  0.00  0.00    +0.000 A 
ATOM     10  C   UNL     1      -0.225  11.696  20.341  0.00  0.00    +0.000 A 
ATOM     11 CL   UNL     1       0.905  11.033  19.264  0.00  0.00    +0.000 Cl
ATOM     12  N   UNL     1       0.198  11.989  21.578  0.00  0.00    +0.000 NA
ATOM     13  C   UNL     1      -0.714  12.479  22.425  0.00  0.00    +0.000 A 
ATOM     14  N   UNL     1      -2.011  12.726  22.175  0.00  0.00    +0.000 NA
ATOM     15  C   UNL     1      -2.373  12.401  20.921  0.00  0.00    +0.000 A 
ENDROOT
BRANCH   1  18
ATOM     16  C4* UNL     1      -6.921  12.290  20.932  0.00  0.00    +0.000 C 
ATOM     17  O4* UNL     1      -5.652  12.106  21.605  0.00  0.00    +0.000 OA
ATOM     18  C1* UNL     1      -4.734  13.152  21.187  0.00  0.00    +0.000 C 
ATOM     19  C2* UNL     1      -5.640  14.213  20.514  0.00  0.00    +0.000 C 
ATOM     20  C3* UNL     1      -6.710  13.353  19.865  0.00  0.00    +0.000 C 
BRANCH  19  21
ATOM     21  O2* UNL     1      -5.115  15.172  19.612  0.00  0.00    +0.000 OA
ATOM     22  H2* UNL     1      -4.482  14.752  19.003  0.00  0.00    +0.000 HD
ENDBRANCH  19  21
BRANCH  20  23
ATOM     23  O3* UNL     1      -7.916  14.050  19.571  0.00  0.00    +0.000 OA
ATOM     24  H3* UNL     1      -8.674  13.516  19.871  0.00  0.00    +0.000 HD
ENDBRANCH  20  23
BRANCH  16  25
ATOM     25  C5* UNL     1      -7.435  10.981  20.328  0.00  0.00    +0.000 C 
BRANCH  25  26
ATOM     26  O5* UNL     1      -7.489   9.946  21.307  0.00  0.00    +0.000 OA
ATOM     27  H5* UNL     1      -7.083  10.291  22.120  0.00  0.00    +0.000 HD
ENDBRANCH  25  26
ENDBRANCH  16  25
ENDBRANCH   1  18
TORSDOF 5
ENDMDL
MODEL 7
REMARK VINA RESULT:      -6.3      3.359      5.443
REMARK  Name = 
REMARK  5 active torsions:
REMARK  status: ('A' for Active; 'I' for Inactive)
REMARK    1  A    between atoms: O5*_1  and  C5*_2
REMARK    2  A    between atoms: C5*_2  and  C4*_3
REMARK    3  A    between atoms: C1*_5  and  N_6
REMARK    4  A    between atoms: C2*_21  and  O2*_22
REMARK    5  A    between atoms: C3*_23  and  O3*_24
REMARK                            x       y       z     vdW  Elec       q    Type
REMARK                         _______ _______ _______ _____ _____    ______ ____
ROOT
ATOM      1  N   UNL     1       2.419   5.638  20.031  0.00  0.00    +0.000 N 
ATOM      2  C   UNL     1       3.294   5.716  18.954  0.00  0.00    +0.000 A 
ATOM      3  C   UNL     1       4.266   4.830  18.455  0.00  0.00    +0.000 A 
ATOM      4  C   UNL     1       4.923   5.130  17.259  0.00  0.00    +0.000 A 
ATOM      5  C   UNL     1       4.653   6.316  16.593  0.00  0.00    +0.000 A 
ATOM      6 CL   UNL     1       5.455   6.652  15.106  0.00  0.00    +0.000 Cl
ATOM      7  C   UNL     1       3.764   7.249  17.126  0.00  0.00    +0.000 A 
ATOM      8  C   UNL     1       3.083   6.961  18.332  0.00  0.00    +0.000 A 
ATOM      9  C   UNL     1       2.206   7.710  19.170  0.00  0.00    +0.000 A 
ATOM     10  C   UNL     1       1.655   8.985  19.231  0.00  0.00    +0.000 A 
ATOM     11 CL   UNL     1       2.039  10.134  18.044  0.00  0.00    +0.000 Cl
ATOM     12  N   UNL     1       0.844   9.371  20.226  0.00  0.00    +0.000 NA
ATOM     13  C   UNL     1       0.579   8.462  21.171  0.00  0.00    +0.000 A 
ATOM     14  N   UNL     1       1.024   7.196  21.235  0.00  0.00    +0.000 NA
ATOM     15  C   UNL     1       1.841   6.877  20.215  0.00  0.00    +0.000 A 
ENDROOT
BRANCH   1  18
ATOM     16  C4* UNL     1       3.278   2.461  20.577  0.00  0.00    +0.000 C 
ATOM     17  O4* UNL     1       3.408   3.780  21.163  0.00  0.00    +0.000 OA
ATOM     18  C1* UNL     1       2.176   4.520  20.951  0.00  0.00    +0.000 C 
ATOM     19  C2* UNL     1       1.145   3.440  20.540  0.00  0.00    +0.000 C 
ATOM     20  C3* UNL     1       2.000   2.464  19.753  0.00  0.00    +0.000 C 
BRANCH  19  21
ATOM     21  O2* UNL     1      -0.045   3.777  19.847  0.00  0.00    +0.000 OA
ATOM     22  H2* UNL     1       0.022   4.675  19.476  0.00  0.00    +0.000 HD
ENDBRANCH  19  21
BRANCH  20  23
ATOM     23  O3* UNL     1       1.442   1.159  19.644  0.00  0.00    +0.000 OA
ATOM     24  H3* UNL     1       1.500   0.863  18.717  0.00  0.00    +0.000 HD
ENDBRANCH  20  23
BRANCH  16  25
ATOM     25  C5* UNL     1       4.496   2.099  19.724  0.00  0.00    +0.000 C 
BRANCH  25  26
ATOM     26  O5* UNL     1       4.130   1.262  18.630  0.00  0.00    +0.000 OA
ATOM     27  H5* UNL     1       4.692   1.505  17.874  0.00  0.00    +0.000 HD
ENDBRANCH  25  26
ENDBRANCH  16  25
ENDBRANCH   1  18
TORSDOF 5
ENDMDL
MODEL 8
REMARK VINA RESULT:      -6.1      8.960     11.220
REMARK  Name = 
REMARK  5 active torsions:
REMARK  status: ('A' for Active; 'I' for Inactive)
REMARK    1  A    between atoms: O5*_1  and  C5*_2
REMARK    2  A    between atoms: C5*_2  and  C4*_3
REMARK    3  A    between atoms: C1*_5  and  N_6
REMARK    4  A    between atoms: C2*_21  and  O2*_22
REMARK    5  A    between atoms: C3*_23  and  O3*_24
REMARK                            x       y       z     vdW  Elec       q    Type
REMARK                         _______ _______ _______ _____ _____    ______ ____
ROOT
ATOM      1  N   UNL     1      -3.081  12.538  19.723  0.00  0.00    +0.000 N 
ATOM      2  C   UNL     1      -1.820  11.999  19.498  0.00  0.00    +0.000 A 
ATOM      3  C   UNL     1      -0.575  12.204  20.120  0.00  0.00    +0.000 A 
ATOM      4  C   UNL     1       0.518  11.416  19.754  0.00  0.00    +0.000 A 
ATOM      5  C   UNL     1       0.389  10.469  18.748  0.00  0.00    +0.000 A 
ATOM      6 CL   UNL     1       1.742   9.489  18.331  0.00  0.00    +0.000 Cl
ATOM      7  C   UNL     1      -0.812  10.321  18.055  0.00  0.00    +0.000 A 
ATOM      8  C   UNL     1      -1.933  11.105  18.417  0.00  0.00    +0.000 A 
ATOM      9  C   UNL     1      -3.240  11.264  17.870  0.00  0.00    +0.000 A 
ATOM     10  C   UNL     1      -3.987  10.796  16.796  0.00  0.00    +0.000 A 
ATOM     11 CL   UNL     1      -3.297   9.710  15.690  0.00  0.00    +0.000 Cl
ATOM     12  N   UNL     1      -5.245  11.196  16.566  0.00  0.00    +0.000 NA
ATOM     13  C   UNL     1      -5.762  12.078  17.429  0.00  0.00    +0.000 A 
ATOM     14  N   UNL     1      -5.168  12.604  18.513  0.00  0.00    +0.000 NA
ATOM     15  C   UNL     1      -3.906  12.170  18.681  0.00  0.00    +0.000 A 
ENDROOT
BRANCH   1  18
ATOM     16  C4* UNL     1      -2.424  13.408  22.875  0.00  0.00    +0.000 C 
ATOM     17  O4* UNL     1      -2.375  13.937  21.528  0.00  0.00    +0.000 OA
ATOM     18  C1* UNL     1      -3.524  13.452  20.783  0.00  0.00    +0.000 C 
ATOM     19  C2* UNL     1      -4.485  12.908  21.868  0.00  0.00    +0.000 C 
ATOM     20  C3* UNL     1      -3.520  12.354  22.901  0.00  0.00    +0.000 C 
BRANCH  19  21
ATOM     21  O2* UNL     1      -5.511  11.981  21.554  0.00  0.00    +0.000 OA
ATOM     22  H2* UNL     1      -5.171  11.070  21.605  0.00  0.00    +0.000 HD
ENDBRANCH  19  21
BRANCH  20  23
ATOM     23  O3* UNL     1      -4.081  12.209  24.202  0.00  0.00    +0.000 OA
ATOM     24  H3* UNL     1      -3.654  11.457  24.651  0.00  0.00    +0.000 HD
ENDBRANCH  20  23
BRANCH  16  25
ATOM     25  C5* UNL     1      -1.075  12.827  23.305  0.00  0.00    +0.000 C 
BRANCH  25  26
ATOM     26  O5* UNL     1      -1.138  11.408  23.426  0.00  0.00    +0.000 OA
ATOM     27  H5* UNL     1      -0.587  11.029  22.720  0.00  0.00    +0.000 HD
ENDBRANCH  25  26
ENDBRANCH  16  25
ENDBRANCH   1  18
TORSDOF 5
ENDMDL
MODEL 9
REMARK VINA RESULT:      -6.0      8.414     10.451
REMARK  Name = 
REMARK  5 active torsions:
REMARK  status: ('A' for Active; 'I' for Inactive)
REMARK    1  A    between atoms: O5*_1  and  C5*_2
REMARK    2  A    between atoms: C5*_2  and  C4*_3
REMARK    3  A    between atoms: C1*_5  and  N_6
REMARK    4  A    between atoms: C2*_21  and  O2*_22
REMARK    5  A    between atoms: C3*_23  and  O3*_24
REMARK                            x       y       z     vdW  Elec       q    Type
REMARK                         _______ _______ _______ _____ _____    ______ ____
ROOT
ATOM      1  N   UNL     1      -2.528  12.489  20.185  0.00  0.00    +0.000 N 
ATOM      2  C   UNL     1      -2.667  12.036  18.879  0.00  0.00    +0.000 A 
ATOM      3  C   UNL     1      -1.743  11.845  17.836  0.00  0.00    +0.000 A 
ATOM      4  C   UNL     1      -2.161  11.250  16.644  0.00  0.00    +0.000 A 
ATOM      5  C   UNL     1      -3.490  10.891  16.472  0.00  0.00    +0.000 A 
ATOM      6 CL   UNL     1      -3.978  10.133  15.004  0.00  0.00    +0.000 Cl
ATOM      7  C   UNL     1      -4.437  11.162  17.458  0.00  0.00    +0.000 A 
ATOM      8  C   UNL     1      -4.033  11.759  18.676  0.00  0.00    +0.000 A 
ATOM      9  C   UNL     1      -4.738  12.239  19.818  0.00  0.00    +0.000 A 
ATOM     10  C   UNL     1      -6.050  12.376  20.254  0.00  0.00    +0.000 A 
ATOM     11 CL   UNL     1      -7.332  11.889  19.257  0.00  0.00    +0.000 Cl
ATOM     12  N   UNL     1      -6.361  12.919  21.440  0.00  0.00    +0.000 NA
ATOM     13  C   UNL     1      -5.339  13.328  22.199  0.00  0.00    +0.000 A 
ATOM     14  N   UNL     1      -4.028  13.247  21.917  0.00  0.00    +0.000 NA
ATOM     15  C   UNL     1      -3.785  12.704  20.711  0.00  0.00    +0.000 A 
ENDROOT
BRANCH   1  18
ATOM     16  C4* UNL     1       0.691  11.654  20.451  0.00  0.00    +0.000 C 
ATOM     17  O4* UNL     1      -0.157  12.753  20.037  0.00  0.00    +0.000 OA
ATOM     18  C1* UNL     1      -1.306  12.830  20.923  0.00  0.00    +0.000 C 
ATOM     19  C2* UNL     1      -0.913  11.955  22.139  0.00  0.00    +0.000 C 
ATOM     20  C3* UNL     1      -0.085  10.860  21.491  0.00  0.00    +0.000 C 
BRANCH  19  21
ATOM     21  O2* UNL     1      -1.890  11.426  23.019  0.00  0.00    +0.000 OA
ATOM     22  H2* UNL     1      -1.639  11.596  23.944  0.00  0.00    +0.000 HD
ENDBRANCH  19  21
BRANCH  20  23
ATOM     23  O3* UNL     1       0.786  10.180  22.390  0.00  0.00    +0.000 OA
ATOM     24  H3* UNL     1       0.252   9.697  23.046  0.00  0.00    +0.000 HD
ENDBRANCH  20  23
BRANCH  16  25
ATOM     25  C5* UNL     1       1.100  10.778  19.265  0.00  0.00    +0.000 C 
BRANCH  25  26
ATOM     26  O5* UNL     1       1.751  11.545  18.255  0.00  0.00    +0.000 OA
ATOM     27  H5* UNL     1       2.710  11.464  18.397  0.00  0.00    +0.000 HD
ENDBRANCH  25  26
ENDBRANCH  16  25
ENDBRANCH   1  18
TORSDOF 5
ENDMDL
