MODEL 1
REMARK VINA RESULT:      -8.6      0.000      0.000
REMARK  Name = 
REMARK  6 active torsions:
REMARK  status: ('A' for Active; 'I' for Inactive)
REMARK    1  A    between atoms: C_1  and  C_2
REMARK    2  A    between atoms: C_7  and  C_8
REMARK    3  A    between atoms: C_8  and  O_9
REMARK    4  A    between atoms: N_12  and  C_13
REMARK    5  A    between atoms: C_13  and  C_14
REMARK    6  A    between atoms: C_13  and  C_20
REMARK                            x       y       z     vdW  Elec       q    Type
REMARK                         _______ _______ _______ _____ _____    ______ ____
ROOT
ATOM      1  C   UNL     1       5.418   4.583  15.783  0.00  0.00    +0.000 C 
ATOM      2  C   UNL     1       5.119   6.088  15.924  0.00  0.00    +0.000 C 
ATOM      3  C   UNL     1       4.714   6.431  17.348  0.00  0.00    +0.000 C 
ATOM      4  N   UNL     1       3.500   5.722  17.761  0.00  0.00    +0.000 NA
ATOM      5  C   UNL     1       3.626   4.267  17.573  0.00  0.00    +0.000 C 
ATOM      6  C   UNL     1       4.119   3.850  16.163  0.00  0.00    +0.000 C 
ENDROOT
BRANCH   1  13
ATOM      7  C   UNL     1       8.091   5.772  14.746  0.00  0.00    +0.000 C 
ATOM      8  C   UNL     1       7.215   4.868  13.917  0.00  0.00    +0.000 A 
ATOM      9  C   UNL     1       7.592   4.680  12.569  0.00  0.00    +0.000 A 
ATOM     10  C   UNL     1       6.850   3.876  11.708  0.00  0.00    +0.000 A 
ATOM     11  C   UNL     1       5.741   3.207  12.191  0.00  0.00    +0.000 A 
ATOM     12  C   UNL     1       5.359   3.369  13.524  0.00  0.00    +0.000 A 
ATOM     13  C   UNL     1       6.046   4.232  14.414  0.00  0.00    +0.000 A 
ENDBRANCH   1  13
BRANCH   1  14
ATOM     14  O   UNL     1       6.413   4.274  16.772  0.00  0.00    +0.000 OA
ATOM     15  H   UNL     1       7.266   4.205  16.309  0.00  0.00    +0.000 HD
ENDBRANCH   1  14
BRANCH   4  16
ATOM     16  C   UNL     1       3.066   6.113  19.143  0.00  0.00    +0.000 C 
BRANCH  16  17
ATOM     17  C   UNL     1       2.265   7.441  19.189  0.00  0.00    +0.000 A 
ATOM     18  C   UNL     1       1.702   7.918  20.394  0.00  0.00    +0.000 A 
ATOM     19  C   UNL     1       0.983   9.111  20.445  0.00  0.00    +0.000 A 
ATOM     20  C   UNL     1       0.799   9.852  19.282  0.00  0.00    +0.000 A 
ATOM     21  C   UNL     1       1.335   9.399  18.078  0.00  0.00    +0.000 A 
ATOM     22  C   UNL     1       2.064   8.205  18.029  0.00  0.00    +0.000 A 
ENDBRANCH  16  17
BRANCH  16  23
ATOM     23  C   UNL     1       2.325   4.962  19.879  0.00  0.00    +0.000 A 
ATOM     24  C   UNL     1       2.708   4.521  21.159  0.00  0.00    +0.000 A 
ATOM     25  C   UNL     1       2.194   3.341  21.699  0.00  0.00    +0.000 A 
ATOM     26  C   UNL     1       1.235   2.615  21.000  0.00  0.00    +0.000 A 
ATOM     27  C   UNL     1       0.749   3.099  19.789  0.00  0.00    +0.000 A 
ATOM     28  C   UNL     1       1.272   4.273  19.244  0.00  0.00    +0.000 A 
ENDBRANCH  16  23
ENDBRANCH   4  16
TORSDOF 5
ENDMDL
MODEL 2
REMARK VINA RESULT:      -8.4      2.545      7.422
REMARK  Name = 
REMARK  6 active torsions:
REMARK  status: ('A' for Active; 'I' for Inactive)
REMARK    1  A    between atoms: C_1  and  C_2
REMARK    2  A    between atoms: C_7  and  C_8
REMARK    3  A    between atoms: C_8  and  O_9
REMARK    4  A    between atoms: N_12  and  C_13
REMARK    5  A    between atoms: C_13  and  C_14
REMARK    6  A    between atoms: C_13  and  C_20
REMARK                            x       y       z     vdW  Elec       q    Type
REMARK                         _______ _______ _______ _____ _____    ______ ____
ROOT
ATOM      1  C   UNL     1       1.278   9.908  18.613  0.00  0.00    +0.000 C 
ATOM      2  C   UNL     1       2.588   9.605  17.860  0.00  0.00    +0.000 C 
ATOM      3  C   UNL     1       2.660   8.142  17.459  0.00  0.00    +0.000 C 
ATOM      4  N   UNL     1       2.628   7.250  18.621  0.00  0.00    +0.000 NA
ATOM      5  C   UNL     1       1.464   7.515  19.481  0.00  0.00    +0.000 C 
ATOM      6  C   UNL     1       1.282   9.008  19.861  0.00  0.00    +0.000 C 
ENDROOT
BRANCH   1  13
ATOM      7  C   UNL     1      -1.410  11.159  19.534  0.00  0.00    +0.000 C 
ATOM      8  C   UNL     1      -0.202  11.982  19.161  0.00  0.00    +0.000 A 
ATOM      9  C   UNL     1      -0.378  13.382  19.114  0.00  0.00    +0.000 A 
ATOM     10  C   UNL     1       0.664  14.238  18.770  0.00  0.00    +0.000 A 
ATOM     11  C   UNL     1       1.916  13.713  18.510  0.00  0.00    +0.000 A 
ATOM     12  C   UNL     1       2.114  12.331  18.564  0.00  0.00    +0.000 A 
ATOM     13  C   UNL     1       1.064  11.422  18.842  0.00  0.00    +0.000 A 
ENDBRANCH   1  13
BRANCH   1  14
ATOM     14  O   UNL     1       0.210   9.477  17.754  0.00  0.00    +0.000 OA
ATOM     15  H   UNL     1       0.515   8.674  17.297  0.00  0.00    +0.000 HD
ENDBRANCH   1  14
BRANCH   4  16
ATOM     16  C   UNL     1       2.766   5.809  18.223  0.00  0.00    +0.000 C 
BRANCH  16  17
ATOM     17  C   UNL     1       4.216   5.405  17.848  0.00  0.00    +0.000 A 
ATOM     18  C   UNL     1       4.484   4.593  16.723  0.00  0.00    +0.000 A 
ATOM     19  C   UNL     1       5.784   4.228  16.377  0.00  0.00    +0.000 A 
ATOM     20  C   UNL     1       6.850   4.658  17.160  0.00  0.00    +0.000 A 
ATOM     21  C   UNL     1       6.612   5.451  18.281  0.00  0.00    +0.000 A 
ATOM     22  C   UNL     1       5.308   5.825  18.623  0.00  0.00    +0.000 A 
ENDBRANCH  16  17
BRANCH  16  23
ATOM     23  C   UNL     1       2.147   4.843  19.273  0.00  0.00    +0.000 A 
ATOM     24  C   UNL     1       2.512   4.879  20.632  0.00  0.00    +0.000 A 
ATOM     25  C   UNL     1       2.133   3.859  21.506  0.00  0.00    +0.000 A 
ATOM     26  C   UNL     1       1.325   2.820  21.057  0.00  0.00    +0.000 A 
ATOM     27  C   UNL     1       0.850   2.830  19.749  0.00  0.00    +0.000 A 
ATOM     28  C   UNL     1       1.239   3.844  18.871  0.00  0.00    +0.000 A 
ENDBRANCH  16  23
ENDBRANCH   4  16
TORSDOF 5
ENDMDL
MODEL 3
REMARK VINA RESULT:      -8.2      2.521      7.943
REMARK  Name = 
REMARK  6 active torsions:
REMARK  status: ('A' for Active; 'I' for Inactive)
REMARK    1  A    between atoms: C_1  and  C_2
REMARK    2  A    between atoms: C_7  and  C_8
REMARK    3  A    between atoms: C_8  and  O_9
REMARK    4  A    between atoms: N_12  and  C_13
REMARK    5  A    between atoms: C_13  and  C_14
REMARK    6  A    between atoms: C_13  and  C_20
REMARK                            x       y       z     vdW  Elec       q    Type
REMARK                         _______ _______ _______ _____ _____    ______ ____
ROOT
ATOM      1  C   UNL     1       0.956   9.696  19.964  0.00  0.00    +0.000 C 
ATOM      2  C   UNL     1       1.849   9.743  18.708  0.00  0.00    +0.000 C 
ATOM      3  C   UNL     1       1.898   8.387  18.025  0.00  0.00    +0.000 C 
ATOM      4  N   UNL     1       2.455   7.350  18.897  0.00  0.00    +0.000 NA
ATOM      5  C   UNL     1       1.744   7.279  20.184  0.00  0.00    +0.000 C 
ATOM      6  C   UNL     1       1.583   8.647  20.898  0.00  0.00    +0.000 C 
ENDROOT
BRANCH   1  13
ATOM      7  C   UNL     1      -0.544  10.200  22.635  0.00  0.00    +0.000 C 
ATOM      8  C   UNL     1      -0.080  11.311  21.728  0.00  0.00    +0.000 A 
ATOM      9  C   UNL     1      -0.477  12.621  22.075  0.00  0.00    +0.000 A 
ATOM     10  C   UNL     1      -0.116  13.722  21.303  0.00  0.00    +0.000 A 
ATOM     11  C   UNL     1       0.688  13.540  20.194  0.00  0.00    +0.000 A 
ATOM     12  C   UNL     1       1.102  12.253  19.841  0.00  0.00    +0.000 A 
ATOM     13  C   UNL     1       0.700  11.100  20.559  0.00  0.00    +0.000 A 
ENDBRANCH   1  13
BRANCH   1  14
ATOM     14  O   UNL     1      -0.323   9.204  19.532  0.00  0.00    +0.000 OA
ATOM     15  H   UNL     1      -0.886   9.980  19.362  0.00  0.00    +0.000 HD
ENDBRANCH   1  14
BRANCH   4  16
ATOM     16  C   UNL     1       2.563   6.028  18.196  0.00  0.00    +0.000 C 
BRANCH  16  17
ATOM     17  C   UNL     1       3.922   5.815  17.479  0.00  0.00    +0.000 A 
ATOM     18  C   UNL     1       4.237   4.590  16.849  0.00  0.00    +0.000 A 
ATOM     19  C   UNL     1       5.454   4.392  16.200  0.00  0.00    +0.000 A 
ATOM     20  C   UNL     1       6.395   5.415  16.178  0.00  0.00    +0.000 A 
ATOM     21  C   UNL     1       6.115   6.630  16.800  0.00  0.00    +0.000 A 
ATOM     22  C   UNL     1       4.889   6.832  17.444  0.00  0.00    +0.000 A 
ENDBRANCH  16  17
BRANCH  16  23
ATOM     23  C   UNL     1       2.204   4.834  19.125  0.00  0.00    +0.000 A 
ATOM     24  C   UNL     1       1.229   3.880  18.778  0.00  0.00    +0.000 A 
ATOM     25  C   UNL     1       0.751   2.964  19.716  0.00  0.00    +0.000 A 
ATOM     26  C   UNL     1       1.287   2.937  20.999  0.00  0.00    +0.000 A 
ATOM     27  C   UNL     1       2.338   3.788  21.327  0.00  0.00    +0.000 A 
ATOM     28  C   UNL     1       2.808   4.712  20.392  0.00  0.00    +0.000 A 
ENDBRANCH  16  23
ENDBRANCH   4  16
TORSDOF 5
ENDMDL
MODEL 4
REMARK VINA RESULT:      -8.2      3.115      8.203
REMARK  Name = 
REMARK  6 active torsions:
REMARK  status: ('A' for Active; 'I' for Inactive)
REMARK    1  A    between atoms: C_1  and  C_2
REMARK    2  A    between atoms: C_7  and  C_8
REMARK    3  A    between atoms: C_8  and  O_9
REMARK    4  A    between atoms: N_12  and  C_13
REMARK    5  A    between atoms: C_13  and  C_14
REMARK    6  A    between atoms: C_13  and  C_20
REMARK                            x       y       z     vdW  Elec       q    Type
REMARK                         _______ _______ _______ _____ _____    ______ ____
ROOT
ATOM      1  C   UNL     1       0.634   9.801  20.305  0.00  0.00    +0.000 C 
ATOM      2  C   UNL     1       1.522  10.043  19.069  0.00  0.00    +0.000 C 
ATOM      3  C   UNL     1       1.748   8.753  18.300  0.00  0.00    +0.000 C 
ATOM      4  N   UNL     1       2.428   7.740  19.112  0.00  0.00    +0.000 NA
ATOM      5  C   UNL     1       1.722   7.494  20.381  0.00  0.00    +0.000 C 
ATOM      6  C   UNL     1       1.384   8.780  21.179  0.00  0.00    +0.000 C 
ENDROOT
BRANCH   1  13
ATOM      7  C   UNL     1      -0.657   9.951  23.124  0.00  0.00    +0.000 C 
ATOM      8  C   UNL     1      -0.487  11.153  22.230  0.00  0.00    +0.000 A 
ATOM      9  C   UNL     1      -1.071  12.361  22.673  0.00  0.00    +0.000 A 
ATOM     10  C   UNL     1      -0.987  13.530  21.923  0.00  0.00    +0.000 A 
ATOM     11  C   UNL     1      -0.279  13.526  20.736  0.00  0.00    +0.000 A 
ATOM     12  C   UNL     1       0.317  12.345  20.287  0.00  0.00    +0.000 A 
ATOM     13  C   UNL     1       0.197  11.119  20.986  0.00  0.00    +0.000 A 
ENDBRANCH   1  13
BRANCH   1  14
ATOM     14  O   UNL     1      -0.569   9.180  19.823  0.00  0.00    +0.000 OA
ATOM     15  H   UNL     1      -1.318   9.659  20.220  0.00  0.00    +0.000 HD
ENDBRANCH   1  14
BRANCH   4  16
ATOM     16  C   UNL     1       2.708   6.491  18.329  0.00  0.00    +0.000 C 
BRANCH  16  17
ATOM     17  C   UNL     1       4.220   6.222  18.111  0.00  0.00    +0.000 A 
ATOM     18  C   UNL     1       4.902   6.730  16.982  0.00  0.00    +0.000 A 
ATOM     19  C   UNL     1       6.261   6.495  16.781  0.00  0.00    +0.000 A 
ATOM     20  C   UNL     1       6.970   5.731  17.702  0.00  0.00    +0.000 A 
ATOM     21  C   UNL     1       6.320   5.210  18.819  0.00  0.00    +0.000 A 
ATOM     22  C   UNL     1       4.957   5.453  19.026  0.00  0.00    +0.000 A 
ENDBRANCH  16  17
BRANCH  16  23
ATOM     23  C   UNL     1       1.975   5.249  18.911  0.00  0.00    +0.000 A 
ATOM     24  C   UNL     1       1.819   5.051  20.296  0.00  0.00    +0.000 A 
ATOM     25  C   UNL     1       1.378   3.828  20.803  0.00  0.00    +0.000 A 
ATOM     26  C   UNL     1       1.019   2.802  19.935  0.00  0.00    +0.000 A 
ATOM     27  C   UNL     1       1.047   3.019  18.561  0.00  0.00    +0.000 A 
ATOM     28  C   UNL     1       1.499   4.238  18.053  0.00  0.00    +0.000 A 
ENDBRANCH  16  23
ENDBRANCH   4  16
TORSDOF 5
ENDMDL
MODEL 5
REMARK VINA RESULT:      -8.2      2.421      7.511
REMARK  Name = 
REMARK  6 active torsions:
REMARK  status: ('A' for Active; 'I' for Inactive)
REMARK    1  A    between atoms: C_1  and  C_2
REMARK    2  A    between atoms: C_7  and  C_8
REMARK    3  A    between atoms: C_8  and  O_9
REMARK    4  A    between atoms: N_12  and  C_13
REMARK    5  A    between atoms: C_13  and  C_14
REMARK    6  A    between atoms: C_13  and  C_20
REMARK                            x       y       z     vdW  Elec       q    Type
REMARK                         _______ _______ _______ _____ _____    ______ ____
ROOT
ATOM      1  C   UNL     1       1.350   9.622  18.984  0.00  0.00    +0.000 C 
ATOM      2  C   UNL     1       2.529   9.459  18.005  0.00  0.00    +0.000 C 
ATOM      3  C   UNL     1       2.611   8.033  17.486  0.00  0.00    +0.000 C 
ATOM      4  N   UNL     1       2.824   7.065  18.565  0.00  0.00    +0.000 NA
ATOM      5  C   UNL     1       1.809   7.194  19.623  0.00  0.00    +0.000 C 
ATOM      6  C   UNL     1       1.613   8.643  20.141  0.00  0.00    +0.000 C 
ENDROOT
BRANCH   1  13
ATOM      7  C   UNL     1      -0.566  10.529  21.253  0.00  0.00    +0.000 C 
ATOM      8  C   UNL     1       0.136  11.494  20.331  0.00  0.00    +0.000 A 
ATOM      9  C   UNL     1      -0.218  12.856  20.450  0.00  0.00    +0.000 A 
ATOM     10  C   UNL     1       0.357  13.833  19.643  0.00  0.00    +0.000 A 
ATOM     11  C   UNL     1       1.332  13.473  18.731  0.00  0.00    +0.000 A 
ATOM     12  C   UNL     1       1.706  12.134  18.608  0.00  0.00    +0.000 A 
ATOM     13  C   UNL     1       1.096  11.100  19.361  0.00  0.00    +0.000 A 
ENDBRANCH   1  13
BRANCH   1  14
ATOM     14  O   UNL     1       0.177   9.180  18.281  0.00  0.00    +0.000 OA
ATOM     15  H   UNL     1       0.458   8.479  17.668  0.00  0.00    +0.000 HD
ENDBRANCH   1  14
BRANCH   4  16
ATOM     16  C   UNL     1       2.971   5.667  18.040  0.00  0.00    +0.000 C 
BRANCH  16  17
ATOM     17  C   UNL     1       4.407   5.332  17.560  0.00  0.00    +0.000 A 
ATOM     18  C   UNL     1       5.539   5.938  18.149  0.00  0.00    +0.000 A 
ATOM     19  C   UNL     1       6.833   5.640  17.725  0.00  0.00    +0.000 A 
ATOM     20  C   UNL     1       7.024   4.733  16.688  0.00  0.00    +0.000 A 
ATOM     21  C   UNL     1       5.925   4.129  16.082  0.00  0.00    +0.000 A 
ATOM     22  C   UNL     1       4.626   4.422  16.514  0.00  0.00    +0.000 A 
ENDBRANCH  16  17
BRANCH  16  23
ATOM     23  C   UNL     1       2.427   4.601  19.034  0.00  0.00    +0.000 A 
ATOM     24  C   UNL     1       1.365   3.740  18.703  0.00  0.00    +0.000 A 
ATOM     25  C   UNL     1       0.737   2.964  19.679  0.00  0.00    +0.000 A 
ATOM     26  C   UNL     1       1.202   2.981  20.989  0.00  0.00    +0.000 A 
ATOM     27  C   UNL     1       2.330   3.729  21.313  0.00  0.00    +0.000 A 
ATOM     28  C   UNL     1       2.951   4.515  20.339  0.00  0.00    +0.000 A 
ENDBRANCH  16  23
ENDBRANCH   4  16
TORSDOF 5
ENDMDL
MODEL 6
REMARK VINA RESULT:      -8.1      2.553      7.800
REMARK  Name = 
REMARK  6 active torsions:
REMARK  status: ('A' for Active; 'I' for Inactive)
REMARK    1  A    between atoms: C_1  and  C_2
REMARK    2  A    between atoms: C_7  and  C_8
REMARK    3  A    between atoms: C_8  and  O_9
REMARK    4  A    between atoms: N_12  and  C_13
REMARK    5  A    between atoms: C_13  and  C_14
REMARK    6  A    between atoms: C_13  and  C_20
REMARK                            x       y       z     vdW  Elec       q    Type
REMARK                         _______ _______ _______ _____ _____    ______ ____
ROOT
ATOM      1  C   UNL     1       1.001   9.833  19.672  0.00  0.00    +0.000 C 
ATOM      2  C   UNL     1       1.886   9.755  18.412  0.00  0.00    +0.000 C 
ATOM      3  C   UNL     1       1.903   8.346  17.845  0.00  0.00    +0.000 C 
ATOM      4  N   UNL     1       2.446   7.375  18.799  0.00  0.00    +0.000 NA
ATOM      5  C   UNL     1       1.742   7.426  20.091  0.00  0.00    +0.000 C 
ATOM      6  C   UNL     1       1.613   8.852  20.687  0.00  0.00    +0.000 C 
ENDROOT
BRANCH   1  13
ATOM      7  C   UNL     1      -0.441  10.589  22.315  0.00  0.00    +0.000 C 
ATOM      8  C   UNL     1       0.023  11.610  21.307  0.00  0.00    +0.000 A 
ATOM      9  C   UNL     1      -0.347  12.952  21.547  0.00  0.00    +0.000 A 
ATOM     10  C   UNL     1       0.016  13.976  20.677  0.00  0.00    +0.000 A 
ATOM     11  C   UNL     1       0.796  13.685  19.574  0.00  0.00    +0.000 A 
ATOM     12  C   UNL     1       1.184  12.367  19.326  0.00  0.00    +0.000 A 
ATOM     13  C   UNL     1       0.778  11.287  20.148  0.00  0.00    +0.000 A 
ENDBRANCH   1  13
BRANCH   1  14
ATOM     14  O   UNL     1      -0.291   9.333  19.289  0.00  0.00    +0.000 OA
ATOM     15  H   UNL     1      -0.485   9.688  18.404  0.00  0.00    +0.000 HD
ENDBRANCH   1  14
BRANCH   4  16
ATOM     16  C   UNL     1       2.522   5.997  18.211  0.00  0.00    +0.000 C 
BRANCH  16  17
ATOM     17  C   UNL     1       3.890   5.678  17.552  0.00  0.00    +0.000 A 
ATOM     18  C   UNL     1       4.908   6.655  17.463  0.00  0.00    +0.000 A 
ATOM     19  C   UNL     1       6.140   6.375  16.875  0.00  0.00    +0.000 A 
ATOM     20  C   UNL     1       6.379   5.110  16.349  0.00  0.00    +0.000 A 
ATOM     21  C   UNL     1       5.390   4.132  16.414  0.00  0.00    +0.000 A 
ATOM     22  C   UNL     1       4.155   4.410  17.012  0.00  0.00    +0.000 A 
ENDBRANCH  16  17
BRANCH  16  23
ATOM     23  C   UNL     1       2.096   4.896  19.224  0.00  0.00    +0.000 A 
ATOM     24  C   UNL     1       2.723   4.743  20.474  0.00  0.00    +0.000 A 
ATOM     25  C   UNL     1       2.495   3.613  21.261  0.00  0.00    +0.000 A 
ATOM     26  C   UNL     1       1.583   2.648  20.846  0.00  0.00    +0.000 A 
ATOM     27  C   UNL     1       0.859   2.840  19.674  0.00  0.00    +0.000 A 
ATOM     28  C   UNL     1       1.096   3.964  18.881  0.00  0.00    +0.000 A 
ENDBRANCH  16  23
ENDBRANCH   4  16
TORSDOF 5
ENDMDL
MODEL 7
REMARK VINA RESULT:      -8.0      2.495      7.526
REMARK  Name = 
REMARK  6 active torsions:
REMARK  status: ('A' for Active; 'I' for Inactive)
REMARK    1  A    between atoms: C_1  and  C_2
REMARK    2  A    between atoms: C_7  and  C_8
REMARK    3  A    between atoms: C_8  and  O_9
REMARK    4  A    between atoms: N_12  and  C_13
REMARK    5  A    between atoms: C_13  and  C_14
REMARK    6  A    between atoms: C_13  and  C_20
REMARK                            x       y       z     vdW  Elec       q    Type
REMARK                         _______ _______ _______ _____ _____    ______ ____
ROOT
ATOM      1  C   UNL     1       1.272   9.942  18.543  0.00  0.00    +0.000 C 
ATOM      2  C   UNL     1       2.655   9.751  17.888  0.00  0.00    +0.000 C 
ATOM      3  C   UNL     1       2.840   8.320  17.416  0.00  0.00    +0.000 C 
ATOM      4  N   UNL     1       2.764   7.360  18.521  0.00  0.00    +0.000 NA
ATOM      5  C   UNL     1       1.521   7.515  19.293  0.00  0.00    +0.000 C 
ATOM      6  C   UNL     1       1.225   8.972  19.737  0.00  0.00    +0.000 C 
ENDROOT
BRANCH   1  13
ATOM      7  C   UNL     1      -1.535  10.990  19.353  0.00  0.00    +0.000 C 
ATOM      8  C   UNL     1      -0.358  11.898  19.100  0.00  0.00    +0.000 A 
ATOM      9  C   UNL     1      -0.613  13.286  19.113  0.00  0.00    +0.000 A 
ATOM     10  C   UNL     1       0.397  14.216  18.880  0.00  0.00    +0.000 A 
ATOM     11  C   UNL     1       1.691  13.776  18.674  0.00  0.00    +0.000 A 
ATOM     12  C   UNL     1       1.966  12.407  18.670  0.00  0.00    +0.000 A 
ATOM     13  C   UNL     1       0.956  11.427  18.835  0.00  0.00    +0.000 A 
ENDBRANCH   1  13
BRANCH   1  14
ATOM     14  O   UNL     1       0.303   9.508  17.575  0.00  0.00    +0.000 OA
ATOM     15  H   UNL     1       0.675   8.729  17.126  0.00  0.00    +0.000 HD
ENDBRANCH   1  14
BRANCH   4  16
ATOM     16  C   UNL     1       3.014   5.955  18.060  0.00  0.00    +0.000 C 
BRANCH  16  17
ATOM     17  C   UNL     1       4.498   5.672  17.707  0.00  0.00    +0.000 A 
ATOM     18  C   UNL     1       4.903   5.432  16.374  0.00  0.00    +0.000 A 
ATOM     19  C   UNL     1       6.235   5.181  16.049  0.00  0.00    +0.000 A 
ATOM     20  C   UNL     1       7.194   5.149  17.055  0.00  0.00    +0.000 A 
ATOM     21  C   UNL     1       6.820   5.372  18.379  0.00  0.00    +0.000 A 
ATOM     22  C   UNL     1       5.484   5.633  18.705  0.00  0.00    +0.000 A 
ENDBRANCH  16  17
BRANCH  16  23
ATOM     23  C   UNL     1       2.440   4.897  19.044  0.00  0.00    +0.000 A 
ATOM     24  C   UNL     1       1.489   3.940  18.646  0.00  0.00    +0.000 A 
ATOM     25  C   UNL     1       0.811   3.162  19.587  0.00  0.00    +0.000 A 
ATOM     26  C   UNL     1       1.120   3.277  20.938  0.00  0.00    +0.000 A 
ATOM     27  C   UNL     1       2.144   4.128  21.343  0.00  0.00    +0.000 A 
ATOM     28  C   UNL     1       2.814   4.914  20.403  0.00  0.00    +0.000 A 
ENDBRANCH  16  23
ENDBRANCH   4  16
TORSDOF 5
ENDMDL
MODEL 8
REMARK VINA RESULT:      -7.8      2.830      7.745
REMARK  Name = 
REMARK  6 active torsions:
REMARK  status: ('A' for Active; 'I' for Inactive)
REMARK    1  A    between atoms: C_1  and  C_2
REMARK    2  A    between atoms: C_7  and  C_8
REMARK    3  A    between atoms: C_8  and  O_9
REMARK    4  A    between atoms: N_12  and  C_13
REMARK    5  A    between atoms: C_13  and  C_14
REMARK    6  A    between atoms: C_13  and  C_20
REMARK                            x       y       z     vdW  Elec       q    Type
REMARK                         _______ _______ _______ _____ _____    ______ ____
ROOT
ATOM      1  C   UNL     1       0.786  10.031  19.342  0.00  0.00    +0.000 C 
ATOM      2  C   UNL     1       1.878  10.003  18.254  0.00  0.00    +0.000 C 
ATOM      3  C   UNL     1       2.089   8.593  17.731  0.00  0.00    +0.000 C 
ATOM      4  N   UNL     1       2.523   7.673  18.785  0.00  0.00    +0.000 NA
ATOM      5  C   UNL     1       1.604   7.688  19.935  0.00  0.00    +0.000 C 
ATOM      6  C   UNL     1       1.279   9.108  20.469  0.00  0.00    +0.000 C 
ENDROOT
BRANCH   1  13
ATOM      7  C   UNL     1      -1.425  11.674  17.910  0.00  0.00    +0.000 C 
ATOM      8  C   UNL     1      -0.554  12.241  19.004  0.00  0.00    +0.000 A 
ATOM      9  C   UNL     1      -0.690  13.620  19.273  0.00  0.00    +0.000 A 
ATOM     10  C   UNL     1       0.071  14.252  20.252  0.00  0.00    +0.000 A 
ATOM     11  C   UNL     1       0.951  13.506  21.013  0.00  0.00    +0.000 A 
ATOM     12  C   UNL     1       1.091  12.138  20.772  0.00  0.00    +0.000 A 
ATOM     13  C   UNL     1       0.386  11.471  19.740  0.00  0.00    +0.000 A 
ENDBRANCH   1  13
BRANCH   1  14
ATOM     14  O   UNL     1      -0.383   9.437  18.754  0.00  0.00    +0.000 OA
ATOM     15  H   UNL     1      -1.153   9.933  19.084  0.00  0.00    +0.000 HD
ENDBRANCH   1  14
BRANCH   4  16
ATOM     16  C   UNL     1       2.793   6.297  18.251  0.00  0.00    +0.000 C 
BRANCH  16  17
ATOM     17  C   UNL     1       4.295   6.023  17.974  0.00  0.00    +0.000 A 
ATOM     18  C   UNL     1       5.150   5.528  18.985  0.00  0.00    +0.000 A 
ATOM     19  C   UNL     1       6.499   5.276  18.743  0.00  0.00    +0.000 A 
ATOM     20  C   UNL     1       7.030   5.527  17.483  0.00  0.00    +0.000 A 
ATOM     21  C   UNL     1       6.211   6.024  16.471  0.00  0.00    +0.000 A 
ATOM     22  C   UNL     1       4.854   6.269  16.711  0.00  0.00    +0.000 A 
ENDBRANCH  16  17
BRANCH  16  23
ATOM     23  C   UNL     1       2.151   5.184  19.127  0.00  0.00    +0.000 A 
ATOM     24  C   UNL     1       2.338   5.126  20.521  0.00  0.00    +0.000 A 
ATOM     25  C   UNL     1       1.960   3.998  21.251  0.00  0.00    +0.000 A 
ATOM     26  C   UNL     1       1.327   2.936  20.615  0.00  0.00    +0.000 A 
ATOM     27  C   UNL     1       1.020   3.025  19.261  0.00  0.00    +0.000 A 
ATOM     28  C   UNL     1       1.408   4.148  18.528  0.00  0.00    +0.000 A 
ENDBRANCH  16  23
ENDBRANCH   4  16
TORSDOF 5
ENDMDL
MODEL 9
REMARK VINA RESULT:      -7.8      2.615      7.763
REMARK  Name = 
REMARK  6 active torsions:
REMARK  status: ('A' for Active; 'I' for Inactive)
REMARK    1  A    between atoms: C_1  and  C_2
REMARK    2  A    between atoms: C_7  and  C_8
REMARK    3  A    between atoms: C_8  and  O_9
REMARK    4  A    between atoms: N_12  and  C_13
REMARK    5  A    between atoms: C_13  and  C_14
REMARK    6  A    between atoms: C_13  and  C_20
REMARK                            x       y       z     vdW  Elec       q    Type
REMARK                         _______ _______ _______ _____ _____    ______ ____
ROOT
ATOM      1  C   UNL     1       0.842   9.890  19.304  0.00  0.00    +0.000 C 
ATOM      2  C   UNL     1       1.862   9.870  18.149  0.00  0.00    +0.000 C 
ATOM      3  C   UNL     1       2.038   8.464  17.603  0.00  0.00    +0.000 C 
ATOM      4  N   UNL     1       2.539   7.536  18.621  0.00  0.00    +0.000 NA
ATOM      5  C   UNL     1       1.696   7.542  19.828  0.00  0.00    +0.000 C 
ATOM      6  C   UNL     1       1.406   8.958  20.391  0.00  0.00    +0.000 C 
ENDROOT
BRANCH   1  13
ATOM      7  C   UNL     1      -1.400  11.574  17.972  0.00  0.00    +0.000 C 
ATOM      8  C   UNL     1      -0.489  12.115  19.045  0.00  0.00    +0.000 A 
ATOM      9  C   UNL     1      -0.604  13.492  19.340  0.00  0.00    +0.000 A 
ATOM     10  C   UNL     1       0.195  14.101  20.303  0.00  0.00    +0.000 A 
ATOM     11  C   UNL     1       1.092  13.336  21.024  0.00  0.00    +0.000 A 
ATOM     12  C   UNL     1       1.212  11.970  20.757  0.00  0.00    +0.000 A 
ATOM     13  C   UNL     1       0.467  11.326  19.738  0.00  0.00    +0.000 A 
ENDBRANCH   1  13
BRANCH   1  14
ATOM     14  O   UNL     1      -0.363   9.299  18.789  0.00  0.00    +0.000 OA
ATOM     15  H   UNL     1      -1.079   9.521  19.409  0.00  0.00    +0.000 HD
ENDBRANCH   1  14
BRANCH   4  16
ATOM     16  C   UNL     1       2.775   6.164  18.060  0.00  0.00    +0.000 C 
BRANCH  16  17
ATOM     17  C   UNL     1       4.221   5.945  17.545  0.00  0.00    +0.000 A 
ATOM     18  C   UNL     1       5.186   6.977  17.599  0.00  0.00    +0.000 A 
ATOM     19  C   UNL     1       6.488   6.786  17.141  0.00  0.00    +0.000 A 
ATOM     20  C   UNL     1       6.854   5.557  16.603  0.00  0.00    +0.000 A 
ATOM     21  C   UNL     1       5.920   4.526  16.528  0.00  0.00    +0.000 A 
ATOM     22  C   UNL     1       4.615   4.714  16.996  0.00  0.00    +0.000 A 
ENDBRANCH  16  17
BRANCH  16  23
ATOM     23  C   UNL     1       2.330   5.040  19.038  0.00  0.00    +0.000 A 
ATOM     24  C   UNL     1       1.343   4.097  18.697  0.00  0.00    +0.000 A 
ATOM     25  C   UNL     1       0.789   3.253  19.662  0.00  0.00    +0.000 A 
ATOM     26  C   UNL     1       1.258   3.288  20.970  0.00  0.00    +0.000 A 
ATOM     27  C   UNL     1       2.319   4.126  21.302  0.00  0.00    +0.000 A 
ATOM     28  C   UNL     1       2.866   4.977  20.340  0.00  0.00    +0.000 A 
ENDBRANCH  16  23
ENDBRANCH   4  16
TORSDOF 5
ENDMDL
