MODEL 1
REMARK VINA RESULT:      -2.9      0.000      0.000
REMARK  Name = 
REMARK  2 active torsions:
REMARK  status: ('A' for Active; 'I' for Inactive)
REMARK    1  A    between atoms: C_1  and  O_2
REMARK    2  A    between atoms: O_2  and  N_3
REMARK                            x       y       z     vdW  Elec       q    Type
REMARK                         _______ _______ _______ _____ _____    ______ ____
ROOT
ATOM      1  N   UNL     1       6.451   3.762  27.612  0.00  0.00    +0.000 NA
ATOM      2  H   UNL     1       6.662   3.965  28.615  0.00  0.00    +0.000 HD
ATOM      3  H   UNL     1       5.985   2.829  27.561  0.00  0.00    +0.000 HD
ENDROOT
BRANCH   1   5
ATOM      4  C   UNL     1       8.516   4.537  27.620  0.00  0.00    +0.000 C 
ATOM      5  O   UNL     1       7.638   3.665  26.960  0.00  0.00    +0.000 OA
ENDBRANCH   1   5
TORSDOF 1
ENDMDL
MODEL 2
REMARK VINA RESULT:      -2.7      1.599      1.599
REMARK  Name = 
REMARK  2 active torsions:
REMARK  status: ('A' for Active; 'I' for Inactive)
REMARK    1  A    between atoms: C_1  and  O_2
REMARK    2  A    between atoms: O_2  and  N_3
REMARK                            x       y       z     vdW  Elec       q    Type
REMARK                         _______ _______ _______ _____ _____    ______ ____
ROOT
ATOM      1  N   UNL     1       7.739   3.813  26.670  0.00  0.00    +0.000 NA
ATOM      2  H   UNL     1       8.017   2.820  26.501  0.00  0.00    +0.000 HD
ATOM      3  H   UNL     1       8.559   4.313  27.080  0.00  0.00    +0.000 HD
ENDROOT
BRANCH   1   5
ATOM      4  C   UNL     1       6.690   5.110  28.113  0.00  0.00    +0.000 C 
ATOM      5  O   UNL     1       6.752   3.805  27.602  0.00  0.00    +0.000 OA
ENDBRANCH   1   5
TORSDOF 1
ENDMDL
MODEL 3
REMARK VINA RESULT:      -2.6      1.350      1.350
REMARK  Name = 
REMARK  2 active torsions:
REMARK  status: ('A' for Active; 'I' for Inactive)
REMARK    1  A    between atoms: C_1  and  O_2
REMARK    2  A    between atoms: O_2  and  N_3
REMARK                            x       y       z     vdW  Elec       q    Type
REMARK                         _______ _______ _______ _____ _____    ______ ____
ROOT
ATOM      1  N   UNL     1       7.636   3.849  26.792  0.00  0.00    +0.000 NA
ATOM      2  H   UNL     1       7.113   3.149  27.365  0.00  0.00    +0.000 HD
ATOM      3  H   UNL     1       8.317   3.332  26.192  0.00  0.00    +0.000 HD
ENDROOT
BRANCH   1   5
ATOM      4  C   UNL     1       9.683   4.200  27.536  0.00  0.00    +0.000 C 
ATOM      5  O   UNL     1       8.350   4.622  27.651  0.00  0.00    +0.000 OA
ENDBRANCH   1   5
TORSDOF 1
ENDMDL
MODEL 4
REMARK VINA RESULT:      -2.6      1.007      1.007
REMARK  Name = 
REMARK  2 active torsions:
REMARK  status: ('A' for Active; 'I' for Inactive)
REMARK    1  A    between atoms: C_1  and  O_2
REMARK    2  A    between atoms: O_2  and  N_3
REMARK                            x       y       z     vdW  Elec       q    Type
REMARK                         _______ _______ _______ _____ _____    ______ ____
ROOT
ATOM      1  N   UNL     1       5.599   4.129  28.108  0.00  0.00    +0.000 NA
ATOM      2  H   UNL     1       5.868   4.512  29.043  0.00  0.00    +0.000 HD
ATOM      3  H   UNL     1       4.952   3.323  28.262  0.00  0.00    +0.000 HD
ENDROOT
BRANCH   1   5
ATOM      4  C   UNL     1       7.651   4.701  27.534  0.00  0.00    +0.000 C 
ATOM      5  O   UNL     1       6.728   3.645  27.529  0.00  0.00    +0.000 OA
ENDBRANCH   1   5
TORSDOF 1
ENDMDL
MODEL 5
REMARK VINA RESULT:      -2.6      7.748      7.748
REMARK  Name = 
REMARK  2 active torsions:
REMARK  status: ('A' for Active; 'I' for Inactive)
REMARK    1  A    between atoms: C_1  and  O_2
REMARK    2  A    between atoms: O_2  and  N_3
REMARK                            x       y       z     vdW  Elec       q    Type
REMARK                         _______ _______ _______ _____ _____    ______ ____
ROOT
ATOM      1  N   UNL     1       8.272   5.226  20.909  0.00  0.00    +0.000 NA
ATOM      2  H   UNL     1       7.979   5.634  21.825  0.00  0.00    +0.000 HD
ATOM      3  H   UNL     1       9.079   5.782  20.549  0.00  0.00    +0.000 HD
ENDROOT
BRANCH   1   5
ATOM      4  C   UNL     1       7.785   5.994  18.899  0.00  0.00    +0.000 C 
ATOM      5  O   UNL     1       7.239   5.392  20.043  0.00  0.00    +0.000 OA
ENDBRANCH   1   5
TORSDOF 1
ENDMDL
MODEL 6
REMARK VINA RESULT:      -2.5      6.646      6.646
REMARK  Name = 
REMARK  2 active torsions:
REMARK  status: ('A' for Active; 'I' for Inactive)
REMARK    1  A    between atoms: C_1  and  O_2
REMARK    2  A    between atoms: O_2  and  N_3
REMARK                            x       y       z     vdW  Elec       q    Type
REMARK                         _______ _______ _______ _____ _____    ______ ____
ROOT
ATOM      1  N   UNL     1       5.613   1.159  21.597  0.00  0.00    +0.000 NA
ATOM      2  H   UNL     1       5.856   0.767  20.659  0.00  0.00    +0.000 HD
ATOM      3  H   UNL     1       5.697   2.199  21.544  0.00  0.00    +0.000 HD
ENDROOT
BRANCH   1   5
ATOM      4  C   UNL     1       6.579  -0.680  22.338  0.00  0.00    +0.000 C 
ATOM      5  O   UNL     1       6.548   0.716  22.476  0.00  0.00    +0.000 OA
ENDBRANCH   1   5
TORSDOF 1
ENDMDL
MODEL 7
REMARK VINA RESULT:      -2.4      1.477      1.477
REMARK  Name = 
REMARK  2 active torsions:
REMARK  status: ('A' for Active; 'I' for Inactive)
REMARK    1  A    between atoms: C_1  and  O_2
REMARK    2  A    between atoms: O_2  and  N_3
REMARK                            x       y       z     vdW  Elec       q    Type
REMARK                         _______ _______ _______ _____ _____    ______ ____
ROOT
ATOM      1  N   UNL     1       7.606   3.842  26.797  0.00  0.00    +0.000 NA
ATOM      2  H   UNL     1       6.882   3.329  27.348  0.00  0.00    +0.000 HD
ATOM      3  H   UNL     1       8.278   3.141  26.413  0.00  0.00    +0.000 HD
ENDROOT
BRANCH   1   5
ATOM      4  C   UNL     1       7.331   5.455  28.277  0.00  0.00    +0.000 C 
ATOM      5  O   UNL     1       8.289   4.634  27.664  0.00  0.00    +0.000 OA
ENDBRANCH   1   5
TORSDOF 1
ENDMDL
MODEL 8
REMARK VINA RESULT:      -2.3     21.185     21.185
REMARK  Name = 
REMARK  2 active torsions:
REMARK  status: ('A' for Active; 'I' for Inactive)
REMARK    1  A    between atoms: C_1  and  O_2
REMARK    2  A    between atoms: O_2  and  N_3
REMARK                            x       y       z     vdW  Elec       q    Type
REMARK                         _______ _______ _______ _____ _____    ______ ____
ROOT
ATOM      1  N   UNL     1      -3.761   9.771  11.279  0.00  0.00    +0.000 NA
ATOM      2  H   UNL     1      -2.916   9.158  11.238  0.00  0.00    +0.000 HD
ATOM      3  H   UNL     1      -3.895  10.073  12.270  0.00  0.00    +0.000 HD
ENDROOT
BRANCH   1   5
ATOM      4  C   UNL     1      -5.960   9.681  11.424  0.00  0.00    +0.000 C 
ATOM      5  O   UNL     1      -4.831   9.010  10.933  0.00  0.00    +0.000 OA
ENDBRANCH   1   5
TORSDOF 1
ENDMDL
MODEL 9
REMARK VINA RESULT:      -2.3      8.034      8.034
REMARK  Name = 
REMARK  2 active torsions:
REMARK  status: ('A' for Active; 'I' for Inactive)
REMARK    1  A    between atoms: C_1  and  O_2
REMARK    2  A    between atoms: O_2  and  N_3
REMARK                            x       y       z     vdW  Elec       q    Type
REMARK                         _______ _______ _______ _____ _____    ______ ____
ROOT
ATOM      1  N   UNL     1       8.177   5.402  20.570  0.00  0.00    +0.000 NA
ATOM      2  H   UNL     1       7.295   5.710  21.038  0.00  0.00    +0.000 HD
ATOM      3  H   UNL     1       8.855   6.195  20.603  0.00  0.00    +0.000 HD
ENDROOT
BRANCH   1   5
ATOM      4  C   UNL     1       6.507   5.401  19.129  0.00  0.00    +0.000 C 
ATOM      5  O   UNL     1       7.883   5.166  19.266  0.00  0.00    +0.000 OA
ENDBRANCH   1   5
TORSDOF 1
ENDMDL
