MODEL 1
REMARK VINA RESULT:      -7.3      0.000      0.000
REMARK  Name = 
REMARK  11 active torsions:
REMARK  status: ('A' for Active; 'I' for Inactive)
REMARK    1  A    between atoms: C_1  and  O_2
REMARK    2  A    between atoms: O_2  and  C_3
REMARK    3  A    between atoms: C_7  and  N_8
REMARK    4  A    between atoms: C_9  and  C_11
REMARK    5  A    between atoms: C_11  and  C_12
REMARK    6  A    between atoms: C_11  and  N_16
REMARK    7  A    between atoms: C_12  and  C_13
REMARK    8  A    between atoms: C_13  and  S_14
REMARK    9  A    between atoms: S_14  and  C_15
REMARK   10  A    between atoms: C_17  and  C_19
REMARK   11  A    between atoms: C_22  and  C_23
REMARK                            x       y       z     vdW  Elec       q    Type
REMARK                         _______ _______ _______ _____ _____    ______ ____
ROOT
ATOM      1  C   UNL     1       3.373   4.595  20.310  0.00  0.00    +0.000 C 
ENDROOT
BRANCH   1   3
ATOM      2  N   UNL     1       2.650   6.905  19.853  0.00  0.00    +0.000 N 
ATOM      3  C   UNL     1       2.254   5.661  20.317  0.00  0.00    +0.000 C 
ATOM      4  O   UNL     1       1.108   5.332  20.611  0.00  0.00    +0.000 OA
ATOM      5  H   UNL     1       3.608   6.991  19.519  0.00  0.00    +0.000 HD
BRANCH   2  10
ATOM      6  C   UNL     1       0.317   9.629  20.827  0.00  0.00    +0.000 A 
ATOM      7  C   UNL     1       0.205  10.344  19.637  0.00  0.00    +0.000 A 
ATOM      8  C   UNL     1       0.872   9.911  18.495  0.00  0.00    +0.000 A 
ATOM      9  C   UNL     1       1.671   8.768  18.554  0.00  0.00    +0.000 A 
ATOM     10  C   UNL     1       1.825   8.052  19.745  0.00  0.00    +0.000 A 
ATOM     11  C   UNL     1       1.134   8.493  20.886  0.00  0.00    +0.000 A 
BRANCH   6  13
ATOM     12  C   UNL     1      -0.098   9.615  23.156  0.00  0.00    +0.000 C 
ATOM     13  O   UNL     1      -0.388  10.158  21.877  0.00  0.00    +0.000 OA
ENDBRANCH   6  13
ENDBRANCH   2  10
ENDBRANCH   1   3
BRANCH   1  14
ATOM     14  N   UNL     1       3.982   4.622  18.974  0.00  0.00    +0.000 N 
ATOM     15  C   UNL     1       5.330   4.848  18.782  0.00  0.00    +0.000 C 
ATOM     16  O   UNL     1       6.104   4.972  19.732  0.00  0.00    +0.000 OA
ATOM     17  H   UNL     1       3.359   4.878  18.215  0.00  0.00    +0.000 HD
BRANCH  15  18
ATOM     18  C   UNL     1       5.743   5.017  17.311  0.00  0.00    +0.000 C 
ATOM     19  C   UNL     1       7.219   4.663  17.047  0.00  0.00    +0.000 C 
ATOM     20  C   UNL     1       7.621   4.952  15.589  0.00  0.00    +0.000 C 
ATOM     21  C   UNL     1       6.668   4.312  14.564  0.00  0.00    +0.000 C 
ATOM     22  C   UNL     1       6.998   4.765  13.140  0.00  0.00    +0.000 C 
ATOM     23  C   UNL     1       5.207   4.630  14.900  0.00  0.00    +0.000 C 
ATOM     24  C   UNL     1       4.878   4.210  16.332  0.00  0.00    +0.000 C 
ENDBRANCH  15  18
ENDBRANCH   1  14
BRANCH   1  25
ATOM     25  C   UNL     1       2.738   3.223  20.610  0.00  0.00    +0.000 C 
BRANCH  25  26
ATOM     26  C   UNL     1       3.380   2.107  19.793  0.00  0.00    +0.000 C 
BRANCH  26  27
ATOM     27  S   UNL     1       2.467   1.833  18.242  0.00  0.00    +0.000 S 
ATOM     28  C   UNL     1       0.838   2.393  18.797  0.00  0.00    +0.000 C 
ENDBRANCH  26  27
ENDBRANCH  25  26
ENDBRANCH   1  25
TORSDOF 8
ENDMDL
MODEL 2
REMARK VINA RESULT:      -7.1      1.351      2.132
REMARK  Name = 
REMARK  11 active torsions:
REMARK  status: ('A' for Active; 'I' for Inactive)
REMARK    1  A    between atoms: C_1  and  O_2
REMARK    2  A    between atoms: O_2  and  C_3
REMARK    3  A    between atoms: C_7  and  N_8
REMARK    4  A    between atoms: C_9  and  C_11
REMARK    5  A    between atoms: C_11  and  C_12
REMARK    6  A    between atoms: C_11  and  N_16
REMARK    7  A    between atoms: C_12  and  C_13
REMARK    8  A    between atoms: C_13  and  S_14
REMARK    9  A    between atoms: S_14  and  C_15
REMARK   10  A    between atoms: C_17  and  C_19
REMARK   11  A    between atoms: C_22  and  C_23
REMARK                            x       y       z     vdW  Elec       q    Type
REMARK                         _______ _______ _______ _____ _____    ______ ____
ROOT
ATOM      1  C   UNL     1       2.771   5.711  20.056  0.00  0.00    +0.000 C 
ENDROOT
BRANCH   1   3
ATOM      2  N   UNL     1       1.498   7.526  21.128  0.00  0.00    +0.000 N 
ATOM      3  C   UNL     1       2.130   7.114  19.966  0.00  0.00    +0.000 C 
ATOM      4  O   UNL     1       2.306   7.796  18.960  0.00  0.00    +0.000 OA
ATOM      5  H   UNL     1       1.547   6.900  21.929  0.00  0.00    +0.000 HD
BRANCH   2  10
ATOM      6  C   UNL     1       0.058  10.867  20.367  0.00  0.00    +0.000 A 
ATOM      7  C   UNL     1      -0.488  11.226  21.597  0.00  0.00    +0.000 A 
ATOM      8  C   UNL     1      -0.353  10.382  22.696  0.00  0.00    +0.000 A 
ATOM      9  C   UNL     1       0.313   9.164  22.553  0.00  0.00    +0.000 A 
ATOM     10  C   UNL     1       0.841   8.766  21.321  0.00  0.00    +0.000 A 
ATOM     11  C   UNL     1       0.710   9.636  20.224  0.00  0.00    +0.000 A 
BRANCH   6  13
ATOM     12  C   UNL     1      -0.945  12.905  19.704  0.00  0.00    +0.000 C 
ATOM     13  O   UNL     1      -0.143  11.783  19.367  0.00  0.00    +0.000 OA
ENDBRANCH   6  13
ENDBRANCH   2  10
ENDBRANCH   1   3
BRANCH   1  14
ATOM     14  N   UNL     1       3.448   5.466  18.775  0.00  0.00    +0.000 N 
ATOM     15  C   UNL     1       4.819   5.339  18.678  0.00  0.00    +0.000 C 
ATOM     16  O   UNL     1       5.540   5.360  19.675  0.00  0.00    +0.000 OA
ATOM     17  H   UNL     1       2.955   5.795  17.952  0.00  0.00    +0.000 HD
BRANCH  15  18
ATOM     18  C   UNL     1       5.349   5.267  17.236  0.00  0.00    +0.000 C 
ATOM     19  C   UNL     1       6.837   4.880  17.152  0.00  0.00    +0.000 C 
ATOM     20  C   UNL     1       7.356   4.927  15.704  0.00  0.00    +0.000 C 
ATOM     21  C   UNL     1       6.482   4.126  14.724  0.00  0.00    +0.000 C 
ATOM     22  C   UNL     1       6.928   4.340  13.276  0.00  0.00    +0.000 C 
ATOM     23  C   UNL     1       5.002   4.489  14.886  0.00  0.00    +0.000 C 
ATOM     24  C   UNL     1       4.556   4.308  16.336  0.00  0.00    +0.000 C 
ENDBRANCH  15  18
ENDBRANCH   1  14
BRANCH   1  25
ATOM     25  C   UNL     1       1.653   4.680  20.306  0.00  0.00    +0.000 C 
BRANCH  25  26
ATOM     26  C   UNL     1       2.208   3.272  20.491  0.00  0.00    +0.000 C 
BRANCH  26  27
ATOM     27  S   UNL     1       1.729   2.200  19.099  0.00  0.00    +0.000 S 
ATOM     28  C   UNL     1       3.386   1.674  18.595  0.00  0.00    +0.000 C 
ENDBRANCH  26  27
ENDBRANCH  25  26
ENDBRANCH   1  25
TORSDOF 8
ENDMDL
MODEL 3
REMARK VINA RESULT:      -7.1      1.339      1.802
REMARK  Name = 
REMARK  11 active torsions:
REMARK  status: ('A' for Active; 'I' for Inactive)
REMARK    1  A    between atoms: C_1  and  O_2
REMARK    2  A    between atoms: O_2  and  C_3
REMARK    3  A    between atoms: C_7  and  N_8
REMARK    4  A    between atoms: C_9  and  C_11
REMARK    5  A    between atoms: C_11  and  C_12
REMARK    6  A    between atoms: C_11  and  N_16
REMARK    7  A    between atoms: C_12  and  C_13
REMARK    8  A    between atoms: C_13  and  S_14
REMARK    9  A    between atoms: S_14  and  C_15
REMARK   10  A    between atoms: C_17  and  C_19
REMARK   11  A    between atoms: C_22  and  C_23
REMARK                            x       y       z     vdW  Elec       q    Type
REMARK                         _______ _______ _______ _____ _____    ______ ____
ROOT
ATOM      1  C   UNL     1       3.236   5.773  20.042  0.00  0.00    +0.000 C 
ENDROOT
BRANCH   1   3
ATOM      2  N   UNL     1       1.829   7.666  20.753  0.00  0.00    +0.000 N 
ATOM      3  C   UNL     1       2.442   7.047  19.675  0.00  0.00    +0.000 C 
ATOM      4  O   UNL     1       2.491   7.480  18.527  0.00  0.00    +0.000 OA
ATOM      5  H   UNL     1       1.988   7.258  21.672  0.00  0.00    +0.000 HD
BRANCH   2  10
ATOM      6  C   UNL     1      -0.375  10.445  21.862  0.00  0.00    +0.000 A 
ATOM      7  C   UNL     1      -0.472  11.209  20.701  0.00  0.00    +0.000 A 
ATOM      8  C   UNL     1       0.162  10.792  19.535  0.00  0.00    +0.000 A 
ATOM      9  C   UNL     1       0.913   9.616  19.539  0.00  0.00    +0.000 A 
ATOM     10  C   UNL     1       1.052   8.849  20.700  0.00  0.00    +0.000 A 
ATOM     11  C   UNL     1       0.395   9.275  21.866  0.00  0.00    +0.000 A 
BRANCH   6  13
ATOM     12  C   UNL     1      -1.224  12.371  22.943  0.00  0.00    +0.000 C 
ATOM     13  O   UNL     1      -1.043  10.963  22.941  0.00  0.00    +0.000 OA
ENDBRANCH   6  13
ENDBRANCH   2  10
ENDBRANCH   1   3
BRANCH   1  14
ATOM     14  N   UNL     1       3.865   5.289  18.806  0.00  0.00    +0.000 N 
ATOM     15  C   UNL     1       5.180   4.872  18.762  0.00  0.00    +0.000 C 
ATOM     16  O   UNL     1       5.874   4.822  19.778  0.00  0.00    +0.000 OA
ATOM     17  H   UNL     1       3.466   5.646  17.945  0.00  0.00    +0.000 HD
BRANCH  15  18
ATOM     18  C   UNL     1       5.705   4.573  17.348  0.00  0.00    +0.000 C 
ATOM     19  C   UNL     1       4.600   4.570  16.275  0.00  0.00    +0.000 C 
ATOM     20  C   UNL     1       5.147   4.159  14.897  0.00  0.00    +0.000 C 
ATOM     21  C   UNL     1       6.381   4.973  14.471  0.00  0.00    +0.000 C 
ATOM     22  C   UNL     1       6.996   4.418  13.184  0.00  0.00    +0.000 C 
ATOM     23  C   UNL     1       7.428   5.008  15.590  0.00  0.00    +0.000 C 
ATOM     24  C   UNL     1       6.813   5.531  16.888  0.00  0.00    +0.000 C 
ENDBRANCH  15  18
ENDBRANCH   1  14
BRANCH   1  25
ATOM     25  C   UNL     1       2.252   4.735  20.615  0.00  0.00    +0.000 C 
BRANCH  25  26
ATOM     26  C   UNL     1       1.478   4.015  19.515  0.00  0.00    +0.000 C 
BRANCH  26  27
ATOM     27  S   UNL     1       1.847   2.232  19.523  0.00  0.00    +0.000 S 
ATOM     28  C   UNL     1       2.399   2.074  17.806  0.00  0.00    +0.000 C 
ENDBRANCH  26  27
ENDBRANCH  25  26
ENDBRANCH   1  25
TORSDOF 8
ENDMDL
MODEL 4
REMARK VINA RESULT:      -6.9      4.587      7.268
REMARK  Name = 
REMARK  11 active torsions:
REMARK  status: ('A' for Active; 'I' for Inactive)
REMARK    1  A    between atoms: C_1  and  O_2
REMARK    2  A    between atoms: O_2  and  C_3
REMARK    3  A    between atoms: C_7  and  N_8
REMARK    4  A    between atoms: C_9  and  C_11
REMARK    5  A    between atoms: C_11  and  C_12
REMARK    6  A    between atoms: C_11  and  N_16
REMARK    7  A    between atoms: C_12  and  C_13
REMARK    8  A    between atoms: C_13  and  S_14
REMARK    9  A    between atoms: S_14  and  C_15
REMARK   10  A    between atoms: C_17  and  C_19
REMARK   11  A    between atoms: C_22  and  C_23
REMARK                            x       y       z     vdW  Elec       q    Type
REMARK                         _______ _______ _______ _____ _____    ______ ____
ROOT
ATOM      1  C   UNL     1       6.469   6.333  16.807  0.00  0.00    +0.000 C 
ENDROOT
BRANCH   1   3
ATOM      2  N   UNL     1       7.439   8.533  17.339  0.00  0.00    +0.000 N 
ATOM      3  C   UNL     1       7.426   7.188  17.668  0.00  0.00    +0.000 C 
ATOM      4  O   UNL     1       8.005   6.672  18.620  0.00  0.00    +0.000 OA
ATOM      5  H   UNL     1       6.802   8.837  16.605  0.00  0.00    +0.000 HD
BRANCH   2  10
ATOM      6  C   UNL     1       8.956  11.856  18.028  0.00  0.00    +0.000 A 
ATOM      7  C   UNL     1       9.682  11.600  19.188  0.00  0.00    +0.000 A 
ATOM      8  C   UNL     1       9.703  10.319  19.732  0.00  0.00    +0.000 A 
ATOM      9  C   UNL     1       8.976   9.296  19.120  0.00  0.00    +0.000 A 
ATOM     10  C   UNL     1       8.213   9.536  17.973  0.00  0.00    +0.000 A 
ATOM     11  C   UNL     1       8.213  10.831  17.427  0.00  0.00    +0.000 A 
BRANCH   6  13
ATOM     12  C   UNL     1       9.955  13.988  18.258  0.00  0.00    +0.000 C 
ATOM     13  O   UNL     1       9.016  13.155  17.594  0.00  0.00    +0.000 OA
ENDBRANCH   6  13
ENDBRANCH   2  10
ENDBRANCH   1   3
BRANCH   1  14
ATOM     14  N   UNL     1       5.615   5.579  17.734  0.00  0.00    +0.000 N 
ATOM     15  C   UNL     1       4.366   6.024  18.114  0.00  0.00    +0.000 C 
ATOM     16  O   UNL     1       3.876   7.049  17.639  0.00  0.00    +0.000 OA
ATOM     17  H   UNL     1       6.106   4.972  18.382  0.00  0.00    +0.000 HD
BRANCH  15  18
ATOM     18  C   UNL     1       3.705   5.191  19.224  0.00  0.00    +0.000 C 
ATOM     19  C   UNL     1       2.267   5.638  19.548  0.00  0.00    +0.000 C 
ATOM     20  C   UNL     1       1.682   4.854  20.738  0.00  0.00    +0.000 C 
ATOM     21  C   UNL     1       1.804   3.330  20.573  0.00  0.00    +0.000 C 
ATOM     22  C   UNL     1       1.374   2.596  21.846  0.00  0.00    +0.000 C 
ATOM     23  C   UNL     1       3.233   2.932  20.185  0.00  0.00    +0.000 C 
ATOM     24  C   UNL     1       3.681   3.684  18.932  0.00  0.00    +0.000 C 
ENDBRANCH  15  18
ENDBRANCH   1  14
BRANCH   1  25
ATOM     25  C   UNL     1       7.316   5.389  15.930  0.00  0.00    +0.000 C 
BRANCH  25  26
ATOM     26  C   UNL     1       6.570   4.104  15.591  0.00  0.00    +0.000 C 
BRANCH  26  27
ATOM     27  S   UNL     1       6.260   3.988  13.800  0.00  0.00    +0.000 S 
ATOM     28  C   UNL     1       7.588   5.082  13.236  0.00  0.00    +0.000 C 
ENDBRANCH  26  27
ENDBRANCH  25  26
ENDBRANCH   1  25
TORSDOF 8
ENDMDL
MODEL 5
REMARK VINA RESULT:      -6.9      1.438      2.262
REMARK  Name = 
REMARK  11 active torsions:
REMARK  status: ('A' for Active; 'I' for Inactive)
REMARK    1  A    between atoms: C_1  and  O_2
REMARK    2  A    between atoms: O_2  and  C_3
REMARK    3  A    between atoms: C_7  and  N_8
REMARK    4  A    between atoms: C_9  and  C_11
REMARK    5  A    between atoms: C_11  and  C_12
REMARK    6  A    between atoms: C_11  and  N_16
REMARK    7  A    between atoms: C_12  and  C_13
REMARK    8  A    between atoms: C_13  and  S_14
REMARK    9  A    between atoms: S_14  and  C_15
REMARK   10  A    between atoms: C_17  and  C_19
REMARK   11  A    between atoms: C_22  and  C_23
REMARK                            x       y       z     vdW  Elec       q    Type
REMARK                         _______ _______ _______ _____ _____    ______ ____
ROOT
ATOM      1  C   UNL     1       3.224   5.420  20.023  0.00  0.00    +0.000 C 
ENDROOT
BRANCH   1   3
ATOM      2  N   UNL     1       1.867   7.310  20.831  0.00  0.00    +0.000 N 
ATOM      3  C   UNL     1       2.551   6.783  19.747  0.00  0.00    +0.000 C 
ATOM      4  O   UNL     1       2.746   7.346  18.673  0.00  0.00    +0.000 OA
ATOM      5  H   UNL     1       1.904   6.784  21.701  0.00  0.00    +0.000 HD
BRANCH   2  10
ATOM      6  C   UNL     1       0.226  10.413  19.610  0.00  0.00    +0.000 A 
ATOM      7  C   UNL     1      -0.238  10.974  20.797  0.00  0.00    +0.000 A 
ATOM      8  C   UNL     1       0.020  10.348  22.013  0.00  0.00    +0.000 A 
ATOM      9  C   UNL     1       0.726   9.144  22.035  0.00  0.00    +0.000 A 
ATOM     10  C   UNL     1       1.173   8.545  20.854  0.00  0.00    +0.000 A 
ATOM     11  C   UNL     1       0.919   9.196  19.634  0.00  0.00    +0.000 A 
BRANCH   6  13
ATOM     12  C   UNL     1      -1.225  11.976  18.584  0.00  0.00    +0.000 C 
ATOM     13  O   UNL     1      -0.093  11.125  18.482  0.00  0.00    +0.000 OA
ENDBRANCH   6  13
ENDBRANCH   2  10
ENDBRANCH   1   3
BRANCH   1  14
ATOM     14  N   UNL     1       3.889   5.009  18.779  0.00  0.00    +0.000 N 
ATOM     15  C   UNL     1       5.236   4.714  18.726  0.00  0.00    +0.000 C 
ATOM     16  O   UNL     1       5.936   4.716  19.738  0.00  0.00    +0.000 OA
ATOM     17  H   UNL     1       3.454   5.338  17.924  0.00  0.00    +0.000 HD
BRANCH  15  18
ATOM     18  C   UNL     1       5.779   4.481  17.306  0.00  0.00    +0.000 C 
ATOM     19  C   UNL     1       4.688   4.531  16.220  0.00  0.00    +0.000 C 
ATOM     20  C   UNL     1       5.253   4.183  14.831  0.00  0.00    +0.000 C 
ATOM     21  C   UNL     1       6.494   5.013  14.460  0.00  0.00    +0.000 C 
ATOM     22  C   UNL     1       7.125   4.519  13.156  0.00  0.00    +0.000 C 
ATOM     23  C   UNL     1       7.526   4.995  15.593  0.00  0.00    +0.000 C 
ATOM     24  C   UNL     1       6.895   5.457  16.906  0.00  0.00    +0.000 C 
ENDBRANCH  15  18
ENDBRANCH   1  14
BRANCH   1  25
ATOM     25  C   UNL     1       2.131   4.413  20.434  0.00  0.00    +0.000 C 
BRANCH  25  26
ATOM     26  C   UNL     1       1.266   3.996  19.251  0.00  0.00    +0.000 C 
BRANCH  26  27
ATOM     27  S   UNL     1       1.241   2.183  19.073  0.00  0.00    +0.000 S 
ATOM     28  C   UNL     1       2.553   2.027  17.835  0.00  0.00    +0.000 C 
ENDBRANCH  26  27
ENDBRANCH  25  26
ENDBRANCH   1  25
TORSDOF 8
ENDMDL
MODEL 6
REMARK VINA RESULT:      -6.9      1.529      1.943
REMARK  Name = 
REMARK  11 active torsions:
REMARK  status: ('A' for Active; 'I' for Inactive)
REMARK    1  A    between atoms: C_1  and  O_2
REMARK    2  A    between atoms: O_2  and  C_3
REMARK    3  A    between atoms: C_7  and  N_8
REMARK    4  A    between atoms: C_9  and  C_11
REMARK    5  A    between atoms: C_11  and  C_12
REMARK    6  A    between atoms: C_11  and  N_16
REMARK    7  A    between atoms: C_12  and  C_13
REMARK    8  A    between atoms: C_13  and  S_14
REMARK    9  A    between atoms: S_14  and  C_15
REMARK   10  A    between atoms: C_17  and  C_19
REMARK   11  A    between atoms: C_22  and  C_23
REMARK                            x       y       z     vdW  Elec       q    Type
REMARK                         _______ _______ _______ _____ _____    ______ ____
ROOT
ATOM      1  C   UNL     1       2.751   6.267  20.036  0.00  0.00    +0.000 C 
ENDROOT
BRANCH   1   3
ATOM      2  N   UNL     1       1.572   8.187  21.032  0.00  0.00    +0.000 N 
ATOM      3  C   UNL     1       2.036   7.624  19.854  0.00  0.00    +0.000 C 
ATOM      4  O   UNL     1       2.020   8.154  18.746  0.00  0.00    +0.000 OA
ATOM      5  H   UNL     1       1.776   7.687  21.895  0.00  0.00    +0.000 HD
BRANCH   2  10
ATOM      6  C   UNL     1      -0.611  10.848  22.433  0.00  0.00    +0.000 A 
ATOM      7  C   UNL     1      -0.455  11.865  21.495  0.00  0.00    +0.000 A 
ATOM      8  C   UNL     1       0.346  11.665  20.374  0.00  0.00    +0.000 A 
ATOM      9  C   UNL     1       1.008  10.448  20.206  0.00  0.00    +0.000 A 
ATOM     10  C   UNL     1       0.894   9.424  21.151  0.00  0.00    +0.000 A 
ATOM     11  C   UNL     1       0.070   9.635  22.270  0.00  0.00    +0.000 A 
BRANCH   6  13
ATOM     12  C   UNL     1      -2.564  11.956  23.179  0.00  0.00    +0.000 C 
ATOM     13  O   UNL     1      -1.424  11.169  23.490  0.00  0.00    +0.000 OA
ENDBRANCH   6  13
ENDBRANCH   2  10
ENDBRANCH   1   3
BRANCH   1  14
ATOM     14  N   UNL     1       3.359   5.924  18.744  0.00  0.00    +0.000 N 
ATOM     15  C   UNL     1       4.635   5.407  18.642  0.00  0.00    +0.000 C 
ATOM     16  O   UNL     1       5.304   5.143  19.641  0.00  0.00    +0.000 OA
ATOM     17  H   UNL     1       3.006   6.442  17.946  0.00  0.00    +0.000 HD
BRANCH  15  18
ATOM     18  C   UNL     1       5.157   5.284  17.201  0.00  0.00    +0.000 C 
ATOM     19  C   UNL     1       6.685   5.108  17.119  0.00  0.00    +0.000 C 
ATOM     20  C   UNL     1       7.179   5.100  15.661  0.00  0.00    +0.000 C 
ATOM     21  C   UNL     1       6.421   4.098  14.774  0.00  0.00    +0.000 C 
ATOM     22  C   UNL     1       6.819   4.246  13.303  0.00  0.00    +0.000 C 
ATOM     23  C   UNL     1       4.905   4.260  14.934  0.00  0.00    +0.000 C 
ATOM     24  C   UNL     1       4.503   4.145  16.405  0.00  0.00    +0.000 C 
ENDBRANCH  15  18
ENDBRANCH   1  14
BRANCH   1  25
ATOM     25  C   UNL     1       1.704   5.218  20.460  0.00  0.00    +0.000 C 
BRANCH  25  26
ATOM     26  C   UNL     1       2.296   4.166  21.391  0.00  0.00    +0.000 C 
BRANCH  26  27
ATOM     27  S   UNL     1       2.630   2.619  20.490  0.00  0.00    +0.000 S 
ATOM     28  C   UNL     1       1.405   2.817  19.172  0.00  0.00    +0.000 C 
ENDBRANCH  26  27
ENDBRANCH  25  26
ENDBRANCH   1  25
TORSDOF 8
ENDMDL
MODEL 7
REMARK VINA RESULT:      -6.9      1.287      1.473
REMARK  Name = 
REMARK  11 active torsions:
REMARK  status: ('A' for Active; 'I' for Inactive)
REMARK    1  A    between atoms: C_1  and  O_2
REMARK    2  A    between atoms: O_2  and  C_3
REMARK    3  A    between atoms: C_7  and  N_8
REMARK    4  A    between atoms: C_9  and  C_11
REMARK    5  A    between atoms: C_11  and  C_12
REMARK    6  A    between atoms: C_11  and  N_16
REMARK    7  A    between atoms: C_12  and  C_13
REMARK    8  A    between atoms: C_13  and  S_14
REMARK    9  A    between atoms: S_14  and  C_15
REMARK   10  A    between atoms: C_17  and  C_19
REMARK   11  A    between atoms: C_22  and  C_23
REMARK                            x       y       z     vdW  Elec       q    Type
REMARK                         _______ _______ _______ _____ _____    ______ ____
ROOT
ATOM      1  C   UNL     1       3.993   5.303  19.007  0.00  0.00    +0.000 C 
ENDROOT
BRANCH   1   3
ATOM      2  N   UNL     1       2.782   7.418  19.363  0.00  0.00    +0.000 N 
ATOM      3  C   UNL     1       2.723   6.157  18.793  0.00  0.00    +0.000 C 
ATOM      4  O   UNL     1       1.826   5.733  18.070  0.00  0.00    +0.000 OA
ATOM      5  H   UNL     1       3.652   7.677  19.825  0.00  0.00    +0.000 HD
BRANCH   2  10
ATOM      6  C   UNL     1       0.131   9.762  20.499  0.00  0.00    +0.000 A 
ATOM      7  C   UNL     1      -0.230  10.381  19.305  0.00  0.00    +0.000 A 
ATOM      8  C   UNL     1       0.376  10.003  18.110  0.00  0.00    +0.000 A 
ATOM      9  C   UNL     1       1.363   9.016  18.118  0.00  0.00    +0.000 A 
ATOM     10  C   UNL     1       1.765   8.403  19.308  0.00  0.00    +0.000 A 
ATOM     11  C   UNL     1       1.134   8.784  20.505  0.00  0.00    +0.000 A 
BRANCH   6  13
ATOM     12  C   UNL     1      -0.462   9.406  22.761  0.00  0.00    +0.000 C 
ATOM     13  O   UNL     1      -0.538  10.223  21.603  0.00  0.00    +0.000 OA
ENDBRANCH   6  13
ENDBRANCH   2  10
ENDBRANCH   1   3
BRANCH   1  14
ATOM     14  N   UNL     1       4.537   5.001  17.677  0.00  0.00    +0.000 N 
ATOM     15  C   UNL     1       5.420   5.843  17.032  0.00  0.00    +0.000 C 
ATOM     16  O   UNL     1       5.849   6.862  17.572  0.00  0.00    +0.000 OA
ATOM     17  H   UNL     1       3.957   4.406  17.094  0.00  0.00    +0.000 HD
BRANCH  15  18
ATOM     18  C   UNL     1       5.733   5.444  15.580  0.00  0.00    +0.000 C 
ATOM     19  C   UNL     1       7.238   5.268  15.307  0.00  0.00    +0.000 C 
ATOM     20  C   UNL     1       7.516   4.979  13.821  0.00  0.00    +0.000 C 
ATOM     21  C   UNL     1       6.675   3.817  13.265  0.00  0.00    +0.000 C 
ATOM     22  C   UNL     1       6.851   3.676  11.751  0.00  0.00    +0.000 C 
ATOM     23  C   UNL     1       5.194   3.994  13.616  0.00  0.00    +0.000 C 
ATOM     24  C   UNL     1       5.013   4.167  15.124  0.00  0.00    +0.000 C 
ENDBRANCH  15  18
ENDBRANCH   1  14
BRANCH   1  25
ATOM     25  C   UNL     1       3.593   4.016  19.756  0.00  0.00    +0.000 C 
BRANCH  25  26
ATOM     26  C   UNL     1       3.362   2.850  18.802  0.00  0.00    +0.000 C 
BRANCH  26  27
ATOM     27  S   UNL     1       1.736   2.085  19.094  0.00  0.00    +0.000 S 
ATOM     28  C   UNL     1       1.187   3.155  20.448  0.00  0.00    +0.000 C 
ENDBRANCH  26  27
ENDBRANCH  25  26
ENDBRANCH   1  25
TORSDOF 8
ENDMDL
MODEL 8
REMARK VINA RESULT:      -6.8      1.617      2.452
REMARK  Name = 
REMARK  11 active torsions:
REMARK  status: ('A' for Active; 'I' for Inactive)
REMARK    1  A    between atoms: C_1  and  O_2
REMARK    2  A    between atoms: O_2  and  C_3
REMARK    3  A    between atoms: C_7  and  N_8
REMARK    4  A    between atoms: C_9  and  C_11
REMARK    5  A    between atoms: C_11  and  C_12
REMARK    6  A    between atoms: C_11  and  N_16
REMARK    7  A    between atoms: C_12  and  C_13
REMARK    8  A    between atoms: C_13  and  S_14
REMARK    9  A    between atoms: S_14  and  C_15
REMARK   10  A    between atoms: C_17  and  C_19
REMARK   11  A    between atoms: C_22  and  C_23
REMARK                            x       y       z     vdW  Elec       q    Type
REMARK                         _______ _______ _______ _____ _____    ______ ____
ROOT
ATOM      1  C   UNL     1       2.807   5.994  20.075  0.00  0.00    +0.000 C 
ENDROOT
BRANCH   1   3
ATOM      2  N   UNL     1       1.472   7.905  20.872  0.00  0.00    +0.000 N 
ATOM      3  C   UNL     1       2.174   7.377  19.801  0.00  0.00    +0.000 C 
ATOM      4  O   UNL     1       2.414   7.952  18.743  0.00  0.00    +0.000 OA
ATOM      5  H   UNL     1       1.470   7.365  21.735  0.00  0.00    +0.000 HD
BRANCH   2  10
ATOM      6  C   UNL     1      -0.071  11.058  19.651  0.00  0.00    +0.000 A 
ATOM      7  C   UNL     1      -0.546  11.617  20.835  0.00  0.00    +0.000 A 
ATOM      8  C   UNL     1      -0.329  10.972  22.049  0.00  0.00    +0.000 A 
ATOM      9  C   UNL     1       0.348   9.752  22.072  0.00  0.00    +0.000 A 
ATOM     10  C   UNL     1       0.806   9.155  20.894  0.00  0.00    +0.000 A 
ATOM     11  C   UNL     1       0.593   9.825  19.677  0.00  0.00    +0.000 A 
BRANCH   6  13
ATOM     12  C   UNL     1      -1.719  11.878  18.165  0.00  0.00    +0.000 C 
ATOM     13  O   UNL     1      -0.348  11.789  18.525  0.00  0.00    +0.000 OA
ENDBRANCH   6  13
ENDBRANCH   2  10
ENDBRANCH   1   3
BRANCH   1  14
ATOM     14  N   UNL     1       3.501   5.588  18.846  0.00  0.00    +0.000 N 
ATOM     15  C   UNL     1       4.847   5.285  18.825  0.00  0.00    +0.000 C 
ATOM     16  O   UNL     1       5.521   5.276  19.854  0.00  0.00    +0.000 OA
ATOM     17  H   UNL     1       3.089   5.925  17.982  0.00  0.00    +0.000 HD
BRANCH  15  18
ATOM     18  C   UNL     1       5.424   5.058  17.418  0.00  0.00    +0.000 C 
ATOM     19  C   UNL     1       5.220   3.622  16.899  0.00  0.00    +0.000 C 
ATOM     20  C   UNL     1       5.909   3.406  15.539  0.00  0.00    +0.000 C 
ATOM     21  C   UNL     1       5.529   4.470  14.496  0.00  0.00    +0.000 C 
ATOM     22  C   UNL     1       6.363   4.322  13.221  0.00  0.00    +0.000 C 
ATOM     23  C   UNL     1       5.680   5.882  15.071  0.00  0.00    +0.000 C 
ATOM     24  C   UNL     1       4.875   6.029  16.362  0.00  0.00    +0.000 C 
ENDBRANCH  15  18
ENDBRANCH   1  14
BRANCH   1  25
ATOM     25  C   UNL     1       1.679   5.007  20.436  0.00  0.00    +0.000 C 
BRANCH  25  26
ATOM     26  C   UNL     1       1.364   4.057  19.286  0.00  0.00    +0.000 C 
BRANCH  26  27
ATOM     27  S   UNL     1       1.694   2.331  19.762  0.00  0.00    +0.000 S 
ATOM     28  C   UNL     1       1.968   2.598  21.532  0.00  0.00    +0.000 C 
ENDBRANCH  26  27
ENDBRANCH  25  26
ENDBRANCH   1  25
TORSDOF 8
ENDMDL
MODEL 9
REMARK VINA RESULT:      -6.8      1.527      2.203
REMARK  Name = 
REMARK  11 active torsions:
REMARK  status: ('A' for Active; 'I' for Inactive)
REMARK    1  A    between atoms: C_1  and  O_2
REMARK    2  A    between atoms: O_2  and  C_3
REMARK    3  A    between atoms: C_7  and  N_8
REMARK    4  A    between atoms: C_9  and  C_11
REMARK    5  A    between atoms: C_11  and  C_12
REMARK    6  A    between atoms: C_11  and  N_16
REMARK    7  A    between atoms: C_12  and  C_13
REMARK    8  A    between atoms: C_13  and  S_14
REMARK    9  A    between atoms: S_14  and  C_15
REMARK   10  A    between atoms: C_17  and  C_19
REMARK   11  A    between atoms: C_22  and  C_23
REMARK                            x       y       z     vdW  Elec       q    Type
REMARK                         _______ _______ _______ _____ _____    ______ ____
ROOT
ATOM      1  C   UNL     1       3.487   5.865  19.668  0.00  0.00    +0.000 C 
ENDROOT
BRANCH   1   3
ATOM      2  N   UNL     1       2.013   7.538  20.714  0.00  0.00    +0.000 N 
ATOM      3  C   UNL     1       2.588   7.113  19.527  0.00  0.00    +0.000 C 
ATOM      4  O   UNL     1       2.528   7.696  18.448  0.00  0.00    +0.000 OA
ATOM      5  H   UNL     1       2.262   7.026  21.558  0.00  0.00    +0.000 HD
BRANCH   2  10
ATOM      6  C   UNL     1      -0.073  10.484  19.830  0.00  0.00    +0.000 A 
ATOM      7  C   UNL     1      -0.571  10.862  21.074  0.00  0.00    +0.000 A 
ATOM      8  C   UNL     1      -0.192  10.167  22.219  0.00  0.00    +0.000 A 
ATOM      9  C   UNL     1       0.671   9.076  22.111  0.00  0.00    +0.000 A 
ATOM     10  C   UNL     1       1.159   8.657  20.869  0.00  0.00    +0.000 A 
ATOM     11  C   UNL     1       0.780   9.378  19.724  0.00  0.00    +0.000 A 
BRANCH   6  13
ATOM     12  C   UNL     1      -1.573  10.687  18.011  0.00  0.00    +0.000 C 
ATOM     13  O   UNL     1      -0.521  11.247  18.782  0.00  0.00    +0.000 OA
ENDBRANCH   6  13
ENDBRANCH   2  10
ENDBRANCH   1   3
BRANCH   1  14
ATOM     14  N   UNL     1       3.979   5.536  18.324  0.00  0.00    +0.000 N 
ATOM     15  C   UNL     1       5.324   5.444  18.032  0.00  0.00    +0.000 C 
ATOM     16  O   UNL     1       6.183   5.570  18.905  0.00  0.00    +0.000 OA
ATOM     17  H   UNL     1       3.356   5.780  17.561  0.00  0.00    +0.000 HD
BRANCH  15  18
ATOM     18  C   UNL     1       5.639   5.269  16.537  0.00  0.00    +0.000 C 
ATOM     19  C   UNL     1       7.132   5.018  16.254  0.00  0.00    +0.000 C 
ATOM     20  C   UNL     1       7.422   4.959  14.743  0.00  0.00    +0.000 C 
ATOM     21  C   UNL     1       6.506   3.979  13.991  0.00  0.00    +0.000 C 
ATOM     22  C   UNL     1       6.706   4.079  12.477  0.00  0.00    +0.000 C 
ATOM     23  C   UNL     1       5.035   4.216  14.351  0.00  0.00    +0.000 C 
ATOM     24  C   UNL     1       4.832   4.148  15.865  0.00  0.00    +0.000 C 
ENDBRANCH  15  18
ENDBRANCH   1  14
BRANCH   1  25
ATOM     25  C   UNL     1       2.640   4.718  20.253  0.00  0.00    +0.000 C 
BRANCH  25  26
ATOM     26  C   UNL     1       2.087   3.806  19.164  0.00  0.00    +0.000 C 
BRANCH  26  27
ATOM     27  S   UNL     1       0.886   2.625  19.856  0.00  0.00    +0.000 S 
ATOM     28  C   UNL     1       1.390   2.730  21.592  0.00  0.00    +0.000 C 
ENDBRANCH  26  27
ENDBRANCH  25  26
ENDBRANCH   1  25
TORSDOF 8
ENDMDL
