MODEL 1
REMARK VINA RESULT:      -9.1      0.000      0.000
REMARK  Name = 
REMARK  5 active torsions:
REMARK  status: ('A' for Active; 'I' for Inactive)
REMARK    1  A    between atoms: C_1  and  O_2
REMARK    2  A    between atoms: O_2  and  C_3
REMARK    3  A    between atoms: C_6  and  C_7
REMARK    4  A    between atoms: C_13  and  C_14
REMARK    5  A    between atoms: C_14  and  C_15
REMARK                            x       y       z     vdW  Elec       q    Type
REMARK                         _______ _______ _______ _____ _____    ______ ____
ROOT
ATOM      1  C   UNL     1       2.063   5.416  20.194  0.00  0.00    +0.000 A 
ATOM      2  C   UNL     1       1.126   4.550  20.637  0.00  0.00    +0.000 A 
ATOM      3  C   UNL     1       1.434   3.128  20.701  0.00  0.00    +0.000 A 
ATOM      4  C   UNL     1       2.638   2.651  20.326  0.00  0.00    +0.000 A 
ATOM      5  C   UNL     1       3.641   3.548  19.866  0.00  0.00    +0.000 A 
ATOM      6  N   UNL     1       4.883   3.328  19.478  0.00  0.00    +0.000 NA
ATOM      7  C   UNL     1       5.384   4.561  19.126  0.00  0.00    +0.000 A 
ATOM      8  C   UNL     1       4.442   5.545  19.350  0.00  0.00    +0.000 A 
ATOM      9  N   UNL     1       3.316   4.903  19.811  0.00  0.00    +0.000 N 
ENDROOT
BRANCH   1  13
ATOM     10  C   UNL     1       1.181   9.610  20.177  0.00  0.00    +0.000 A 
ATOM     11  C   UNL     1       1.021   8.846  21.333  0.00  0.00    +0.000 A 
ATOM     12  C   UNL     1       1.306   7.478  21.316  0.00  0.00    +0.000 A 
ATOM     13  C   UNL     1       1.751   6.853  20.142  0.00  0.00    +0.000 A 
ATOM     14  C   UNL     1       1.873   7.623  18.974  0.00  0.00    +0.000 A 
ATOM     15 CL   UNL     1       2.382   6.925  17.476  0.00  0.00    +0.000 Cl
ATOM     16  C   UNL     1       1.585   8.990  18.993  0.00  0.00    +0.000 A 
BRANCH  10  18
ATOM     17  C   UNL     1       0.306  11.539  21.224  0.00  0.00    +0.000 C 
ATOM     18  O   UNL     1       0.934  10.953  20.088  0.00  0.00    +0.000 OA
ENDBRANCH  10  18
ENDBRANCH   1  13
BRANCH   7  19
ATOM     19  C   UNL     1       6.772   4.689  18.594  0.00  0.00    +0.000 C 
BRANCH  19  20
ATOM     20  C   UNL     1       6.832   4.615  17.103  0.00  0.00    +0.000 A 
ATOM     21  N   UNL     1       7.555   5.375  16.304  0.00  0.00    +0.000 NA
ATOM     22  C   UNL     1       7.240   4.979  15.036  0.00  0.00    +0.000 A 
ATOM     23  N   UNL     1       7.743   5.519  13.905  0.00  0.00    +0.000 NA
ATOM     24  C   UNL     1       7.255   4.966  12.779  0.00  0.00    +0.000 A 
ATOM     25 CL   UNL     1       7.873   5.667  11.334  0.00  0.00    +0.000 Cl
ATOM     26  C   UNL     1       6.333   3.927  12.701  0.00  0.00    +0.000 A 
ATOM     27  C   UNL     1       5.826   3.371  13.875  0.00  0.00    +0.000 A 
ATOM     28  C   UNL     1       6.313   3.943  15.048  0.00  0.00    +0.000 A 
ATOM     29  N   UNL     1       6.074   3.722  16.379  0.00  0.00    +0.000 N 
ATOM     30  H   UNL     1       5.446   3.035  16.775  0.00  0.00    +0.000 HD
ENDBRANCH  19  20
ENDBRANCH   7  19
TORSDOF 4
ENDMDL
MODEL 2
REMARK VINA RESULT:      -8.9      1.627      2.125
REMARK  Name = 
REMARK  5 active torsions:
REMARK  status: ('A' for Active; 'I' for Inactive)
REMARK    1  A    between atoms: C_1  and  O_2
REMARK    2  A    between atoms: O_2  and  C_3
REMARK    3  A    between atoms: C_6  and  C_7
REMARK    4  A    between atoms: C_13  and  C_14
REMARK    5  A    between atoms: C_14  and  C_15
REMARK                            x       y       z     vdW  Elec       q    Type
REMARK                         _______ _______ _______ _____ _____    ______ ____
ROOT
ATOM      1  C   UNL     1       2.342   6.168  19.803  0.00  0.00    +0.000 A 
ATOM      2  C   UNL     1       1.495   5.421  20.544  0.00  0.00    +0.000 A 
ATOM      3  C   UNL     1       1.862   4.058  20.901  0.00  0.00    +0.000 A 
ATOM      4  C   UNL     1       3.034   3.518  20.508  0.00  0.00    +0.000 A 
ATOM      5  C   UNL     1       3.944   4.292  19.737  0.00  0.00    +0.000 A 
ATOM      6  N   UNL     1       5.142   4.001  19.267  0.00  0.00    +0.000 NA
ATOM      7  C   UNL     1       5.554   5.121  18.581  0.00  0.00    +0.000 A 
ATOM      8  C   UNL     1       4.605   6.120  18.678  0.00  0.00    +0.000 A 
ATOM      9  N   UNL     1       3.564   5.592  19.406  0.00  0.00    +0.000 N 
ENDROOT
BRANCH   1  13
ATOM     10  C   UNL     1       1.243  10.149  18.657  0.00  0.00    +0.000 A 
ATOM     11  C   UNL     1       1.802   9.264  17.736  0.00  0.00    +0.000 A 
ATOM     12  C   UNL     1       2.161   7.972  18.131  0.00  0.00    +0.000 A 
ATOM     13  C   UNL     1       1.971   7.548  19.454  0.00  0.00    +0.000 A 
ATOM     14  C   UNL     1       1.444   8.459  20.384  0.00  0.00    +0.000 A 
ATOM     15 CL   UNL     1       1.209   8.029  22.042  0.00  0.00    +0.000 Cl
ATOM     16  C   UNL     1       1.087   9.750  19.986  0.00  0.00    +0.000 A 
BRANCH  10  18
ATOM     17  C   UNL     1      -0.536  11.698  18.534  0.00  0.00    +0.000 C 
ATOM     18  O   UNL     1       0.854  11.429  18.374  0.00  0.00    +0.000 OA
ENDBRANCH  10  18
ENDBRANCH   1  13
BRANCH   7  19
ATOM     19  C   UNL     1       6.867   5.135  17.874  0.00  0.00    +0.000 C 
BRANCH  19  20
ATOM     20  C   UNL     1       6.747   4.823  16.418  0.00  0.00    +0.000 A 
ATOM     21  N   UNL     1       5.935   3.943  15.864  0.00  0.00    +0.000 NA
ATOM     22  C   UNL     1       6.222   3.967  14.529  0.00  0.00    +0.000 A 
ATOM     23  N   UNL     1       5.631   3.195  13.593  0.00  0.00    +0.000 NA
ATOM     24  C   UNL     1       6.109   3.393  12.350  0.00  0.00    +0.000 A 
ATOM     25 CL   UNL     1       5.377   2.393  11.155  0.00  0.00    +0.000 Cl
ATOM     26  C   UNL     1       7.101   4.295  11.979  0.00  0.00    +0.000 A 
ATOM     27  C   UNL     1       7.699   5.094  12.954  0.00  0.00    +0.000 A 
ATOM     28  C   UNL     1       7.223   4.890  14.247  0.00  0.00    +0.000 A 
ATOM     29  N   UNL     1       7.537   5.430  15.467  0.00  0.00    +0.000 N 
ATOM     30  H   UNL     1       8.231   6.141  15.653  0.00  0.00    +0.000 HD
ENDBRANCH  19  20
ENDBRANCH   7  19
TORSDOF 4
ENDMDL
MODEL 3
REMARK VINA RESULT:      -8.9      4.381      8.691
REMARK  Name = 
REMARK  5 active torsions:
REMARK  status: ('A' for Active; 'I' for Inactive)
REMARK    1  A    between atoms: C_1  and  O_2
REMARK    2  A    between atoms: O_2  and  C_3
REMARK    3  A    between atoms: C_6  and  C_7
REMARK    4  A    between atoms: C_13  and  C_14
REMARK    5  A    between atoms: C_14  and  C_15
REMARK                            x       y       z     vdW  Elec       q    Type
REMARK                         _______ _______ _______ _____ _____    ______ ____
ROOT
ATOM      1  C   UNL     1       3.809   5.498  18.698  0.00  0.00    +0.000 A 
ATOM      2  C   UNL     1       3.509   4.509  19.570  0.00  0.00    +0.000 A 
ATOM      3  C   UNL     1       2.474   4.722  20.570  0.00  0.00    +0.000 A 
ATOM      4  C   UNL     1       1.801   5.888  20.651  0.00  0.00    +0.000 A 
ATOM      5  C   UNL     1       2.094   6.937  19.737  0.00  0.00    +0.000 A 
ATOM      6  N   UNL     1       1.562   8.136  19.600  0.00  0.00    +0.000 NA
ATOM      7  C   UNL     1       2.246   8.729  18.562  0.00  0.00    +0.000 A 
ATOM      8  C   UNL     1       3.175   7.853  18.037  0.00  0.00    +0.000 A 
ATOM      9  N   UNL     1       3.094   6.706  18.792  0.00  0.00    +0.000 N 
ENDROOT
BRANCH   1  13
ATOM     10  C   UNL     1       6.748   4.888  15.640  0.00  0.00    +0.000 A 
ATOM     11  C   UNL     1       5.386   4.811  15.353  0.00  0.00    +0.000 A 
ATOM     12  C   UNL     1       4.443   5.004  16.366  0.00  0.00    +0.000 A 
ATOM     13  C   UNL     1       4.848   5.274  17.682  0.00  0.00    +0.000 A 
ATOM     14  C   UNL     1       6.222   5.312  17.969  0.00  0.00    +0.000 A 
ATOM     15 CL   UNL     1       6.807   5.603  19.569  0.00  0.00    +0.000 Cl
ATOM     16  C   UNL     1       7.163   5.116  16.954  0.00  0.00    +0.000 A 
BRANCH  10  18
ATOM     17  C   UNL     1       7.360   4.834  13.359  0.00  0.00    +0.000 C 
ATOM     18  O   UNL     1       7.750   4.719  14.724  0.00  0.00    +0.000 OA
ENDBRANCH  10  18
ENDBRANCH   1  13
BRANCH   7  19
ATOM     19  C   UNL     1       1.931  10.128  18.151  0.00  0.00    +0.000 C 
BRANCH  19  20
ATOM     20  C   UNL     1       0.466  10.418  18.149  0.00  0.00    +0.000 A 
ATOM     21  N   UNL     1      -0.153  11.359  18.835  0.00  0.00    +0.000 NA
ATOM     22  C   UNL     1      -1.482  11.202  18.560  0.00  0.00    +0.000 A 
ATOM     23  N   UNL     1      -2.477  11.951  19.078  0.00  0.00    +0.000 NA
ATOM     24  C   UNL     1      -3.704  11.580  18.667  0.00  0.00    +0.000 A 
ATOM     25 CL   UNL     1      -4.979  12.516  19.345  0.00  0.00    +0.000 Cl
ATOM     26  C   UNL     1      -4.002  10.547  17.783  0.00  0.00    +0.000 A 
ATOM     27  C   UNL     1      -2.964   9.785  17.247  0.00  0.00    +0.000 A 
ATOM     28  C   UNL     1      -1.691  10.150  17.675  0.00  0.00    +0.000 A 
ATOM     29  N   UNL     1      -0.433   9.670  17.421  0.00  0.00    +0.000 N 
ATOM     30  H   UNL     1      -0.191   8.896  16.815  0.00  0.00    +0.000 HD
ENDBRANCH  19  20
ENDBRANCH   7  19
TORSDOF 4
ENDMDL
MODEL 4
REMARK VINA RESULT:      -8.9      4.456      8.758
REMARK  Name = 
REMARK  5 active torsions:
REMARK  status: ('A' for Active; 'I' for Inactive)
REMARK    1  A    between atoms: C_1  and  O_2
REMARK    2  A    between atoms: O_2  and  C_3
REMARK    3  A    between atoms: C_6  and  C_7
REMARK    4  A    between atoms: C_13  and  C_14
REMARK    5  A    between atoms: C_14  and  C_15
REMARK                            x       y       z     vdW  Elec       q    Type
REMARK                         _______ _______ _______ _____ _____    ______ ____
ROOT
ATOM      1  C   UNL     1       3.540   5.679  18.888  0.00  0.00    +0.000 A 
ATOM      2  C   UNL     1       3.271   4.736  19.818  0.00  0.00    +0.000 A 
ATOM      3  C   UNL     1       2.271   5.001  20.842  0.00  0.00    +0.000 A 
ATOM      4  C   UNL     1       1.602   6.170  20.888  0.00  0.00    +0.000 A 
ATOM      5  C   UNL     1       1.863   7.172  19.913  0.00  0.00    +0.000 A 
ATOM      6  N   UNL     1       1.326   8.364  19.735  0.00  0.00    +0.000 NA
ATOM      7  C   UNL     1       1.974   8.903  18.645  0.00  0.00    +0.000 A 
ATOM      8  C   UNL     1       2.884   8.000  18.133  0.00  0.00    +0.000 A 
ATOM      9  N   UNL     1       2.829   6.893  18.947  0.00  0.00    +0.000 N 
ENDROOT
BRANCH   1  13
ATOM     10  C   UNL     1       6.560   4.929  15.942  0.00  0.00    +0.000 A 
ATOM     11  C   UNL     1       6.699   5.964  16.866  0.00  0.00    +0.000 A 
ATOM     12  C   UNL     1       5.699   6.198  17.814  0.00  0.00    +0.000 A 
ATOM     13  C   UNL     1       4.544   5.403  17.849  0.00  0.00    +0.000 A 
ATOM     14  C   UNL     1       4.395   4.388  16.890  0.00  0.00    +0.000 A 
ATOM     15 CL   UNL     1       2.988   3.385  16.841  0.00  0.00    +0.000 Cl
ATOM     16  C   UNL     1       5.396   4.157  15.942  0.00  0.00    +0.000 A 
BRANCH  10  18
ATOM     17  C   UNL     1       7.000   4.657  13.637  0.00  0.00    +0.000 C 
ATOM     18  O   UNL     1       7.478   4.613  14.978  0.00  0.00    +0.000 OA
ENDBRANCH  10  18
ENDBRANCH   1  13
BRANCH   7  19
ATOM     19  C   UNL     1       1.646  10.280  18.176  0.00  0.00    +0.000 C 
BRANCH  19  20
ATOM     20  C   UNL     1       0.179  10.564  18.186  0.00  0.00    +0.000 A 
ATOM     21  N   UNL     1      -0.440  11.493  18.888  0.00  0.00    +0.000 NA
ATOM     22  C   UNL     1      -1.769  11.334  18.618  0.00  0.00    +0.000 A 
ATOM     23  N   UNL     1      -2.766  12.071  19.152  0.00  0.00    +0.000 NA
ATOM     24  C   UNL     1      -3.993  11.701  18.742  0.00  0.00    +0.000 A 
ATOM     25 CL   UNL     1      -5.268  12.621  19.440  0.00  0.00    +0.000 Cl
ATOM     26  C   UNL     1      -4.291  10.679  17.845  0.00  0.00    +0.000 A 
ATOM     27  C   UNL     1      -3.253   9.929  17.293  0.00  0.00    +0.000 A 
ATOM     28  C   UNL     1      -1.979  10.294  17.720  0.00  0.00    +0.000 A 
ATOM     29  N   UNL     1      -0.720   9.822  17.452  0.00  0.00    +0.000 N 
ATOM     30  H   UNL     1      -0.478   9.059  16.834  0.00  0.00    +0.000 HD
ENDBRANCH  19  20
ENDBRANCH   7  19
TORSDOF 4
ENDMDL
MODEL 5
REMARK VINA RESULT:      -8.8      1.087      1.445
REMARK  Name = 
REMARK  5 active torsions:
REMARK  status: ('A' for Active; 'I' for Inactive)
REMARK    1  A    between atoms: C_1  and  O_2
REMARK    2  A    between atoms: O_2  and  C_3
REMARK    3  A    between atoms: C_6  and  C_7
REMARK    4  A    between atoms: C_13  and  C_14
REMARK    5  A    between atoms: C_14  and  C_15
REMARK                            x       y       z     vdW  Elec       q    Type
REMARK                         _______ _______ _______ _____ _____    ______ ____
ROOT
ATOM      1  C   UNL     1       2.260   5.663  20.216  0.00  0.00    +0.000 A 
ATOM      2  C   UNL     1       1.444   4.770  20.819  0.00  0.00    +0.000 A 
ATOM      3  C   UNL     1       1.851   3.376  20.918  0.00  0.00    +0.000 A 
ATOM      4  C   UNL     1       3.029   2.949  20.419  0.00  0.00    +0.000 A 
ATOM      5  C   UNL     1       3.906   3.875  19.791  0.00  0.00    +0.000 A 
ATOM      6  N   UNL     1       5.103   3.706  19.261  0.00  0.00    +0.000 NA
ATOM      7  C   UNL     1       5.475   4.944  18.785  0.00  0.00    +0.000 A 
ATOM      8  C   UNL     1       4.503   5.881  19.074  0.00  0.00    +0.000 A 
ATOM      9  N   UNL     1       3.488   5.202  19.706  0.00  0.00    +0.000 N 
ENDROOT
BRANCH   1  13
ATOM     10  C   UNL     1       1.096   9.785  20.093  0.00  0.00    +0.000 A 
ATOM     11  C   UNL     1       1.055   9.062  21.285  0.00  0.00    +0.000 A 
ATOM     12  C   UNL     1       1.430   7.716  21.303  0.00  0.00    +0.000 A 
ATOM     13  C   UNL     1       1.849   7.073  20.128  0.00  0.00    +0.000 A 
ATOM     14  C   UNL     1       1.851   7.799  18.927  0.00  0.00    +0.000 A 
ATOM     15 CL   UNL     1       2.320   7.074  17.429  0.00  0.00    +0.000 Cl
ATOM     16  C   UNL     1       1.474   9.144  18.912  0.00  0.00    +0.000 A 
BRANCH  10  18
ATOM     17  C   UNL     1      -0.335  11.376  19.092  0.00  0.00    +0.000 C 
ATOM     18  O   UNL     1       0.755  11.104  19.968  0.00  0.00    +0.000 OA
ENDBRANCH  10  18
ENDBRANCH   1  13
BRANCH   7  19
ATOM     19  C   UNL     1       6.776   5.121  18.077  0.00  0.00    +0.000 C 
BRANCH  19  20
ATOM     20  C   UNL     1       6.687   4.824  16.615  0.00  0.00    +0.000 A 
ATOM     21  N   UNL     1       5.872   3.966  16.033  0.00  0.00    +0.000 NA
ATOM     22  C   UNL     1       6.194   3.996  14.706  0.00  0.00    +0.000 A 
ATOM     23  N   UNL     1       5.612   3.244  13.748  0.00  0.00    +0.000 NA
ATOM     24  C   UNL     1       6.125   3.443  12.519  0.00  0.00    +0.000 A 
ATOM     25 CL   UNL     1       5.404   2.468  11.297  0.00  0.00    +0.000 Cl
ATOM     26  C   UNL     1       7.144   4.328  12.182  0.00  0.00    +0.000 A 
ATOM     27  C   UNL     1       7.733   5.106  13.179  0.00  0.00    +0.000 A 
ATOM     28  C   UNL     1       7.220   4.900  14.457  0.00  0.00    +0.000 A 
ATOM     29  N   UNL     1       7.513   5.423  15.690  0.00  0.00    +0.000 N 
ATOM     30  H   UNL     1       8.216   6.119  15.901  0.00  0.00    +0.000 HD
ENDBRANCH  19  20
ENDBRANCH   7  19
TORSDOF 4
ENDMDL
MODEL 6
REMARK VINA RESULT:      -8.7      3.842      8.944
REMARK  Name = 
REMARK  5 active torsions:
REMARK  status: ('A' for Active; 'I' for Inactive)
REMARK    1  A    between atoms: C_1  and  O_2
REMARK    2  A    between atoms: O_2  and  C_3
REMARK    3  A    between atoms: C_6  and  C_7
REMARK    4  A    between atoms: C_13  and  C_14
REMARK    5  A    between atoms: C_14  and  C_15
REMARK                            x       y       z     vdW  Elec       q    Type
REMARK                         _______ _______ _______ _____ _____    ______ ____
ROOT
ATOM      1  C   UNL     1       4.278   4.892  18.209  0.00  0.00    +0.000 A 
ATOM      2  C   UNL     1       4.165   3.786  18.977  0.00  0.00    +0.000 A 
ATOM      3  C   UNL     1       3.188   3.757  20.056  0.00  0.00    +0.000 A 
ATOM      4  C   UNL     1       2.388   4.812  20.311  0.00  0.00    +0.000 A 
ATOM      5  C   UNL     1       2.485   5.981  19.507  0.00  0.00    +0.000 A 
ATOM      6  N   UNL     1       1.803   7.110  19.542  0.00  0.00    +0.000 NA
ATOM      7  C   UNL     1       2.332   7.893  18.540  0.00  0.00    +0.000 A 
ATOM      8  C   UNL     1       3.318   7.204  17.863  0.00  0.00    +0.000 A 
ATOM      9  N   UNL     1       3.432   5.982  18.485  0.00  0.00    +0.000 N 
ENDROOT
BRANCH   1  13
ATOM     10  C   UNL     1       7.031   4.960  14.926  0.00  0.00    +0.000 A 
ATOM     11  C   UNL     1       5.737   4.466  14.768  0.00  0.00    +0.000 A 
ATOM     12  C   UNL     1       4.857   4.444  15.853  0.00  0.00    +0.000 A 
ATOM     13  C   UNL     1       5.259   4.913  17.113  0.00  0.00    +0.000 A 
ATOM     14  C   UNL     1       6.576   5.373  17.271  0.00  0.00    +0.000 A 
ATOM     15 CL   UNL     1       7.163   5.936  18.797  0.00  0.00    +0.000 Cl
ATOM     16  C   UNL     1       7.455   5.392  16.185  0.00  0.00    +0.000 A 
BRANCH  10  18
ATOM     17  C   UNL     1       7.454   5.023  12.603  0.00  0.00    +0.000 C 
ATOM     18  O   UNL     1       7.968   5.029  13.931  0.00  0.00    +0.000 OA
ENDBRANCH  10  18
ENDBRANCH   1  13
BRANCH   7  19
ATOM     19  C   UNL     1       1.822   9.276  18.313  0.00  0.00    +0.000 C 
BRANCH  19  20
ATOM     20  C   UNL     1       0.944   9.761  19.420  0.00  0.00    +0.000 A 
ATOM     21  N   UNL     1       0.035  10.715  19.346  0.00  0.00    +0.000 NA
ATOM     22  C   UNL     1      -0.465  10.845  20.610  0.00  0.00    +0.000 A 
ATOM     23  N   UNL     1      -1.409  11.733  20.985  0.00  0.00    +0.000 NA
ATOM     24  C   UNL     1      -1.715  11.676  22.295  0.00  0.00    +0.000 A 
ATOM     25 CL   UNL     1      -2.901  12.824  22.784  0.00  0.00    +0.000 Cl
ATOM     26  C   UNL     1      -1.170  10.806  23.234  0.00  0.00    +0.000 A 
ATOM     27  C   UNL     1      -0.200   9.887  22.833  0.00  0.00    +0.000 A 
ATOM     28  C   UNL     1       0.135   9.944  21.483  0.00  0.00    +0.000 A 
ATOM     29  N   UNL     1       1.025   9.258  20.699  0.00  0.00    +0.000 N 
ATOM     30  H   UNL     1       1.646   8.517  20.995  0.00  0.00    +0.000 HD
ENDBRANCH  19  20
ENDBRANCH   7  19
TORSDOF 4
ENDMDL
MODEL 7
REMARK VINA RESULT:      -8.6      1.229      1.589
REMARK  Name = 
REMARK  5 active torsions:
REMARK  status: ('A' for Active; 'I' for Inactive)
REMARK    1  A    between atoms: C_1  and  O_2
REMARK    2  A    between atoms: O_2  and  C_3
REMARK    3  A    between atoms: C_6  and  C_7
REMARK    4  A    between atoms: C_13  and  C_14
REMARK    5  A    between atoms: C_14  and  C_15
REMARK                            x       y       z     vdW  Elec       q    Type
REMARK                         _______ _______ _______ _____ _____    ______ ____
ROOT
ATOM      1  C   UNL     1       2.173   6.242  19.787  0.00  0.00    +0.000 A 
ATOM      2  C   UNL     1       1.203   5.537  20.410  0.00  0.00    +0.000 A 
ATOM      3  C   UNL     1       1.451   4.154  20.791  0.00  0.00    +0.000 A 
ATOM      4  C   UNL     1       2.631   3.554  20.537  0.00  0.00    +0.000 A 
ATOM      5  C   UNL     1       3.669   4.282  19.892  0.00  0.00    +0.000 A 
ATOM      6  N   UNL     1       4.898   3.929  19.568  0.00  0.00    +0.000 NA
ATOM      7  C   UNL     1       5.449   5.030  18.951  0.00  0.00    +0.000 A 
ATOM      8  C   UNL     1       4.550   6.078  18.945  0.00  0.00    +0.000 A 
ATOM      9  N   UNL     1       3.401   5.603  19.535  0.00  0.00    +0.000 N 
ENDROOT
BRANCH   1  13
ATOM     10  C   UNL     1       1.423  10.282  18.569  0.00  0.00    +0.000 A 
ATOM     11  C   UNL     1       1.948   9.348  17.677  0.00  0.00    +0.000 A 
ATOM     12  C   UNL     1       2.194   8.037  18.096  0.00  0.00    +0.000 A 
ATOM     13  C   UNL     1       1.921   7.642  19.414  0.00  0.00    +0.000 A 
ATOM     14  C   UNL     1       1.428   8.600  20.315  0.00  0.00    +0.000 A 
ATOM     15 CL   UNL     1       1.098   8.206  21.966  0.00  0.00    +0.000 Cl
ATOM     16  C   UNL     1       1.185   9.910  19.894  0.00  0.00    +0.000 A 
BRANCH  10  18
ATOM     17  C   UNL     1       0.659  12.380  19.339  0.00  0.00    +0.000 C 
ATOM     18  O   UNL     1       1.143  11.585  18.261  0.00  0.00    +0.000 OA
ENDBRANCH  10  18
ENDBRANCH   1  13
BRANCH   7  19
ATOM     19  C   UNL     1       6.838   4.977  18.410  0.00  0.00    +0.000 C 
BRANCH  19  20
ATOM     20  C   UNL     1       6.878   4.808  16.926  0.00  0.00    +0.000 A 
ATOM     21  N   UNL     1       7.556   5.542  16.066  0.00  0.00    +0.000 NA
ATOM     22  C   UNL     1       7.238   5.052  14.832  0.00  0.00    +0.000 A 
ATOM     23  N   UNL     1       7.700   5.537  13.660  0.00  0.00    +0.000 NA
ATOM     24  C   UNL     1       7.216   4.893  12.581  0.00  0.00    +0.000 A 
ATOM     25 CL   UNL     1       7.783   5.522  11.082  0.00  0.00    +0.000 Cl
ATOM     26  C   UNL     1       6.336   3.815  12.587  0.00  0.00    +0.000 A 
ATOM     27  C   UNL     1       5.872   3.317  13.804  0.00  0.00    +0.000 A 
ATOM     28  C   UNL     1       6.354   3.984  14.928  0.00  0.00    +0.000 A 
ATOM     29  N   UNL     1       6.145   3.840  16.275  0.00  0.00    +0.000 N 
ATOM     30  H   UNL     1       5.552   3.157  16.726  0.00  0.00    +0.000 HD
ENDBRANCH  19  20
ENDBRANCH   7  19
TORSDOF 4
ENDMDL
MODEL 8
REMARK VINA RESULT:      -8.6      4.000      9.012
REMARK  Name = 
REMARK  5 active torsions:
REMARK  status: ('A' for Active; 'I' for Inactive)
REMARK    1  A    between atoms: C_1  and  O_2
REMARK    2  A    between atoms: O_2  and  C_3
REMARK    3  A    between atoms: C_6  and  C_7
REMARK    4  A    between atoms: C_13  and  C_14
REMARK    5  A    between atoms: C_14  and  C_15
REMARK                            x       y       z     vdW  Elec       q    Type
REMARK                         _______ _______ _______ _____ _____    ______ ____
ROOT
ATOM      1  C   UNL     1       3.880   5.237  18.694  0.00  0.00    +0.000 A 
ATOM      2  C   UNL     1       3.646   4.254  19.592  0.00  0.00    +0.000 A 
ATOM      3  C   UNL     1       2.624   4.441  20.611  0.00  0.00    +0.000 A 
ATOM      4  C   UNL     1       1.900   5.576  20.684  0.00  0.00    +0.000 A 
ATOM      5  C   UNL     1       2.125   6.618  19.742  0.00  0.00    +0.000 A 
ATOM      6  N   UNL     1       1.534   7.789  19.594  0.00  0.00    +0.000 NA
ATOM      7  C   UNL     1       2.167   8.390  18.529  0.00  0.00    +0.000 A 
ATOM      8  C   UNL     1       3.124   7.546  18.000  0.00  0.00    +0.000 A 
ATOM      9  N   UNL     1       3.113   6.413  18.780  0.00  0.00    +0.000 N 
ENDROOT
BRANCH   1  13
ATOM     10  C   UNL     1       6.776   4.691  15.582  0.00  0.00    +0.000 A 
ATOM     11  C   UNL     1       5.417   4.489  15.343  0.00  0.00    +0.000 A 
ATOM     12  C   UNL     1       4.489   4.664  16.373  0.00  0.00    +0.000 A 
ATOM     13  C   UNL     1       4.907   5.040  17.659  0.00  0.00    +0.000 A 
ATOM     14  C   UNL     1       6.280   5.204  17.899  0.00  0.00    +0.000 A 
ATOM     15 CL   UNL     1       6.883   5.633  19.462  0.00  0.00    +0.000 Cl
ATOM     16  C   UNL     1       7.206   5.027  16.868  0.00  0.00    +0.000 A 
BRANCH  10  18
ATOM     17  C   UNL     1       7.479   5.109  13.366  0.00  0.00    +0.000 C 
ATOM     18  O   UNL     1       7.763   4.551  14.645  0.00  0.00    +0.000 OA
ENDBRANCH  10  18
ENDBRANCH   1  13
BRANCH   7  19
ATOM     19  C   UNL     1       1.779   9.764  18.097  0.00  0.00    +0.000 C 
BRANCH  19  20
ATOM     20  C   UNL     1       0.752  10.384  18.987  0.00  0.00    +0.000 A 
ATOM     21  N   UNL     1      -0.412  10.885  18.619  0.00  0.00    +0.000 NA
ATOM     22  C   UNL     1      -0.973  11.386  19.758  0.00  0.00    +0.000 A 
ATOM     23  N   UNL     1      -2.167  12.014  19.825  0.00  0.00    +0.000 NA
ATOM     24  C   UNL     1      -2.486  12.436  21.063  0.00  0.00    +0.000 A 
ATOM     25 CL   UNL     1      -3.995  13.259  21.151  0.00  0.00    +0.000 Cl
ATOM     26  C   UNL     1      -1.724  12.269  22.216  0.00  0.00    +0.000 A 
ATOM     27  C   UNL     1      -0.496  11.612  22.135  0.00  0.00    +0.000 A 
ATOM     28  C   UNL     1      -0.148  11.182  20.858  0.00  0.00    +0.000 A 
ATOM     29  N   UNL     1       0.944  10.533  20.343  0.00  0.00    +0.000 N 
ATOM     30  H   UNL     1       1.759  10.221  20.853  0.00  0.00    +0.000 HD
ENDBRANCH  19  20
ENDBRANCH   7  19
TORSDOF 4
ENDMDL
MODEL 9
REMARK VINA RESULT:      -8.5      4.277      8.886
REMARK  Name = 
REMARK  5 active torsions:
REMARK  status: ('A' for Active; 'I' for Inactive)
REMARK    1  A    between atoms: C_1  and  O_2
REMARK    2  A    between atoms: O_2  and  C_3
REMARK    3  A    between atoms: C_6  and  C_7
REMARK    4  A    between atoms: C_13  and  C_14
REMARK    5  A    between atoms: C_14  and  C_15
REMARK                            x       y       z     vdW  Elec       q    Type
REMARK                         _______ _______ _______ _____ _____    ______ ____
ROOT
ATOM      1  C   UNL     1       3.513   5.688  18.939  0.00  0.00    +0.000 A 
ATOM      2  C   UNL     1       3.269   4.760  19.891  0.00  0.00    +0.000 A 
ATOM      3  C   UNL     1       2.277   5.031  20.921  0.00  0.00    +0.000 A 
ATOM      4  C   UNL     1       1.590   6.191  20.950  0.00  0.00    +0.000 A 
ATOM      5  C   UNL     1       1.825   7.176  19.951  0.00  0.00    +0.000 A 
ATOM      6  N   UNL     1       1.268   8.356  19.755  0.00  0.00    +0.000 NA
ATOM      7  C   UNL     1       1.895   8.881  18.647  0.00  0.00    +0.000 A 
ATOM      8  C   UNL     1       2.813   7.982  18.143  0.00  0.00    +0.000 A 
ATOM      9  N   UNL     1       2.784   6.891  18.980  0.00  0.00    +0.000 N 
ENDROOT
BRANCH   1  13
ATOM     10  C   UNL     1       6.511   4.914  15.976  0.00  0.00    +0.000 A 
ATOM     11  C   UNL     1       6.675   5.931  16.917  0.00  0.00    +0.000 A 
ATOM     12  C   UNL     1       5.682   6.173  17.870  0.00  0.00    +0.000 A 
ATOM     13  C   UNL     1       4.509   5.405  17.894  0.00  0.00    +0.000 A 
ATOM     14  C   UNL     1       4.336   4.409  16.919  0.00  0.00    +0.000 A 
ATOM     15 CL   UNL     1       2.905   3.440  16.856  0.00  0.00    +0.000 Cl
ATOM     16  C   UNL     1       5.330   4.170  15.966  0.00  0.00    +0.000 A 
BRANCH  10  18
ATOM     17  C   UNL     1       6.899   4.486  13.686  0.00  0.00    +0.000 C 
ATOM     18  O   UNL     1       7.421   4.593  15.007  0.00  0.00    +0.000 OA
ENDBRANCH  10  18
ENDBRANCH   1  13
BRANCH   7  19
ATOM     19  C   UNL     1       1.540  10.243  18.153  0.00  0.00    +0.000 C 
BRANCH  19  20
ATOM     20  C   UNL     1       0.099  10.579  18.359  0.00  0.00    +0.000 A 
ATOM     21  N   UNL     1      -0.924  10.126  17.660  0.00  0.00    +0.000 NA
ATOM     22  C   UNL     1      -2.025  10.751  18.172  0.00  0.00    +0.000 A 
ATOM     23  N   UNL     1      -3.289  10.589  17.727  0.00  0.00    +0.000 NA
ATOM     24  C   UNL     1      -4.193  11.337  18.386  0.00  0.00    +0.000 A 
ATOM     25 CL   UNL     1      -5.803  11.153  17.805  0.00  0.00    +0.000 Cl
ATOM     26  C   UNL     1      -3.937  12.204  19.443  0.00  0.00    +0.000 A 
ATOM     27  C   UNL     1      -2.628  12.357  19.900  0.00  0.00    +0.000 A 
ATOM     28  C   UNL     1      -1.680  11.599  19.218  0.00  0.00    +0.000 A 
ATOM     29  N   UNL     1      -0.320  11.467  19.325  0.00  0.00    +0.000 N 
ATOM     30  H   UNL     1       0.284  11.939  19.984  0.00  0.00    +0.000 HD
ENDBRANCH  19  20
ENDBRANCH   7  19
TORSDOF 4
ENDMDL
