MODEL 1
REMARK VINA RESULT:      -8.2      0.000      0.000
REMARK  Name = 
REMARK  10 active torsions:
REMARK  status: ('A' for Active; 'I' for Inactive)
REMARK    1  A    between atoms: C_2  and  O_3
REMARK    2  A    between atoms: C_2  and  C_4
REMARK    3  A    between atoms: C_8  and  C_9
REMARK    4  A    between atoms: C_14  and  O_15
REMARK    5  A    between atoms: O_15  and  C_16
REMARK    6  A    between atoms: C_18  and  C_19
REMARK    7  A    between atoms: C_19  and  O_20
REMARK    8  A    between atoms: C_21  and  O_22
REMARK    9  A    between atoms: C_23  and  O_24
REMARK   10  A    between atoms: C_25  and  O_26
REMARK                            x       y       z     vdW  Elec       q    Type
REMARK                         _______ _______ _______ _____ _____    ______ ____
ROOT
ATOM      1  C   UNL     1       2.445   4.687  19.026  0.00  0.00    +0.000 A 
ATOM      2  C   UNL     1       1.393   3.867  18.572  0.00  0.00    +0.000 A 
ATOM      3  C   UNL     1       1.518   2.479  18.523  0.00  0.00    +0.000 A 
ATOM      4  C   UNL     1       2.690   1.875  18.959  0.00  0.00    +0.000 A 
ATOM      5  C   UNL     1       3.759   2.660  19.391  0.00  0.00    +0.000 A 
ATOM      6  C   UNL     1       3.659   4.054  19.400  0.00  0.00    +0.000 A 
ENDROOT
BRANCH   1  11
ATOM      7  C   UNL     1       1.525   8.088  20.472  0.00  0.00    +0.000 A 
ATOM      8  C   UNL     1       1.684   8.928  19.372  0.00  0.00    +0.000 A 
ATOM      9  C   UNL     1       2.138   8.403  18.168  0.00  0.00    +0.000 A 
ATOM     10  C   UNL     1       2.426   7.034  18.064  0.00  0.00    +0.000 A 
ATOM     11  C   UNL     1       2.233   6.155  19.147  0.00  0.00    +0.000 A 
ATOM     12  C   UNL     1       1.763   6.713  20.351  0.00  0.00    +0.000 A 
BRANCH   7  14
ATOM     13  O   UNL     1      -0.141   8.702  22.043  0.00  0.00    +0.000 OA
ATOM     14  C   UNL     1       1.043   8.663  21.743  0.00  0.00    +0.000 C 
BRANCH  14  15
ATOM     15  O   UNL     1       2.022   9.174  22.512  0.00  0.00    +0.000 OA
ATOM     16  H   UNL     1       2.413  10.019  22.179  0.00  0.00    +0.000 HD
ENDBRANCH  14  15
ENDBRANCH   7  14
ENDBRANCH   1  11
BRANCH   6  17
ATOM     17  O   UNL     1       4.742   4.870  19.588  0.00  0.00    +0.000 OA
BRANCH  17  18
ATOM     18  C   UNL     1       5.774   4.988  18.592  0.00  0.00    +0.000 C 
ATOM     19  O   UNL     1       5.285   5.545  17.372  0.00  0.00    +0.000 OA
ATOM     20  C   UNL     1       6.272   5.933  16.402  0.00  0.00    +0.000 C 
ATOM     21  C   UNL     1       7.150   7.020  17.021  0.00  0.00    +0.000 C 
ATOM     22  C   UNL     1       7.840   6.484  18.273  0.00  0.00    +0.000 C 
ATOM     23  C   UNL     1       6.831   5.899  19.272  0.00  0.00    +0.000 C 
BRANCH  21  24
ATOM     24  O   UNL     1       6.343   8.147  17.410  0.00  0.00    +0.000 OA
ATOM     25  H   UNL     1       5.728   8.344  16.673  0.00  0.00    +0.000 HD
ENDBRANCH  21  24
BRANCH  22  26
ATOM     26  O   UNL     1       8.571   7.541  18.909  0.00  0.00    +0.000 OA
ATOM     27  H   UNL     1       8.318   8.369  18.446  0.00  0.00    +0.000 HD
ENDBRANCH  22  26
BRANCH  23  28
ATOM     28  O   UNL     1       7.517   5.157  20.307  0.00  0.00    +0.000 OA
ATOM     29  H   UNL     1       8.130   5.778  20.756  0.00  0.00    +0.000 HD
ENDBRANCH  23  28
BRANCH  20  30
ATOM     30  C   UNL     1       7.076   4.747  15.844  0.00  0.00    +0.000 C 
BRANCH  30  31
ATOM     31  O   UNL     1       7.803   5.134  14.686  0.00  0.00    +0.000 OA
ATOM     32  H   UNL     1       8.360   5.902  14.925  0.00  0.00    +0.000 HD
ENDBRANCH  30  31
ENDBRANCH  20  30
ENDBRANCH  17  18
ENDBRANCH   6  17
TORSDOF 10
ENDMDL
MODEL 2
REMARK VINA RESULT:      -8.0      2.059      4.996
REMARK  Name = 
REMARK  10 active torsions:
REMARK  status: ('A' for Active; 'I' for Inactive)
REMARK    1  A    between atoms: C_2  and  O_3
REMARK    2  A    between atoms: C_2  and  C_4
REMARK    3  A    between atoms: C_8  and  C_9
REMARK    4  A    between atoms: C_14  and  O_15
REMARK    5  A    between atoms: O_15  and  C_16
REMARK    6  A    between atoms: C_18  and  C_19
REMARK    7  A    between atoms: C_19  and  O_20
REMARK    8  A    between atoms: C_21  and  O_22
REMARK    9  A    between atoms: C_23  and  O_24
REMARK   10  A    between atoms: C_25  and  O_26
REMARK                            x       y       z     vdW  Elec       q    Type
REMARK                         _______ _______ _______ _____ _____    ______ ____
ROOT
ATOM      1  C   UNL     1       2.104   6.935  19.432  0.00  0.00    +0.000 A 
ATOM      2  C   UNL     1       1.601   7.967  20.249  0.00  0.00    +0.000 A 
ATOM      3  C   UNL     1       1.519   9.283  19.796  0.00  0.00    +0.000 A 
ATOM      4  C   UNL     1       1.909   9.593  18.500  0.00  0.00    +0.000 A 
ATOM      5  C   UNL     1       2.435   8.600  17.674  0.00  0.00    +0.000 A 
ATOM      6  C   UNL     1       2.564   7.287  18.136  0.00  0.00    +0.000 A 
ENDROOT
BRANCH   1  11
ATOM      7  C   UNL     1       1.675   3.152  19.521  0.00  0.00    +0.000 A 
ATOM      8  C   UNL     1       1.907   2.861  20.863  0.00  0.00    +0.000 A 
ATOM      9  C   UNL     1       2.253   3.885  21.737  0.00  0.00    +0.000 A 
ATOM     10  C   UNL     1       2.358   5.203  21.267  0.00  0.00    +0.000 A 
ATOM     11  C   UNL     1       2.087   5.531  19.925  0.00  0.00    +0.000 A 
ATOM     12  C   UNL     1       1.730   4.476  19.065  0.00  0.00    +0.000 A 
BRANCH   7  14
ATOM     13  O   UNL     1       0.151   1.773  18.340  0.00  0.00    +0.000 OA
ATOM     14  C   UNL     1       1.310   2.053  18.607  0.00  0.00    +0.000 C 
BRANCH  14  15
ATOM     15  O   UNL     1       2.368   1.366  18.136  0.00  0.00    +0.000 OA
ATOM     16  H   UNL     1       2.902   0.901  18.825  0.00  0.00    +0.000 HD
ENDBRANCH  14  15
ENDBRANCH   7  14
ENDBRANCH   1  11
BRANCH   6  17
ATOM     17  O   UNL     1       3.280   6.335  17.461  0.00  0.00    +0.000 OA
BRANCH  17  18
ATOM     18  C   UNL     1       4.713   6.254  17.573  0.00  0.00    +0.000 C 
ATOM     19  O   UNL     1       5.131   5.138  18.358  0.00  0.00    +0.000 OA
ATOM     20  C   UNL     1       6.532   4.822  18.331  0.00  0.00    +0.000 C 
ATOM     21  C   UNL     1       6.917   4.474  16.894  0.00  0.00    +0.000 C 
ATOM     22  C   UNL     1       6.638   5.662  15.977  0.00  0.00    +0.000 C 
ATOM     23  C   UNL     1       5.186   6.147  16.099  0.00  0.00    +0.000 C 
BRANCH  21  24
ATOM     24  O   UNL     1       6.132   3.361  16.427  0.00  0.00    +0.000 OA
ATOM     25  H   UNL     1       6.416   2.565  16.921  0.00  0.00    +0.000 HD
ENDBRANCH  21  24
BRANCH  22  26
ATOM     26  O   UNL     1       6.896   5.289  14.616  0.00  0.00    +0.000 OA
ATOM     27  H   UNL     1       6.722   6.088  14.074  0.00  0.00    +0.000 HD
ENDBRANCH  22  26
BRANCH  23  28
ATOM     28  O   UNL     1       5.023   7.425  15.442  0.00  0.00    +0.000 OA
ATOM     29  H   UNL     1       5.298   8.119  16.079  0.00  0.00    +0.000 HD
ENDBRANCH  23  28
BRANCH  20  30
ATOM     30  C   UNL     1       7.415   5.919  18.948  0.00  0.00    +0.000 C 
BRANCH  30  31
ATOM     31  O   UNL     1       7.873   5.531  20.236  0.00  0.00    +0.000 OA
ATOM     32  H   UNL     1       7.860   6.322  20.810  0.00  0.00    +0.000 HD
ENDBRANCH  30  31
ENDBRANCH  20  30
ENDBRANCH  17  18
ENDBRANCH   6  17
TORSDOF 10
ENDMDL
MODEL 3
REMARK VINA RESULT:      -7.9      2.112      5.030
REMARK  Name = 
REMARK  10 active torsions:
REMARK  status: ('A' for Active; 'I' for Inactive)
REMARK    1  A    between atoms: C_2  and  O_3
REMARK    2  A    between atoms: C_2  and  C_4
REMARK    3  A    between atoms: C_8  and  C_9
REMARK    4  A    between atoms: C_14  and  O_15
REMARK    5  A    between atoms: O_15  and  C_16
REMARK    6  A    between atoms: C_18  and  C_19
REMARK    7  A    between atoms: C_19  and  O_20
REMARK    8  A    between atoms: C_21  and  O_22
REMARK    9  A    between atoms: C_23  and  O_24
REMARK   10  A    between atoms: C_25  and  O_26
REMARK                            x       y       z     vdW  Elec       q    Type
REMARK                         _______ _______ _______ _____ _____    ______ ____
ROOT
ATOM      1  C   UNL     1       2.154   6.413  19.528  0.00  0.00    +0.000 A 
ATOM      2  C   UNL     1       1.633   7.389  20.401  0.00  0.00    +0.000 A 
ATOM      3  C   UNL     1       1.596   8.739  20.049  0.00  0.00    +0.000 A 
ATOM      4  C   UNL     1       2.052   9.139  18.800  0.00  0.00    +0.000 A 
ATOM      5  C   UNL     1       2.597   8.202  17.923  0.00  0.00    +0.000 A 
ATOM      6  C   UNL     1       2.680   6.854  18.285  0.00  0.00    +0.000 A 
ENDROOT
BRANCH   1  11
ATOM      7  C   UNL     1       3.196   2.813  20.204  0.00  0.00    +0.000 A 
ATOM      8  C   UNL     1       1.978   2.203  20.491  0.00  0.00    +0.000 A 
ATOM      9  C   UNL     1       0.817   2.967  20.516  0.00  0.00    +0.000 A 
ATOM     10  C   UNL     1       0.877   4.342  20.244  0.00  0.00    +0.000 A 
ATOM     11  C   UNL     1       2.088   4.976  19.909  0.00  0.00    +0.000 A 
ATOM     12  C   UNL     1       3.246   4.176  19.882  0.00  0.00    +0.000 A 
BRANCH   7  14
ATOM     13  O   UNL     1       5.240   1.999  21.088  0.00  0.00    +0.000 OA
ATOM     14  C   UNL     1       4.419   1.987  20.183  0.00  0.00    +0.000 C 
BRANCH  14  15
ATOM     15  O   UNL     1       4.561   1.258  19.060  0.00  0.00    +0.000 OA
ATOM     16  H   UNL     1       4.784   1.782  18.251  0.00  0.00    +0.000 HD
ENDBRANCH  14  15
ENDBRANCH   7  14
ENDBRANCH   1  11
BRANCH   6  17
ATOM     17  O   UNL     1       3.409   5.941  17.571  0.00  0.00    +0.000 OA
BRANCH  17  18
ATOM     18  C   UNL     1       4.848   5.973  17.561  0.00  0.00    +0.000 C 
ATOM     19  O   UNL     1       5.417   4.860  18.252  0.00  0.00    +0.000 OA
ATOM     20  C   UNL     1       6.831   4.661  18.093  0.00  0.00    +0.000 C 
ATOM     21  C   UNL     1       7.116   4.410  16.613  0.00  0.00    +0.000 C 
ATOM     22  C   UNL     1       6.669   5.610  15.784  0.00  0.00    +0.000 C 
ATOM     23  C   UNL     1       5.200   5.970  16.050  0.00  0.00    +0.000 C 
BRANCH  21  24
ATOM     24  O   UNL     1       6.383   3.259  16.156  0.00  0.00    +0.000 OA
ATOM     25  H   UNL     1       6.728   2.475  16.632  0.00  0.00    +0.000 HD
ENDBRANCH  21  24
BRANCH  22  26
ATOM     26  O   UNL     1       6.837   5.321  14.390  0.00  0.00    +0.000 OA
ATOM     27  H   UNL     1       6.982   6.183  13.945  0.00  0.00    +0.000 HD
ENDBRANCH  22  26
BRANCH  23  28
ATOM     28  O   UNL     1       4.882   7.258  15.475  0.00  0.00    +0.000 OA
ATOM     29  H   UNL     1       3.953   7.465  15.714  0.00  0.00    +0.000 HD
ENDBRANCH  23  28
BRANCH  20  30
ATOM     30  C   UNL     1       7.676   5.798  18.691  0.00  0.00    +0.000 C 
BRANCH  30  31
ATOM     31  O   UNL     1       7.923   5.568  20.071  0.00  0.00    +0.000 OA
ATOM     32  H   UNL     1       7.930   4.602  20.217  0.00  0.00    +0.000 HD
ENDBRANCH  30  31
ENDBRANCH  20  30
ENDBRANCH  17  18
ENDBRANCH   6  17
TORSDOF 10
ENDMDL
MODEL 4
REMARK VINA RESULT:      -7.9      1.129      1.269
REMARK  Name = 
REMARK  10 active torsions:
REMARK  status: ('A' for Active; 'I' for Inactive)
REMARK    1  A    between atoms: C_2  and  O_3
REMARK    2  A    between atoms: C_2  and  C_4
REMARK    3  A    between atoms: C_8  and  C_9
REMARK    4  A    between atoms: C_14  and  O_15
REMARK    5  A    between atoms: O_15  and  C_16
REMARK    6  A    between atoms: C_18  and  C_19
REMARK    7  A    between atoms: C_19  and  O_20
REMARK    8  A    between atoms: C_21  and  O_22
REMARK    9  A    between atoms: C_23  and  O_24
REMARK   10  A    between atoms: C_25  and  O_26
REMARK                            x       y       z     vdW  Elec       q    Type
REMARK                         _______ _______ _______ _____ _____    ______ ____
ROOT
ATOM      1  C   UNL     1       2.244   4.696  19.585  0.00  0.00    +0.000 A 
ATOM      2  C   UNL     1       1.085   3.898  19.658  0.00  0.00    +0.000 A 
ATOM      3  C   UNL     1       1.160   2.512  19.800  0.00  0.00    +0.000 A 
ATOM      4  C   UNL     1       2.400   1.895  19.906  0.00  0.00    +0.000 A 
ATOM      5  C   UNL     1       3.567   2.654  19.811  0.00  0.00    +0.000 A 
ATOM      6  C   UNL     1       3.500   4.037  19.623  0.00  0.00    +0.000 A 
ENDROOT
BRANCH   1  11
ATOM      7  C   UNL     1       1.460   8.288  20.579  0.00  0.00    +0.000 A 
ATOM      8  C   UNL     1       1.720   8.983  19.401  0.00  0.00    +0.000 A 
ATOM      9  C   UNL     1       2.199   8.297  18.291  0.00  0.00    +0.000 A 
ATOM     10  C   UNL     1       2.409   6.911  18.360  0.00  0.00    +0.000 A 
ATOM     11  C   UNL     1       2.114   6.177  19.525  0.00  0.00    +0.000 A 
ATOM     12  C   UNL     1       1.621   6.897  20.630  0.00  0.00    +0.000 A 
BRANCH   7  14
ATOM     13  O   UNL     1      -0.197   9.439  21.825  0.00  0.00    +0.000 OA
ATOM     14  C   UNL     1       0.953   9.032  21.748  0.00  0.00    +0.000 C 
BRANCH  14  15
ATOM     15  O   UNL     1       1.884   9.256  22.694  0.00  0.00    +0.000 OA
ATOM     16  H   UNL     1       1.791  10.116  23.173  0.00  0.00    +0.000 HD
ENDBRANCH  14  15
ENDBRANCH   7  14
ENDBRANCH   1  11
BRANCH   6  17
ATOM     17  O   UNL     1       4.596   4.790  19.292  0.00  0.00    +0.000 OA
BRANCH  17  18
ATOM     18  C   UNL     1       5.338   4.545  18.083  0.00  0.00    +0.000 C 
ATOM     19  O   UNL     1       4.510   4.599  16.922  0.00  0.00    +0.000 OA
ATOM     20  C   UNL     1       5.184   4.614  15.653  0.00  0.00    +0.000 C 
ATOM     21  C   UNL     1       6.056   5.867  15.589  0.00  0.00    +0.000 C 
ATOM     22  C   UNL     1       7.083   5.846  16.717  0.00  0.00    +0.000 C 
ATOM     23  C   UNL     1       6.418   5.659  18.089  0.00  0.00    +0.000 C 
BRANCH  21  24
ATOM     24  O   UNL     1       5.244   7.045  15.751  0.00  0.00    +0.000 OA
ATOM     25  H   UNL     1       4.958   7.336  14.861  0.00  0.00    +0.000 HD
ENDBRANCH  21  24
BRANCH  22  26
ATOM     26  O   UNL     1       7.821   7.076  16.717  0.00  0.00    +0.000 OA
ATOM     27  H   UNL     1       7.263   7.733  16.248  0.00  0.00    +0.000 HD
ENDBRANCH  22  26
BRANCH  23  28
ATOM     28  O   UNL     1       7.412   5.367  19.098  0.00  0.00    +0.000 OA
ATOM     29  H   UNL     1       7.967   4.633  18.759  0.00  0.00    +0.000 HD
ENDBRANCH  23  28
BRANCH  20  30
ATOM     30  C   UNL     1       5.958   3.318  15.360  0.00  0.00    +0.000 C 
BRANCH  30  31
ATOM     31  O   UNL     1       6.333   3.256  13.992  0.00  0.00    +0.000 OA
ATOM     32  H   UNL     1       7.130   3.811  13.873  0.00  0.00    +0.000 HD
ENDBRANCH  30  31
ENDBRANCH  20  30
ENDBRANCH  17  18
ENDBRANCH   6  17
TORSDOF 10
ENDMDL
MODEL 5
REMARK VINA RESULT:      -7.7      1.372      1.950
REMARK  Name = 
REMARK  10 active torsions:
REMARK  status: ('A' for Active; 'I' for Inactive)
REMARK    1  A    between atoms: C_2  and  O_3
REMARK    2  A    between atoms: C_2  and  C_4
REMARK    3  A    between atoms: C_8  and  C_9
REMARK    4  A    between atoms: C_14  and  O_15
REMARK    5  A    between atoms: O_15  and  C_16
REMARK    6  A    between atoms: C_18  and  C_19
REMARK    7  A    between atoms: C_19  and  O_20
REMARK    8  A    between atoms: C_21  and  O_22
REMARK    9  A    between atoms: C_23  and  O_24
REMARK   10  A    between atoms: C_25  and  O_26
REMARK                            x       y       z     vdW  Elec       q    Type
REMARK                         _______ _______ _______ _____ _____    ______ ____
ROOT
ATOM      1  C   UNL     1       2.485   4.330  19.140  0.00  0.00    +0.000 A 
ATOM      2  C   UNL     1       1.495   3.432  18.695  0.00  0.00    +0.000 A 
ATOM      3  C   UNL     1       1.784   2.091  18.442  0.00  0.00    +0.000 A 
ATOM      4  C   UNL     1       3.067   1.608  18.662  0.00  0.00    +0.000 A 
ATOM      5  C   UNL     1       4.077   2.476  19.079  0.00  0.00    +0.000 A 
ATOM      6  C   UNL     1       3.806   3.831  19.290  0.00  0.00    +0.000 A 
ENDROOT
BRANCH   1  11
ATOM      7  C   UNL     1       1.893   8.079  18.837  0.00  0.00    +0.000 A 
ATOM      8  C   UNL     1       1.540   8.428  20.139  0.00  0.00    +0.000 A 
ATOM      9  C   UNL     1       1.445   7.439  21.111  0.00  0.00    +0.000 A 
ATOM     10  C   UNL     1       1.711   6.102  20.781  0.00  0.00    +0.000 A 
ATOM     11  C   UNL     1       2.111   5.728  19.484  0.00  0.00    +0.000 A 
ATOM     12  C   UNL     1       2.209   6.751  18.522  0.00  0.00    +0.000 A 
BRANCH   7  14
ATOM     13  O   UNL     1       2.948   9.254  17.069  0.00  0.00    +0.000 OA
ATOM     14  C   UNL     1       1.988   9.141  17.817  0.00  0.00    +0.000 C 
BRANCH  14  15
ATOM     15  O   UNL     1       0.945   9.992  17.821  0.00  0.00    +0.000 OA
ATOM     16  H   UNL     1       0.680  10.319  18.715  0.00  0.00    +0.000 HD
ENDBRANCH  14  15
ENDBRANCH   7  14
ENDBRANCH   1  11
BRANCH   6  17
ATOM     17  O   UNL     1       4.795   4.761  19.469  0.00  0.00    +0.000 OA
BRANCH  17  18
ATOM     18  C   UNL     1       5.836   4.947  18.492  0.00  0.00    +0.000 C 
ATOM     19  O   UNL     1       5.346   5.526  17.284  0.00  0.00    +0.000 OA
ATOM     20  C   UNL     1       6.332   5.979  16.342  0.00  0.00    +0.000 C 
ATOM     21  C   UNL     1       7.163   7.075  17.009  0.00  0.00    +0.000 C 
ATOM     22  C   UNL     1       7.853   6.522  18.253  0.00  0.00    +0.000 C 
ATOM     23  C   UNL     1       6.852   5.870  19.217  0.00  0.00    +0.000 C 
BRANCH  21  24
ATOM     24  O   UNL     1       6.312   8.160  17.422  0.00  0.00    +0.000 OA
ATOM     25  H   UNL     1       6.499   8.346  18.365  0.00  0.00    +0.000 HD
ENDBRANCH  21  24
BRANCH  22  26
ATOM     26  O   UNL     1       8.538   7.582  18.933  0.00  0.00    +0.000 OA
ATOM     27  H   UNL     1       8.685   7.270  19.852  0.00  0.00    +0.000 HD
ENDBRANCH  22  26
BRANCH  23  28
ATOM     28  O   UNL     1       7.548   5.119  20.238  0.00  0.00    +0.000 OA
ATOM     29  H   UNL     1       6.969   5.092  21.029  0.00  0.00    +0.000 HD
ENDBRANCH  23  28
BRANCH  20  30
ATOM     30  C   UNL     1       7.184   4.840  15.758  0.00  0.00    +0.000 C 
BRANCH  30  31
ATOM     31  O   UNL     1       7.792   5.242  14.539  0.00  0.00    +0.000 OA
ATOM     32  H   UNL     1       8.657   5.643  14.753  0.00  0.00    +0.000 HD
ENDBRANCH  30  31
ENDBRANCH  20  30
ENDBRANCH  17  18
ENDBRANCH   6  17
TORSDOF 10
ENDMDL
MODEL 6
REMARK VINA RESULT:      -7.7      2.420      6.530
REMARK  Name = 
REMARK  10 active torsions:
REMARK  status: ('A' for Active; 'I' for Inactive)
REMARK    1  A    between atoms: C_2  and  O_3
REMARK    2  A    between atoms: C_2  and  C_4
REMARK    3  A    between atoms: C_8  and  C_9
REMARK    4  A    between atoms: C_14  and  O_15
REMARK    5  A    between atoms: O_15  and  C_16
REMARK    6  A    between atoms: C_18  and  C_19
REMARK    7  A    between atoms: C_19  and  O_20
REMARK    8  A    between atoms: C_21  and  O_22
REMARK    9  A    between atoms: C_23  and  O_24
REMARK   10  A    between atoms: C_25  and  O_26
REMARK                            x       y       z     vdW  Elec       q    Type
REMARK                         _______ _______ _______ _____ _____    ______ ____
ROOT
ATOM      1  C   UNL     1       4.016   6.763  18.062  0.00  0.00    +0.000 A 
ATOM      2  C   UNL     1       3.403   7.794  17.322  0.00  0.00    +0.000 A 
ATOM      3  C   UNL     1       2.300   8.491  17.814  0.00  0.00    +0.000 A 
ATOM      4  C   UNL     1       1.803   8.195  19.076  0.00  0.00    +0.000 A 
ATOM      5  C   UNL     1       2.370   7.164  19.825  0.00  0.00    +0.000 A 
ATOM      6  C   UNL     1       3.447   6.429  19.319  0.00  0.00    +0.000 A 
ENDROOT
BRANCH   1  11
ATOM      7  C   UNL     1       6.462   5.075  15.682  0.00  0.00    +0.000 A 
ATOM      8  C   UNL     1       7.513   4.736  16.531  0.00  0.00    +0.000 A 
ATOM      9  C   UNL     1       7.455   5.098  17.872  0.00  0.00    +0.000 A 
ATOM     10  C   UNL     1       6.339   5.792  18.363  0.00  0.00    +0.000 A 
ATOM     11  C   UNL     1       5.244   6.110  17.537  0.00  0.00    +0.000 A 
ATOM     12  C   UNL     1       5.326   5.723  16.186  0.00  0.00    +0.000 A 
BRANCH   7  14
ATOM     13  O   UNL     1       5.793   3.857  13.761  0.00  0.00    +0.000 OA
ATOM     14  C   UNL     1       6.540   4.685  14.261  0.00  0.00    +0.000 C 
BRANCH  14  15
ATOM     15  O   UNL     1       7.535   5.291  13.586  0.00  0.00    +0.000 OA
ATOM     16  H   UNL     1       8.410   5.292  14.047  0.00  0.00    +0.000 HD
ENDBRANCH  14  15
ENDBRANCH   7  14
ENDBRANCH   1  11
BRANCH   6  17
ATOM     17  O   UNL     1       3.886   5.269  19.900  0.00  0.00    +0.000 OA
BRANCH  17  18
ATOM     18  C   UNL     1       3.131   4.048  19.800  0.00  0.00    +0.000 C 
ATOM     19  O   UNL     1       1.901   4.229  19.100  0.00  0.00    +0.000 OA
ATOM     20  C   UNL     1       1.191   3.036  18.729  0.00  0.00    +0.000 C 
ATOM     21  C   UNL     1       2.079   2.224  17.787  0.00  0.00    +0.000 C 
ATOM     22  C   UNL     1       3.381   1.851  18.489  0.00  0.00    +0.000 C 
ATOM     23  C   UNL     1       4.096   3.086  19.055  0.00  0.00    +0.000 C 
BRANCH  21  24
ATOM     24  O   UNL     1       2.411   3.004  16.624  0.00  0.00    +0.000 OA
ATOM     25  H   UNL     1       3.385   3.094  16.592  0.00  0.00    +0.000 HD
ENDBRANCH  21  24
BRANCH  22  26
ATOM     26  O   UNL     1       4.253   1.187  17.564  0.00  0.00    +0.000 OA
ATOM     27  H   UNL     1       3.886   1.357  16.669  0.00  0.00    +0.000 HD
ENDBRANCH  22  26
BRANCH  23  28
ATOM     28  O   UNL     1       5.167   2.689  19.943  0.00  0.00    +0.000 OA
ATOM     29  H   UNL     1       4.809   2.701  20.857  0.00  0.00    +0.000 HD
ENDBRANCH  23  28
BRANCH  20  30
ATOM     30  C   UNL     1       0.687   2.228  19.937  0.00  0.00    +0.000 C 
BRANCH  30  31
ATOM     31  O   UNL     1       0.729   3.014  21.119  0.00  0.00    +0.000 OA
ATOM     32  H   UNL     1       0.681   2.408  21.884  0.00  0.00    +0.000 HD
ENDBRANCH  30  31
ENDBRANCH  20  30
ENDBRANCH  17  18
ENDBRANCH   6  17
TORSDOF 10
ENDMDL
MODEL 7
REMARK VINA RESULT:      -7.5      2.156      4.995
REMARK  Name = 
REMARK  10 active torsions:
REMARK  status: ('A' for Active; 'I' for Inactive)
REMARK    1  A    between atoms: C_2  and  O_3
REMARK    2  A    between atoms: C_2  and  C_4
REMARK    3  A    between atoms: C_8  and  C_9
REMARK    4  A    between atoms: C_14  and  O_15
REMARK    5  A    between atoms: O_15  and  C_16
REMARK    6  A    between atoms: C_18  and  C_19
REMARK    7  A    between atoms: C_19  and  O_20
REMARK    8  A    between atoms: C_21  and  O_22
REMARK    9  A    between atoms: C_23  and  O_24
REMARK   10  A    between atoms: C_25  and  O_26
REMARK                            x       y       z     vdW  Elec       q    Type
REMARK                         _______ _______ _______ _____ _____    ______ ____
ROOT
ATOM      1  C   UNL     1       2.200   6.673  19.422  0.00  0.00    +0.000 A 
ATOM      2  C   UNL     1       1.571   7.678  20.184  0.00  0.00    +0.000 A 
ATOM      3  C   UNL     1       1.485   8.994  19.729  0.00  0.00    +0.000 A 
ATOM      4  C   UNL     1       2.000   9.329  18.483  0.00  0.00    +0.000 A 
ATOM      5  C   UNL     1       2.652   8.363  17.715  0.00  0.00    +0.000 A 
ATOM      6  C   UNL     1       2.782   7.053  18.184  0.00  0.00    +0.000 A 
ENDROOT
BRANCH   1  11
ATOM      7  C   UNL     1       3.239   3.060  20.023  0.00  0.00    +0.000 A 
ATOM      8  C   UNL     1       2.132   2.542  20.691  0.00  0.00    +0.000 A 
ATOM      9  C   UNL     1       1.062   3.376  20.993  0.00  0.00    +0.000 A 
ATOM     10  C   UNL     1       1.099   4.728  20.619  0.00  0.00    +0.000 A 
ATOM     11  C   UNL     1       2.186   5.267  19.906  0.00  0.00    +0.000 A 
ATOM     12  C   UNL     1       3.251   4.397  19.605  0.00  0.00    +0.000 A 
BRANCH   7  14
ATOM     13  O   UNL     1       5.228   1.872  20.528  0.00  0.00    +0.000 OA
ATOM     14  C   UNL     1       4.366   2.160  19.711  0.00  0.00    +0.000 C 
BRANCH  14  15
ATOM     15  O   UNL     1       4.377   1.727  18.436  0.00  0.00    +0.000 OA
ATOM     16  H   UNL     1       4.878   0.888  18.287  0.00  0.00    +0.000 HD
ENDBRANCH  14  15
ENDBRANCH   7  14
ENDBRANCH   1  11
BRANCH   6  17
ATOM     17  O   UNL     1       3.604   6.135  17.588  0.00  0.00    +0.000 OA
BRANCH  17  18
ATOM     18  C   UNL     1       5.000   6.409  17.368  0.00  0.00    +0.000 C 
ATOM     19  O   UNL     1       5.774   6.257  18.558  0.00  0.00    +0.000 OA
ATOM     20  C   UNL     1       7.202   6.264  18.401  0.00  0.00    +0.000 C 
ATOM     21  C   UNL     1       7.592   5.086  17.510  0.00  0.00    +0.000 C 
ATOM     22  C   UNL     1       6.923   5.220  16.145  0.00  0.00    +0.000 C 
ATOM     23  C   UNL     1       5.402   5.387  16.271  0.00  0.00    +0.000 C 
BRANCH  21  24
ATOM     24  O   UNL     1       7.149   3.850  18.101  0.00  0.00    +0.000 OA
ATOM     25  H   UNL     1       7.918   3.436  18.543  0.00  0.00    +0.000 HD
ENDBRANCH  21  24
BRANCH  22  26
ATOM     26  O   UNL     1       7.203   4.055  15.356  0.00  0.00    +0.000 OA
ATOM     27  H   UNL     1       8.176   4.036  15.230  0.00  0.00    +0.000 HD
ENDBRANCH  22  26
BRANCH  23  28
ATOM     28  O   UNL     1       4.830   5.785  15.004  0.00  0.00    +0.000 OA
ATOM     29  H   UNL     1       5.566   6.094  14.434  0.00  0.00    +0.000 HD
ENDBRANCH  23  28
BRANCH  20  30
ATOM     30  C   UNL     1       7.752   7.611  17.903  0.00  0.00    +0.000 C 
BRANCH  30  31
ATOM     31  O   UNL     1       8.655   8.165  18.849  0.00  0.00    +0.000 OA
ATOM     32  H   UNL     1       8.282   9.014  19.159  0.00  0.00    +0.000 HD
ENDBRANCH  30  31
ENDBRANCH  20  30
ENDBRANCH  17  18
ENDBRANCH   6  17
TORSDOF 10
ENDMDL
MODEL 8
REMARK VINA RESULT:      -7.5      2.053      5.045
REMARK  Name = 
REMARK  10 active torsions:
REMARK  status: ('A' for Active; 'I' for Inactive)
REMARK    1  A    between atoms: C_2  and  O_3
REMARK    2  A    between atoms: C_2  and  C_4
REMARK    3  A    between atoms: C_8  and  C_9
REMARK    4  A    between atoms: C_14  and  O_15
REMARK    5  A    between atoms: O_15  and  C_16
REMARK    6  A    between atoms: C_18  and  C_19
REMARK    7  A    between atoms: C_19  and  O_20
REMARK    8  A    between atoms: C_21  and  O_22
REMARK    9  A    between atoms: C_23  and  O_24
REMARK   10  A    between atoms: C_25  and  O_26
REMARK                            x       y       z     vdW  Elec       q    Type
REMARK                         _______ _______ _______ _____ _____    ______ ____
ROOT
ATOM      1  C   UNL     1       2.257   6.003  19.184  0.00  0.00    +0.000 A 
ATOM      2  C   UNL     1       1.734   6.681  20.303  0.00  0.00    +0.000 A 
ATOM      3  C   UNL     1       1.632   8.072  20.332  0.00  0.00    +0.000 A 
ATOM      4  C   UNL     1       2.020   8.817  19.226  0.00  0.00    +0.000 A 
ATOM      5  C   UNL     1       2.565   8.178  18.112  0.00  0.00    +0.000 A 
ATOM      6  C   UNL     1       2.714   6.788  18.093  0.00  0.00    +0.000 A 
ENDROOT
BRANCH   1  11
ATOM      7  C   UNL     1       3.410   2.397  19.595  0.00  0.00    +0.000 A 
ATOM      8  C   UNL     1       2.367   1.685  19.007  0.00  0.00    +0.000 A 
ATOM      9  C   UNL     1       1.261   2.370  18.517  0.00  0.00    +0.000 A 
ATOM     10  C   UNL     1       1.203   3.768  18.611  0.00  0.00    +0.000 A 
ATOM     11  C   UNL     1       2.262   4.515  19.162  0.00  0.00    +0.000 A 
ATOM     12  C   UNL     1       3.374   3.797  19.640  0.00  0.00    +0.000 A 
BRANCH   7  14
ATOM     13  O   UNL     1       5.204   2.012  21.096  0.00  0.00    +0.000 OA
ATOM     14  C   UNL     1       4.577   1.655  20.110  0.00  0.00    +0.000 C 
BRANCH  14  15
ATOM     15  O   UNL     1       4.906   0.581  19.369  0.00  0.00    +0.000 OA
ATOM     16  H   UNL     1       5.419  -0.114  19.850  0.00  0.00    +0.000 HD
ENDBRANCH  14  15
ENDBRANCH   7  14
ENDBRANCH   1  11
BRANCH   6  17
ATOM     17  O   UNL     1       3.448   6.138  17.137  0.00  0.00    +0.000 OA
BRANCH  17  18
ATOM     18  C   UNL     1       4.868   6.339  17.016  0.00  0.00    +0.000 C 
ATOM     19  O   UNL     1       5.509   6.445  18.286  0.00  0.00    +0.000 OA
ATOM     20  C   UNL     1       6.945   6.400  18.288  0.00  0.00    +0.000 C 
ATOM     21  C   UNL     1       7.382   5.049  17.723  0.00  0.00    +0.000 C 
ATOM     22  C   UNL     1       6.862   4.885  16.298  0.00  0.00    +0.000 C 
ATOM     23  C   UNL     1       5.343   5.095  16.218  0.00  0.00    +0.000 C 
BRANCH  21  24
ATOM     24  O   UNL     1       6.836   3.979  18.518  0.00  0.00    +0.000 OA
ATOM     25  H   UNL     1       5.909   4.211  18.736  0.00  0.00    +0.000 HD
ENDBRANCH  21  24
BRANCH  22  26
ATOM     26  O   UNL     1       7.180   3.572  15.818  0.00  0.00    +0.000 OA
ATOM     27  H   UNL     1       6.324   3.110  15.690  0.00  0.00    +0.000 HD
ENDBRANCH  22  26
BRANCH  23  28
ATOM     28  O   UNL     1       4.919   5.211  14.840  0.00  0.00    +0.000 OA
ATOM     29  H   UNL     1       5.721   5.133  14.280  0.00  0.00    +0.000 HD
ENDBRANCH  23  28
BRANCH  20  30
ATOM     30  C   UNL     1       7.591   7.596  17.570  0.00  0.00    +0.000 C 
BRANCH  30  31
ATOM     31  O   UNL     1       8.443   8.311  18.454  0.00  0.00    +0.000 OA
ATOM     32  H   UNL     1       9.343   8.306  18.073  0.00  0.00    +0.000 HD
ENDBRANCH  30  31
ENDBRANCH  20  30
ENDBRANCH  17  18
ENDBRANCH   6  17
TORSDOF 10
ENDMDL
MODEL 9
REMARK VINA RESULT:      -7.4      2.105      4.741
REMARK  Name = 
REMARK  10 active torsions:
REMARK  status: ('A' for Active; 'I' for Inactive)
REMARK    1  A    between atoms: C_2  and  O_3
REMARK    2  A    between atoms: C_2  and  C_4
REMARK    3  A    between atoms: C_8  and  C_9
REMARK    4  A    between atoms: C_14  and  O_15
REMARK    5  A    between atoms: O_15  and  C_16
REMARK    6  A    between atoms: C_18  and  C_19
REMARK    7  A    between atoms: C_19  and  O_20
REMARK    8  A    between atoms: C_21  and  O_22
REMARK    9  A    between atoms: C_23  and  O_24
REMARK   10  A    between atoms: C_25  and  O_26
REMARK                            x       y       z     vdW  Elec       q    Type
REMARK                         _______ _______ _______ _____ _____    ______ ____
ROOT
ATOM      1  C   UNL     1       1.930   6.623  19.104  0.00  0.00    +0.000 A 
ATOM      2  C   UNL     1       1.383   7.455  20.101  0.00  0.00    +0.000 A 
ATOM      3  C   UNL     1       1.427   8.845  19.998  0.00  0.00    +0.000 A 
ATOM      4  C   UNL     1       1.992   9.437  18.876  0.00  0.00    +0.000 A 
ATOM      5  C   UNL     1       2.565   8.643  17.883  0.00  0.00    +0.000 A 
ATOM      6  C   UNL     1       2.567   7.250  18.000  0.00  0.00    +0.000 A 
ENDROOT
BRANCH   1  11
ATOM      7  C   UNL     1       1.854   3.107  20.562  0.00  0.00    +0.000 A 
ATOM      8  C   UNL     1       1.638   2.323  19.431  0.00  0.00    +0.000 A 
ATOM      9  C   UNL     1       1.467   2.936  18.196  0.00  0.00    +0.000 A 
ATOM     10  C   UNL     1       1.520   4.334  18.092  0.00  0.00    +0.000 A 
ATOM     11  C   UNL     1       1.779   5.147  19.212  0.00  0.00    +0.000 A 
ATOM     12  C   UNL     1       1.959   4.499  20.449  0.00  0.00    +0.000 A 
BRANCH   7  14
ATOM     13  O   UNL     1       3.108   1.989  22.236  0.00  0.00    +0.000 OA
ATOM     14  C   UNL     1       2.034   2.440  21.866  0.00  0.00    +0.000 C 
BRANCH  14  15
ATOM     15  O   UNL     1       0.899   2.338  22.584  0.00  0.00    +0.000 OA
ATOM     16  H   UNL     1       0.275   3.098  22.483  0.00  0.00    +0.000 HD
ENDBRANCH  14  15
ENDBRANCH   7  14
ENDBRANCH   1  11
BRANCH   6  17
ATOM     17  O   UNL     1       3.312   6.442  17.184  0.00  0.00    +0.000 OA
BRANCH  17  18
ATOM     18  C   UNL     1       4.735   6.310  17.355  0.00  0.00    +0.000 C 
ATOM     19  O   UNL     1       5.077   5.214  18.202  0.00  0.00    +0.000 OA
ATOM     20  C   UNL     1       6.464   4.842  18.242  0.00  0.00    +0.000 C 
ATOM     21  C   UNL     1       6.887   4.416  16.837  0.00  0.00    +0.000 C 
ATOM     22  C   UNL     1       6.692   5.573  15.860  0.00  0.00    +0.000 C 
ATOM     23  C   UNL     1       5.258   6.119  15.906  0.00  0.00    +0.000 C 
BRANCH  21  24
ATOM     24  O   UNL     1       6.075   3.316  16.387  0.00  0.00    +0.000 OA
ATOM     25  H   UNL     1       6.476   2.964  15.566  0.00  0.00    +0.000 HD
ENDBRANCH  21  24
BRANCH  22  26
ATOM     26  O   UNL     1       6.984   5.131  14.528  0.00  0.00    +0.000 OA
ATOM     27  H   UNL     1       7.114   4.160  14.582  0.00  0.00    +0.000 HD
ENDBRANCH  22  26
BRANCH  23  28
ATOM     28  O   UNL     1       5.171   7.373  15.190  0.00  0.00    +0.000 OA
ATOM     29  H   UNL     1       5.230   7.168  14.232  0.00  0.00    +0.000 HD
ENDBRANCH  23  28
BRANCH  20  30
ATOM     30  C   UNL     1       7.368   5.930  18.846  0.00  0.00    +0.000 C 
BRANCH  30  31
ATOM     31  O   UNL     1       7.817   5.549  20.139  0.00  0.00    +0.000 OA
ATOM     32  H   UNL     1       8.588   4.958  20.027  0.00  0.00    +0.000 HD
ENDBRANCH  30  31
ENDBRANCH  20  30
ENDBRANCH  17  18
ENDBRANCH   6  17
TORSDOF 10
ENDMDL
