MODEL 1
REMARK VINA RESULT:      -7.8      0.000      0.000
REMARK  Name = 
REMARK  2 active torsions:
REMARK  status: ('A' for Active; 'I' for Inactive)
REMARK    1  A    between atoms: C_1  and  C_8
REMARK    2  A    between atoms: C_2  and  C_3
REMARK                            x       y       z     vdW  Elec       q    Type
REMARK                         _______ _______ _______ _____ _____    ______ ____
ROOT
ATOM      1  C   UNL     1       7.103   6.834  17.325  0.00  0.00    +0.000 A 
ATOM      2  N   UNL     1       5.907   6.497  17.824  0.00  0.00    +0.000 NA
ATOM      3  C   UNL     1       5.123   5.572  17.207  0.00  0.00    +0.000 A 
ATOM      4  N   UNL     1       3.948   5.244  17.851  0.00  0.00    +0.000 N 
ATOM      5  C   UNL     1       3.238   6.312  18.574  0.00  0.00    +0.000 C 
ATOM      6  C   UNL     1       2.613   5.733  19.850  0.00  0.00    +0.000 C 
ATOM      7  O   UNL     1       1.748   4.626  19.550  0.00  0.00    +0.000 OA
ATOM      8  C   UNL     1       2.490   3.581  18.904  0.00  0.00    +0.000 C 
ATOM      9  C   UNL     1       3.138   4.056  17.589  0.00  0.00    +0.000 C 
ATOM     10  C   UNL     1       5.631   5.036  16.003  0.00  0.00    +0.000 A 
ATOM     11  S   UNL     1       4.952   3.924  14.865  0.00  0.00    +0.000 S 
ATOM     12  C   UNL     1       6.319   3.969  13.852  0.00  0.00    +0.000 A 
ATOM     13  C   UNL     1       7.277   4.827  14.332  0.00  0.00    +0.000 A 
ATOM     14  C   UNL     1       6.887   5.450  15.556  0.00  0.00    +0.000 A 
ATOM     15  N   UNL     1       7.654   6.349  16.215  0.00  0.00    +0.000 NA
ENDROOT
BRANCH   1  16
ATOM     16  C   UNL     1       7.889   7.831  18.055  0.00  0.00    +0.000 C 
ATOM     17  C   UNL     1       8.072   9.097  17.654  0.00  0.00    +0.000 C 
BRANCH  17  18
ATOM     18  C   UNL     1       8.866   9.998  18.416  0.00  0.00    +0.000 A 
ATOM     19  C   UNL     1       9.584  11.106  17.979  0.00  0.00    +0.000 A 
ATOM     20  C   UNL     1      10.221  11.686  19.102  0.00  0.00    +0.000 A 
ATOM     21  C   UNL     1       9.863  10.911  20.175  0.00  0.00    +0.000 A 
ATOM     22  O   UNL     1       9.055   9.899  19.778  0.00  0.00    +0.000 OA
ENDBRANCH  17  18
ENDBRANCH   1  16
TORSDOF 2
ENDMDL
MODEL 2
REMARK VINA RESULT:      -7.7      3.361      6.732
REMARK  Name = 
REMARK  2 active torsions:
REMARK  status: ('A' for Active; 'I' for Inactive)
REMARK    1  A    between atoms: C_1  and  C_8
REMARK    2  A    between atoms: C_2  and  C_3
REMARK                            x       y       z     vdW  Elec       q    Type
REMARK                         _______ _______ _______ _____ _____    ______ ____
ROOT
ATOM      1  C   UNL     1       2.376   6.278  19.689  0.00  0.00    +0.000 A 
ATOM      2  N   UNL     1       3.545   6.270  19.034  0.00  0.00    +0.000 NA
ATOM      3  C   UNL     1       4.042   5.122  18.499  0.00  0.00    +0.000 A 
ATOM      4  N   UNL     1       5.213   5.246  17.780  0.00  0.00    +0.000 N 
ATOM      5  C   UNL     1       6.208   6.225  18.245  0.00  0.00    +0.000 C 
ATOM      6  C   UNL     1       6.886   6.878  17.033  0.00  0.00    +0.000 C 
ATOM      7  O   UNL     1       7.473   5.889  16.171  0.00  0.00    +0.000 OA
ATOM      8  C   UNL     1       6.461   4.993  15.687  0.00  0.00    +0.000 C 
ATOM      9  C   UNL     1       5.736   4.262  16.834  0.00  0.00    +0.000 C 
ATOM     10  C   UNL     1       3.277   3.956  18.717  0.00  0.00    +0.000 A 
ATOM     11  S   UNL     1       3.564   2.301  18.304  0.00  0.00    +0.000 S 
ATOM     12  C   UNL     1       2.101   1.770  18.993  0.00  0.00    +0.000 A 
ATOM     13  C   UNL     1       1.402   2.807  19.559  0.00  0.00    +0.000 A 
ATOM     14  C   UNL     1       2.072   4.059  19.415  0.00  0.00    +0.000 A 
ATOM     15  N   UNL     1       1.592   5.225  19.905  0.00  0.00    +0.000 NA
ENDROOT
BRANCH   1  16
ATOM     16  C   UNL     1       1.906   7.556  20.227  0.00  0.00    +0.000 C 
ATOM     17  C   UNL     1       0.861   7.694  21.055  0.00  0.00    +0.000 C 
BRANCH  17  18
ATOM     18  C   UNL     1       0.460   8.977  21.519  0.00  0.00    +0.000 A 
ATOM     19  C   UNL     1      -0.295   9.298  22.643  0.00  0.00    +0.000 A 
ATOM     20  C   UNL     1      -0.440  10.705  22.687  0.00  0.00    +0.000 A 
ATOM     21  C   UNL     1       0.232  11.183  21.591  0.00  0.00    +0.000 A 
ATOM     22  O   UNL     1       0.773  10.161  20.886  0.00  0.00    +0.000 OA
ENDBRANCH  17  18
ENDBRANCH   1  16
TORSDOF 2
ENDMDL
MODEL 3
REMARK VINA RESULT:      -7.6      4.549      6.068
REMARK  Name = 
REMARK  2 active torsions:
REMARK  status: ('A' for Active; 'I' for Inactive)
REMARK    1  A    between atoms: C_1  and  C_8
REMARK    2  A    between atoms: C_2  and  C_3
REMARK                            x       y       z     vdW  Elec       q    Type
REMARK                         _______ _______ _______ _____ _____    ______ ____
ROOT
ATOM      1  C   UNL     1       4.434   5.153  17.322  0.00  0.00    +0.000 A 
ATOM      2  N   UNL     1       3.651   6.185  17.662  0.00  0.00    +0.000 NA
ATOM      3  C   UNL     1       2.885   6.146  18.785  0.00  0.00    +0.000 A 
ATOM      4  N   UNL     1       2.179   7.295  19.079  0.00  0.00    +0.000 N 
ATOM      5  C   UNL     1       1.639   8.078  17.956  0.00  0.00    +0.000 C 
ATOM      6  C   UNL     1       1.736   9.574  18.286  0.00  0.00    +0.000 C 
ATOM      7  O   UNL     1       1.067   9.879  19.520  0.00  0.00    +0.000 OA
ATOM      8  C   UNL     1       1.664   9.146  20.599  0.00  0.00    +0.000 C 
ATOM      9  C   UNL     1       1.592   7.622  20.377  0.00  0.00    +0.000 C 
ATOM     10  C   UNL     1       2.939   4.947  19.528  0.00  0.00    +0.000 A 
ATOM     11  S   UNL     1       2.084   4.434  20.943  0.00  0.00    +0.000 S 
ATOM     12  C   UNL     1       2.862   2.921  20.987  0.00  0.00    +0.000 A 
ATOM     13  C   UNL     1       3.738   2.771  19.942  0.00  0.00    +0.000 A 
ATOM     14  C   UNL     1       3.781   3.921  19.096  0.00  0.00    +0.000 A 
ATOM     15  N   UNL     1       4.554   4.008  17.990  0.00  0.00    +0.000 NA
ENDROOT
BRANCH   1  16
ATOM     16  C   UNL     1       5.235   5.278  16.103  0.00  0.00    +0.000 C 
ATOM     17  C   UNL     1       5.663   4.243  15.365  0.00  0.00    +0.000 C 
BRANCH  17  18
ATOM     18  C   UNL     1       6.452   4.452  14.201  0.00  0.00    +0.000 A 
ATOM     19  C   UNL     1       6.341   3.844  12.955  0.00  0.00    +0.000 A 
ATOM     20  C   UNL     1       7.352   4.372  12.117  0.00  0.00    +0.000 A 
ATOM     21  C   UNL     1       8.035   5.280  12.885  0.00  0.00    +0.000 A 
ATOM     22  O   UNL     1       7.508   5.337  14.131  0.00  0.00    +0.000 OA
ENDBRANCH  17  18
ENDBRANCH   1  16
TORSDOF 2
ENDMDL
MODEL 4
REMARK VINA RESULT:      -7.5      4.015      6.944
REMARK  Name = 
REMARK  2 active torsions:
REMARK  status: ('A' for Active; 'I' for Inactive)
REMARK    1  A    between atoms: C_1  and  C_8
REMARK    2  A    between atoms: C_2  and  C_3
REMARK                            x       y       z     vdW  Elec       q    Type
REMARK                         _______ _______ _______ _____ _____    ______ ____
ROOT
ATOM      1  C   UNL     1       2.122   6.760  20.039  0.00  0.00    +0.000 A 
ATOM      2  N   UNL     1       3.015   6.582  19.057  0.00  0.00    +0.000 NA
ATOM      3  C   UNL     1       3.614   5.377  18.861  0.00  0.00    +0.000 A 
ATOM      4  N   UNL     1       4.457   5.287  17.773  0.00  0.00    +0.000 N 
ATOM      5  C   UNL     1       5.259   6.471  17.424  0.00  0.00    +0.000 C 
ATOM      6  C   UNL     1       5.371   6.578  15.897  0.00  0.00    +0.000 C 
ATOM      7  O   UNL     1       5.919   5.376  15.330  0.00  0.00    +0.000 OA
ATOM      8  C   UNL     1       5.074   4.257  15.638  0.00  0.00    +0.000 C 
ATOM      9  C   UNL     1       4.920   4.046  17.157  0.00  0.00    +0.000 C 
ATOM     10  C   UNL     1       3.266   4.359  19.775  0.00  0.00    +0.000 A 
ATOM     11  S   UNL     1       3.835   2.734  19.955  0.00  0.00    +0.000 S 
ATOM     12  C   UNL     1       2.818   2.417  21.282  0.00  0.00    +0.000 A 
ATOM     13  C   UNL     1       2.070   3.517  21.620  0.00  0.00    +0.000 A 
ATOM     14  C   UNL     1       2.328   4.635  20.771  0.00  0.00    +0.000 A 
ATOM     15  N   UNL     1       1.728   5.839  20.915  0.00  0.00    +0.000 NA
ENDROOT
BRANCH   1  16
ATOM     16  C   UNL     1       1.515   8.085  20.177  0.00  0.00    +0.000 C 
ATOM     17  C   UNL     1       0.779   8.480  21.226  0.00  0.00    +0.000 C 
BRANCH  17  18
ATOM     18  C   UNL     1       0.212   9.782  21.274  0.00  0.00    +0.000 A 
ATOM     19  C   UNL     1      -0.469  10.471  20.275  0.00  0.00    +0.000 A 
ATOM     20  C   UNL     1      -0.838  11.737  20.789  0.00  0.00    +0.000 A 
ATOM     21  C   UNL     1      -0.370  11.767  22.077  0.00  0.00    +0.000 A 
ATOM     22  O   UNL     1       0.259  10.606  22.379  0.00  0.00    +0.000 OA
ENDBRANCH  17  18
ENDBRANCH   1  16
TORSDOF 2
ENDMDL
MODEL 5
REMARK VINA RESULT:      -7.5      3.730      5.832
REMARK  Name = 
REMARK  2 active torsions:
REMARK  status: ('A' for Active; 'I' for Inactive)
REMARK    1  A    between atoms: C_1  and  C_8
REMARK    2  A    between atoms: C_2  and  C_3
REMARK                            x       y       z     vdW  Elec       q    Type
REMARK                         _______ _______ _______ _____ _____    ______ ____
ROOT
ATOM      1  C   UNL     1       2.786   7.563  17.867  0.00  0.00    +0.000 A 
ATOM      2  N   UNL     1       2.404   6.416  18.443  0.00  0.00    +0.000 NA
ATOM      3  C   UNL     1       3.273   5.380  18.590  0.00  0.00    +0.000 A 
ATOM      4  N   UNL     1       2.795   4.277  19.267  0.00  0.00    +0.000 N 
ATOM      5  C   UNL     1       1.382   3.912  19.078  0.00  0.00    +0.000 C 
ATOM      6  C   UNL     1       0.810   3.390  20.403  0.00  0.00    +0.000 C 
ATOM      7  O   UNL     1       1.583   2.288  20.905  0.00  0.00    +0.000 OA
ATOM      8  C   UNL     1       2.938   2.701  21.137  0.00  0.00    +0.000 C 
ATOM      9  C   UNL     1       3.615   3.219  19.853  0.00  0.00    +0.000 C 
ATOM     10  C   UNL     1       4.568   5.580  18.062  0.00  0.00    +0.000 A 
ATOM     11  S   UNL     1       5.936   4.527  17.948  0.00  0.00    +0.000 S 
ATOM     12  C   UNL     1       6.905   5.703  17.189  0.00  0.00    +0.000 A 
ATOM     13  C   UNL     1       6.216   6.873  16.988  0.00  0.00    +0.000 A 
ATOM     14  C   UNL     1       4.876   6.808  17.475  0.00  0.00    +0.000 A 
ATOM     15  N   UNL     1       3.994   7.829  17.376  0.00  0.00    +0.000 NA
ENDROOT
BRANCH   1  16
ATOM     16  C   UNL     1       1.793   8.633  17.757  0.00  0.00    +0.000 C 
ATOM     17  C   UNL     1       1.326   9.348  18.791  0.00  0.00    +0.000 C 
BRANCH  17  18
ATOM     18  C   UNL     1       0.348  10.361  18.597  0.00  0.00    +0.000 A 
ATOM     19  C   UNL     1      -0.957  10.232  18.132  0.00  0.00    +0.000 A 
ATOM     20  C   UNL     1      -1.542  11.521  18.106  0.00  0.00    +0.000 A 
ATOM     21  C   UNL     1      -0.573  12.380  18.556  0.00  0.00    +0.000 A 
ATOM     22  O   UNL     1       0.560  11.700  18.853  0.00  0.00    +0.000 OA
ENDBRANCH  17  18
ENDBRANCH   1  16
TORSDOF 2
ENDMDL
MODEL 6
REMARK VINA RESULT:      -7.4      4.730      8.597
REMARK  Name = 
REMARK  2 active torsions:
REMARK  status: ('A' for Active; 'I' for Inactive)
REMARK    1  A    between atoms: C_1  and  C_8
REMARK    2  A    between atoms: C_2  and  C_3
REMARK                            x       y       z     vdW  Elec       q    Type
REMARK                         _______ _______ _______ _____ _____    ______ ____
ROOT
ATOM      1  C   UNL     1       9.299  10.676  18.822  0.00  0.00    +0.000 A 
ATOM      2  N   UNL     1       8.960  11.294  19.960  0.00  0.00    +0.000 NA
ATOM      3  C   UNL     1       9.266  12.604  20.167  0.00  0.00    +0.000 A 
ATOM      4  N   UNL     1       8.799  13.158  21.341  0.00  0.00    +0.000 N 
ATOM      5  C   UNL     1       8.767  12.306  22.540  0.00  0.00    +0.000 C 
ATOM      6  C   UNL     1       7.523  12.647  23.373  0.00  0.00    +0.000 C 
ATOM      7  O   UNL     1       7.490  14.044  23.709  0.00  0.00    +0.000 OA
ATOM      8  C   UNL     1       7.457  14.838  22.514  0.00  0.00    +0.000 C 
ATOM      9  C   UNL     1       8.686  14.589  21.618  0.00  0.00    +0.000 C 
ATOM     10  C   UNL     1       9.991  13.239  19.135  0.00  0.00    +0.000 A 
ATOM     11  S   UNL     1      10.654  14.832  19.011  0.00  0.00    +0.000 S 
ATOM     12  C   UNL     1      11.284  14.558  17.454  0.00  0.00    +0.000 A 
ATOM     13  C   UNL     1      11.034  13.279  17.025  0.00  0.00    +0.000 A 
ATOM     14  C   UNL     1      10.305  12.513  17.984  0.00  0.00    +0.000 A 
ATOM     15  N   UNL     1       9.954  11.220  17.800  0.00  0.00    +0.000 NA
ENDROOT
BRANCH   1  16
ATOM     16  C   UNL     1       8.924   9.268  18.674  0.00  0.00    +0.000 C 
ATOM     17  C   UNL     1       8.025   8.809  17.791  0.00  0.00    +0.000 C 
BRANCH  17  18
ATOM     18  C   UNL     1       7.707   7.425  17.723  0.00  0.00    +0.000 A 
ATOM     19  C   UNL     1       7.861   6.449  18.702  0.00  0.00    +0.000 A 
ATOM     20  C   UNL     1       7.411   5.218  18.169  0.00  0.00    +0.000 A 
ATOM     21  C   UNL     1       6.999   5.494  16.890  0.00  0.00    +0.000 A 
ATOM     22  O   UNL     1       7.171   6.808  16.612  0.00  0.00    +0.000 OA
ENDBRANCH  17  18
ENDBRANCH   1  16
TORSDOF 2
ENDMDL
MODEL 7
REMARK VINA RESULT:      -7.3      3.831      6.042
REMARK  Name = 
REMARK  2 active torsions:
REMARK  status: ('A' for Active; 'I' for Inactive)
REMARK    1  A    between atoms: C_1  and  C_8
REMARK    2  A    between atoms: C_2  and  C_3
REMARK                            x       y       z     vdW  Elec       q    Type
REMARK                         _______ _______ _______ _____ _____    ______ ____
ROOT
ATOM      1  C   UNL     1       2.544   6.475  18.615  0.00  0.00    +0.000 A 
ATOM      2  N   UNL     1       3.691   6.199  17.981  0.00  0.00    +0.000 NA
ATOM      3  C   UNL     1       4.045   4.918  17.692  0.00  0.00    +0.000 A 
ATOM      4  N   UNL     1       5.208   4.758  16.967  0.00  0.00    +0.000 N 
ATOM      5  C   UNL     1       6.317   5.690  17.229  0.00  0.00    +0.000 C 
ATOM      6  C   UNL     1       7.041   6.001  15.912  0.00  0.00    +0.000 C 
ATOM      7  O   UNL     1       7.495   4.798  15.271  0.00  0.00    +0.000 OA
ATOM      8  C   UNL     1       6.379   3.945  14.975  0.00  0.00    +0.000 C 
ATOM      9  C   UNL     1       5.598   3.550  16.243  0.00  0.00    +0.000 C 
ATOM     10  C   UNL     1       3.156   3.916  18.138  0.00  0.00    +0.000 A 
ATOM     11  S   UNL     1       3.244   2.189  18.070  0.00  0.00    +0.000 S 
ATOM     12  C   UNL     1       1.744   1.981  18.846  0.00  0.00    +0.000 A 
ATOM     13  C   UNL     1       1.179   3.184  19.187  0.00  0.00    +0.000 A 
ATOM     14  C   UNL     1       1.984   4.296  18.795  0.00  0.00    +0.000 A 
ATOM     15  N   UNL     1       1.649   5.584  19.036  0.00  0.00    +0.000 NA
ENDROOT
BRANCH   1  16
ATOM     16  C   UNL     1       2.233   7.880  18.880  0.00  0.00    +0.000 C 
ATOM     17  C   UNL     1       1.927   8.783  17.937  0.00  0.00    +0.000 C 
BRANCH  17  18
ATOM     18  C   UNL     1       1.653  10.135  18.280  0.00  0.00    +0.000 A 
ATOM     19  C   UNL     1       0.554  10.654  18.957  0.00  0.00    +0.000 A 
ATOM     20  C   UNL     1       0.722  12.056  19.056  0.00  0.00    +0.000 A 
ATOM     21  C   UNL     1       1.914  12.332  18.439  0.00  0.00    +0.000 A 
ATOM     22  O   UNL     1       2.480  11.194  17.971  0.00  0.00    +0.000 OA
ENDBRANCH  17  18
ENDBRANCH   1  16
TORSDOF 2
ENDMDL
MODEL 8
REMARK VINA RESULT:      -7.3      4.378      5.990
REMARK  Name = 
REMARK  2 active torsions:
REMARK  status: ('A' for Active; 'I' for Inactive)
REMARK    1  A    between atoms: C_1  and  C_8
REMARK    2  A    between atoms: C_2  and  C_3
REMARK                            x       y       z     vdW  Elec       q    Type
REMARK                         _______ _______ _______ _____ _____    ______ ____
ROOT
ATOM      1  C   UNL     1       4.084   6.469  17.117  0.00  0.00    +0.000 A 
ATOM      2  N   UNL     1       4.021   5.542  18.081  0.00  0.00    +0.000 NA
ATOM      3  C   UNL     1       3.254   5.730  19.188  0.00  0.00    +0.000 A 
ATOM      4  N   UNL     1       3.202   4.676  20.077  0.00  0.00    +0.000 N 
ATOM      5  C   UNL     1       4.420   3.872  20.265  0.00  0.00    +0.000 C 
ATOM      6  C   UNL     1       4.034   2.400  20.462  0.00  0.00    +0.000 C 
ATOM      7  O   UNL     1       3.118   2.245  21.559  0.00  0.00    +0.000 OA
ATOM      8  C   UNL     1       1.918   2.991  21.308  0.00  0.00    +0.000 C 
ATOM      9  C   UNL     1       2.197   4.496  21.123  0.00  0.00    +0.000 C 
ATOM     10  C   UNL     1       2.578   6.967  19.269  0.00  0.00    +0.000 A 
ATOM     11  S   UNL     1       1.585   7.654  20.508  0.00  0.00    +0.000 S 
ATOM     12  C   UNL     1       1.307   9.086  19.632  0.00  0.00    +0.000 A 
ATOM     13  C   UNL     1       1.968   9.080  18.429  0.00  0.00    +0.000 A 
ATOM     14  C   UNL     1       2.705   7.876  18.217  0.00  0.00    +0.000 A 
ATOM     15  N   UNL     1       3.452   7.640  17.115  0.00  0.00    +0.000 NA
ENDROOT
BRANCH   1  16
ATOM     16  C   UNL     1       4.925   6.186  15.953  0.00  0.00    +0.000 C 
ATOM     17  C   UNL     1       5.429   4.980  15.654  0.00  0.00    +0.000 C 
BRANCH  17  18
ATOM     18  C   UNL     1       6.252   4.794  14.509  0.00  0.00    +0.000 A 
ATOM     19  C   UNL     1       6.067   3.926  13.437  0.00  0.00    +0.000 A 
ATOM     20  C   UNL     1       7.152   4.095  12.545  0.00  0.00    +0.000 A 
ATOM     21  C   UNL     1       7.951   5.057  13.107  0.00  0.00    +0.000 A 
ATOM     22  O   UNL     1       7.425   5.482  14.280  0.00  0.00    +0.000 OA
ENDBRANCH  17  18
ENDBRANCH   1  16
TORSDOF 2
ENDMDL
MODEL 9
REMARK VINA RESULT:      -7.2      4.115      5.723
REMARK  Name = 
REMARK  2 active torsions:
REMARK  status: ('A' for Active; 'I' for Inactive)
REMARK    1  A    between atoms: C_1  and  C_8
REMARK    2  A    between atoms: C_2  and  C_3
REMARK                            x       y       z     vdW  Elec       q    Type
REMARK                         _______ _______ _______ _____ _____    ______ ____
ROOT
ATOM      1  C   UNL     1       2.611   7.523  18.477  0.00  0.00    +0.000 A 
ATOM      2  N   UNL     1       2.356   6.363  19.095  0.00  0.00    +0.000 NA
ATOM      3  C   UNL     1       3.026   5.227  18.762  0.00  0.00    +0.000 A 
ATOM      4  N   UNL     1       2.738   4.108  19.516  0.00  0.00    +0.000 N 
ATOM      5  C   UNL     1       1.353   3.927  19.979  0.00  0.00    +0.000 C 
ATOM      6  C   UNL     1       1.363   3.312  21.385  0.00  0.00    +0.000 C 
ATOM      7  O   UNL     1       2.098   2.077  21.407  0.00  0.00    +0.000 OA
ATOM      8  C   UNL     1       3.459   2.307  21.012  0.00  0.00    +0.000 C 
ATOM      9  C   UNL     1       3.559   2.902  19.594  0.00  0.00    +0.000 C 
ATOM     10  C   UNL     1       3.960   5.347  17.710  0.00  0.00    +0.000 A 
ATOM     11  S   UNL     1       4.952   4.172  16.915  0.00  0.00    +0.000 S 
ATOM     12  C   UNL     1       5.646   5.319  15.866  0.00  0.00    +0.000 A 
ATOM     13  C   UNL     1       5.131   6.574  16.076  0.00  0.00    +0.000 A 
ATOM     14  C   UNL     1       4.158   6.597  17.121  0.00  0.00    +0.000 A 
ATOM     15  N   UNL     1       3.496   7.713  17.502  0.00  0.00    +0.000 NA
ENDROOT
BRANCH   1  16
ATOM     16  C   UNL     1       1.853   8.702  18.901  0.00  0.00    +0.000 C 
ATOM     17  C   UNL     1       1.273   8.842  20.102  0.00  0.00    +0.000 C 
BRANCH  17  18
ATOM     18  C   UNL     1       0.539  10.015  20.428  0.00  0.00    +0.000 A 
ATOM     19  C   UNL     1      -0.540  10.580  19.756  0.00  0.00    +0.000 A 
ATOM     20  C   UNL     1      -0.930  11.747  20.456  0.00  0.00    +0.000 A 
ATOM     21  C   UNL     1      -0.076  11.844  21.524  0.00  0.00    +0.000 A 
ATOM     22  O   UNL     1       0.806  10.816  21.518  0.00  0.00    +0.000 OA
ENDBRANCH  17  18
ENDBRANCH   1  16
TORSDOF 2
ENDMDL
