MODEL 1
REMARK VINA RESULT:      -6.8      0.000      0.000
REMARK  Name = 
REMARK  7 active torsions:
REMARK  status: ('A' for Active; 'I' for Inactive)
REMARK    1  A    between atoms: C_1  and  O_2
REMARK    2  A    between atoms: O_2  and  C_3
REMARK    3  A    between atoms: C_3  and  C_5
REMARK    4  A    between atoms: C_12  and  C_13
REMARK    5  A    between atoms: C_14  and  C_15
REMARK    6  A    between atoms: C_22  and  C_23
REMARK    7  A    between atoms: N_31  and  C_32
REMARK                            x       y       z     vdW  Elec       q    Type
REMARK                         _______ _______ _______ _____ _____    ______ ____
ROOT
ATOM      1  C   UNL     1      -0.572  12.787  20.257  0.00  0.00    +0.000 C 
ATOM      2  C   UNL     1      -1.884  12.932  19.919  0.00  0.00    +0.000 C 
ATOM      3  C   UNL     1      -2.766  11.829  19.368  0.00  0.00    +0.000 C 
ATOM      4  N   UNL     1      -2.532  14.157  20.061  0.00  0.00    +0.000 N 
ATOM      5  C   UNL     1      -1.898  15.292  20.419  0.00  0.00    +0.000 A 
ATOM      6  C   UNL     1      -2.264  16.610  20.481  0.00  0.00    +0.000 A 
ATOM      7  C   UNL     1      -1.105  17.276  20.934  0.00  0.00    +0.000 A 
ATOM      8  N   UNL     1      -0.091  16.440  21.179  0.00  0.00    +0.000 NA
ATOM      9  N   UNL     1      -0.584  15.238  20.797  0.00  0.00    +0.000 N 
ATOM     10  C   UNL     1       0.204  13.991  20.837  0.00  0.00    +0.000 C 
ATOM     11  H   UNL     1      -3.500  14.187  19.745  0.00  0.00    +0.000 HD
ENDROOT
BRANCH   1  19
ATOM     12  C   UNL     1       2.207   7.699  18.933  0.00  0.00    +0.000 A 
ATOM     13  C   UNL     1       1.913   7.379  20.269  0.00  0.00    +0.000 A 
ATOM     14  C   UNL     1       1.222   8.271  21.097  0.00  0.00    +0.000 A 
ATOM     15  C   UNL     1       0.839   9.493  20.537  0.00  0.00    +0.000 A 
ATOM     16  C   UNL     1       1.112   9.834  19.216  0.00  0.00    +0.000 A 
ATOM     17  C   UNL     1       1.805   8.933  18.396  0.00  0.00    +0.000 A 
ATOM     18  N   UNL     1       0.620  11.081  18.926  0.00  0.00    +0.000 NA
ATOM     19  C   UNL     1       0.060  11.523  20.033  0.00  0.00    +0.000 A 
ATOM     20  N   UNL     1       0.166  10.587  21.040  0.00  0.00    +0.000 N 
ATOM     21  C   UNL     1      -0.335  10.665  22.392  0.00  0.00    +0.000 C 
BRANCH  12  22
ATOM     22  C   UNL     1       2.943   6.759  18.043  0.00  0.00    +0.000 C 
ATOM     23  O   UNL     1       2.653   5.580  17.916  0.00  0.00    +0.000 OA
BRANCH  22  25
ATOM     24  C   UNL     1       4.855   6.527  16.718  0.00  0.00    +0.000 C 
ATOM     25  O   UNL     1       3.964   7.398  17.418  0.00  0.00    +0.000 OA
ENDBRANCH  22  25
ENDBRANCH  12  22
ENDBRANCH   1  19
BRANCH  10  26
ATOM     26  C   UNL     1       1.576  14.211  20.202  0.00  0.00    +0.000 A 
ATOM     27  C   UNL     1       1.715  14.443  18.824  0.00  0.00    +0.000 A 
ATOM     28  C   UNL     1       2.973  14.692  18.269  0.00  0.00    +0.000 A 
ATOM     29  C   UNL     1       4.110  14.706  19.080  0.00  0.00    +0.000 A 
ATOM     30 CL   UNL     1       5.629  15.045  18.329  0.00  0.00    +0.000 Cl
ATOM     31  C   UNL     1       3.989  14.459  20.450  0.00  0.00    +0.000 A 
ATOM     32 CL   UNL     1       5.350  14.460  21.517  0.00  0.00    +0.000 Cl
ATOM     33  C   UNL     1       2.729  14.212  21.007  0.00  0.00    +0.000 A 
ENDBRANCH  10  26
TORSDOF 4
ENDMDL
MODEL 2
REMARK VINA RESULT:      -6.7      0.709      1.463
REMARK  Name = 
REMARK  7 active torsions:
REMARK  status: ('A' for Active; 'I' for Inactive)
REMARK    1  A    between atoms: C_1  and  O_2
REMARK    2  A    between atoms: O_2  and  C_3
REMARK    3  A    between atoms: C_3  and  C_5
REMARK    4  A    between atoms: C_12  and  C_13
REMARK    5  A    between atoms: C_14  and  C_15
REMARK    6  A    between atoms: C_22  and  C_23
REMARK    7  A    between atoms: N_31  and  C_32
REMARK                            x       y       z     vdW  Elec       q    Type
REMARK                         _______ _______ _______ _____ _____    ______ ____
ROOT
ATOM      1  C   UNL     1      -0.679  12.909  20.381  0.00  0.00    +0.000 C 
ATOM      2  C   UNL     1      -1.958  13.081  19.943  0.00  0.00    +0.000 C 
ATOM      3  C   UNL     1      -2.784  12.024  19.238  0.00  0.00    +0.000 C 
ATOM      4  N   UNL     1      -2.621  14.293  20.120  0.00  0.00    +0.000 N 
ATOM      5  C   UNL     1      -2.026  15.397  20.615  0.00  0.00    +0.000 A 
ATOM      6  C   UNL     1      -2.403  16.708  20.743  0.00  0.00    +0.000 A 
ATOM      7  C   UNL     1      -1.290  17.336  21.342  0.00  0.00    +0.000 A 
ATOM      8  N   UNL     1      -0.296  16.483  21.611  0.00  0.00    +0.000 NA
ATOM      9  N   UNL     1      -0.749  15.314  21.099  0.00  0.00    +0.000 N 
ATOM     10  C   UNL     1       0.038  14.066  21.113  0.00  0.00    +0.000 C 
ATOM     11  H   UNL     1      -3.559  14.348  19.725  0.00  0.00    +0.000 HD
ENDROOT
BRANCH   1  19
ATOM     12  C   UNL     1       2.197   7.918  18.906  0.00  0.00    +0.000 A 
ATOM     13  C   UNL     1       1.890   7.544  20.224  0.00  0.00    +0.000 A 
ATOM     14  C   UNL     1       1.174   8.392  21.076  0.00  0.00    +0.000 A 
ATOM     15  C   UNL     1       0.780   9.629  20.556  0.00  0.00    +0.000 A 
ATOM     16  C   UNL     1       1.066  10.024  19.254  0.00  0.00    +0.000 A 
ATOM     17  C   UNL     1       1.784   9.166  18.410  0.00  0.00    +0.000 A 
ATOM     18  N   UNL     1       0.558  11.273  19.004  0.00  0.00    +0.000 NA
ATOM     19  C   UNL     1      -0.025  11.665  20.119  0.00  0.00    +0.000 A 
ATOM     20  N   UNL     1       0.082  10.693  21.091  0.00  0.00    +0.000 N 
ATOM     21  C   UNL     1      -0.438  10.712  22.437  0.00  0.00    +0.000 C 
BRANCH  12  22
ATOM     22  C   UNL     1       2.961   7.024  17.992  0.00  0.00    +0.000 C 
ATOM     23  O   UNL     1       3.938   7.385  17.354  0.00  0.00    +0.000 OA
BRANCH  22  25
ATOM     24  C   UNL     1       3.350   4.738  17.699  0.00  0.00    +0.000 C 
ATOM     25  O   UNL     1       2.415   5.783  17.974  0.00  0.00    +0.000 OA
ENDBRANCH  22  25
ENDBRANCH  12  22
ENDBRANCH   1  19
BRANCH  10  26
ATOM     26  C   UNL     1       1.458  14.330  20.617  0.00  0.00    +0.000 A 
ATOM     27  C   UNL     1       2.575  14.081  21.431  0.00  0.00    +0.000 A 
ATOM     28  C   UNL     1       3.869  14.280  20.943  0.00  0.00    +0.000 A 
ATOM     29  C   UNL     1       4.066  14.739  19.639  0.00  0.00    +0.000 A 
ATOM     30 CL   UNL     1       5.694  14.940  19.095  0.00  0.00    +0.000 Cl
ATOM     31  C   UNL     1       2.964  15.009  18.823  0.00  0.00    +0.000 A 
ATOM     32 CL   UNL     1       3.129  15.580  17.199  0.00  0.00    +0.000 Cl
ATOM     33  C   UNL     1       1.669  14.807  19.311  0.00  0.00    +0.000 A 
ENDBRANCH  10  26
TORSDOF 4
ENDMDL
MODEL 3
REMARK VINA RESULT:      -6.5      1.058      1.427
REMARK  Name = 
REMARK  7 active torsions:
REMARK  status: ('A' for Active; 'I' for Inactive)
REMARK    1  A    between atoms: C_1  and  O_2
REMARK    2  A    between atoms: O_2  and  C_3
REMARK    3  A    between atoms: C_3  and  C_5
REMARK    4  A    between atoms: C_12  and  C_13
REMARK    5  A    between atoms: C_14  and  C_15
REMARK    6  A    between atoms: C_22  and  C_23
REMARK    7  A    between atoms: N_31  and  C_32
REMARK                            x       y       z     vdW  Elec       q    Type
REMARK                         _______ _______ _______ _____ _____    ______ ____
ROOT
ATOM      1  C   UNL     1      -0.440  11.580  19.794  0.00  0.00    +0.000 C 
ATOM      2  C   UNL     1      -1.736  11.574  19.373  0.00  0.00    +0.000 C 
ATOM      3  C   UNL     1      -2.401  10.435  18.626  0.00  0.00    +0.000 C 
ATOM      4  N   UNL     1      -2.574  12.661  19.609  0.00  0.00    +0.000 N 
ATOM      5  C   UNL     1      -2.147  13.820  20.150  0.00  0.00    +0.000 A 
ATOM      6  C   UNL     1      -2.717  15.051  20.341  0.00  0.00    +0.000 A 
ATOM      7  C   UNL     1      -1.705  15.815  20.960  0.00  0.00    +0.000 A 
ATOM      8  N   UNL     1      -0.589  15.112  21.183  0.00  0.00    +0.000 NA
ATOM      9  N   UNL     1      -0.865  13.911  20.621  0.00  0.00    +0.000 N 
ATOM     10  C   UNL     1       0.102  12.799  20.573  0.00  0.00    +0.000 C 
ATOM     11  H   UNL     1      -3.514  12.590  19.224  0.00  0.00    +0.000 HD
ENDROOT
BRANCH   1  19
ATOM     12  C   UNL     1       3.168   7.170  18.091  0.00  0.00    +0.000 A 
ATOM     13  C   UNL     1       2.856   6.645  19.355  0.00  0.00    +0.000 A 
ATOM     14  C   UNL     1       1.990   7.311  20.230  0.00  0.00    +0.000 A 
ATOM     15  C   UNL     1       1.452   8.524  19.789  0.00  0.00    +0.000 A 
ATOM     16  C   UNL     1       1.739   9.066  18.541  0.00  0.00    +0.000 A 
ATOM     17  C   UNL     1       2.608   8.390  17.673  0.00  0.00    +0.000 A 
ATOM     18  N   UNL     1       1.074  10.252  18.363  0.00  0.00    +0.000 NA
ATOM     19  C   UNL     1       0.393  10.463  19.471  0.00  0.00    +0.000 A 
ATOM     20  N   UNL     1       0.590   9.433  20.367  0.00  0.00    +0.000 N 
ATOM     21  C   UNL     1       0.010   9.265  21.678  0.00  0.00    +0.000 C 
BRANCH  12  22
ATOM     22  C   UNL     1       4.089   6.471  17.153  0.00  0.00    +0.000 C 
ATOM     23  O   UNL     1       4.890   7.049  16.435  0.00  0.00    +0.000 OA
BRANCH  22  25
ATOM     24  C   UNL     1       4.851   4.373  16.460  0.00  0.00    +0.000 C 
ATOM     25  O   UNL     1       3.902   5.129  17.215  0.00  0.00    +0.000 OA
ENDBRANCH  22  25
ENDBRANCH  12  22
ENDBRANCH   1  19
BRANCH  10  26
ATOM     26  C   UNL     1       1.459  13.299  20.080  0.00  0.00    +0.000 A 
ATOM     27  C   UNL     1       1.694  13.553  18.719  0.00  0.00    +0.000 A 
ATOM     28  C   UNL     1       2.924  14.059  18.293  0.00  0.00    +0.000 A 
ATOM     29  C   UNL     1       3.941  14.309  19.217  0.00  0.00    +0.000 A 
ATOM     30 CL   UNL     1       5.429  14.956  18.620  0.00  0.00    +0.000 Cl
ATOM     31  C   UNL     1       3.728  14.043  20.572  0.00  0.00    +0.000 A 
ATOM     32 CL   UNL     1       4.939  14.327  21.775  0.00  0.00    +0.000 Cl
ATOM     33  C   UNL     1       2.495  13.540  21.000  0.00  0.00    +0.000 A 
ENDBRANCH  10  26
TORSDOF 4
ENDMDL
MODEL 4
REMARK VINA RESULT:      -6.5      3.619      4.897
REMARK  Name = 
REMARK  7 active torsions:
REMARK  status: ('A' for Active; 'I' for Inactive)
REMARK    1  A    between atoms: C_1  and  O_2
REMARK    2  A    between atoms: O_2  and  C_3
REMARK    3  A    between atoms: C_3  and  C_5
REMARK    4  A    between atoms: C_12  and  C_13
REMARK    5  A    between atoms: C_14  and  C_15
REMARK    6  A    between atoms: C_22  and  C_23
REMARK    7  A    between atoms: N_31  and  C_32
REMARK                            x       y       z     vdW  Elec       q    Type
REMARK                         _______ _______ _______ _____ _____    ______ ____
ROOT
ATOM      1  C   UNL     1      -1.288  13.677  22.115  0.00  0.00    +0.000 C 
ATOM      2  C   UNL     1      -1.959  13.384  23.264  0.00  0.00    +0.000 C 
ATOM      3  C   UNL     1      -2.923  12.228  23.436  0.00  0.00    +0.000 C 
ATOM      4  N   UNL     1      -1.799  14.163  24.408  0.00  0.00    +0.000 N 
ATOM      5  C   UNL     1      -1.082  15.304  24.431  0.00  0.00    +0.000 A 
ATOM      6  C   UNL     1      -0.900  16.298  25.357  0.00  0.00    +0.000 A 
ATOM      7  C   UNL     1      -0.023  17.208  24.728  0.00  0.00    +0.000 A 
ATOM      8  N   UNL     1       0.354  16.805  23.510  0.00  0.00    +0.000 NA
ATOM      9  N   UNL     1      -0.357  15.667  23.329  0.00  0.00    +0.000 N 
ATOM     10  C   UNL     1      -0.310  14.873  22.086  0.00  0.00    +0.000 C 
ATOM     11  H   UNL     1      -2.370  13.898  25.209  0.00  0.00    +0.000 HD
ENDROOT
BRANCH   1  19
ATOM     12  C   UNL     1      -2.643  10.668  17.168  0.00  0.00    +0.000 A 
ATOM     13  C   UNL     1      -1.468   9.962  17.469  0.00  0.00    +0.000 A 
ATOM     14  C   UNL     1      -0.702  10.268  18.600  0.00  0.00    +0.000 A 
ATOM     15  C   UNL     1      -1.158  11.309  19.413  0.00  0.00    +0.000 A 
ATOM     16  C   UNL     1      -2.321  12.022  19.142  0.00  0.00    +0.000 A 
ATOM     17  C   UNL     1      -3.080  11.707  18.007  0.00  0.00    +0.000 A 
ATOM     18  N   UNL     1      -2.538  12.978  20.101  0.00  0.00    +0.000 NA
ATOM     19  C   UNL     1      -1.537  12.881  20.952  0.00  0.00    +0.000 A 
ATOM     20  N   UNL     1      -0.673  11.875  20.575  0.00  0.00    +0.000 N 
ATOM     21  C   UNL     1       0.527  11.428  21.242  0.00  0.00    +0.000 C 
BRANCH  12  22
ATOM     22  C   UNL     1      -3.464  10.352  15.966  0.00  0.00    +0.000 C 
ATOM     23  O   UNL     1      -4.590  10.789  15.782  0.00  0.00    +0.000 OA
BRANCH  22  25
ATOM     24  C   UNL     1      -2.935   9.840  13.748  0.00  0.00    +0.000 C 
ATOM     25  O   UNL     1      -2.789   9.522  15.133  0.00  0.00    +0.000 OA
ENDBRANCH  22  25
ENDBRANCH  12  22
ENDBRANCH   1  19
BRANCH  10  26
ATOM     26  C   UNL     1      -0.474  15.783  20.870  0.00  0.00    +0.000 A 
ATOM     27  C   UNL     1      -1.681  16.454  20.617  0.00  0.00    +0.000 A 
ATOM     28  C   UNL     1      -1.797  17.321  19.529  0.00  0.00    +0.000 A 
ATOM     29  C   UNL     1      -0.712  17.524  18.672  0.00  0.00    +0.000 A 
ATOM     30 CL   UNL     1      -0.921  18.630  17.360  0.00  0.00    +0.000 Cl
ATOM     31  C   UNL     1       0.489  16.850  18.901  0.00  0.00    +0.000 A 
ATOM     32 CL   UNL     1       1.875  17.050  17.885  0.00  0.00    +0.000 Cl
ATOM     33  C   UNL     1       0.607  15.983  19.992  0.00  0.00    +0.000 A 
ENDBRANCH  10  26
TORSDOF 4
ENDMDL
MODEL 5
REMARK VINA RESULT:      -6.4      3.785      6.373
REMARK  Name = 
REMARK  7 active torsions:
REMARK  status: ('A' for Active; 'I' for Inactive)
REMARK    1  A    between atoms: C_1  and  O_2
REMARK    2  A    between atoms: O_2  and  C_3
REMARK    3  A    between atoms: C_3  and  C_5
REMARK    4  A    between atoms: C_12  and  C_13
REMARK    5  A    between atoms: C_14  and  C_15
REMARK    6  A    between atoms: C_22  and  C_23
REMARK    7  A    between atoms: N_31  and  C_32
REMARK                            x       y       z     vdW  Elec       q    Type
REMARK                         _______ _______ _______ _____ _____    ______ ____
ROOT
ATOM      1  C   UNL     1      -0.817  14.471  22.494  0.00  0.00    +0.000 C 
ATOM      2  C   UNL     1      -1.053  15.299  23.550  0.00  0.00    +0.000 C 
ATOM      3  C   UNL     1      -0.197  16.492  23.926  0.00  0.00    +0.000 C 
ATOM      4  N   UNL     1      -2.141  15.095  24.394  0.00  0.00    +0.000 N 
ATOM      5  C   UNL     1      -2.954  14.023  24.307  0.00  0.00    +0.000 A 
ATOM      6  C   UNL     1      -3.968  13.529  25.084  0.00  0.00    +0.000 A 
ATOM      7  C   UNL     1      -4.389  12.360  24.412  0.00  0.00    +0.000 A 
ATOM      8  N   UNL     1      -3.720  12.150  23.274  0.00  0.00    +0.000 NA
ATOM      9  N   UNL     1      -2.806  13.148  23.265  0.00  0.00    +0.000 N 
ATOM     10  C   UNL     1      -1.789  13.304  22.208  0.00  0.00    +0.000 C 
ATOM     11  H   UNL     1      -2.219  15.735  25.182  0.00  0.00    +0.000 HD
ENDROOT
BRANCH   1  19
ATOM     12  C   UNL     1       4.257  15.100  19.456  0.00  0.00    +0.000 A 
ATOM     13  C   UNL     1       3.427  15.733  18.517  0.00  0.00    +0.000 A 
ATOM     14  C   UNL     1       2.053  15.879  18.738  0.00  0.00    +0.000 A 
ATOM     15  C   UNL     1       1.544  15.364  19.934  0.00  0.00    +0.000 A 
ATOM     16  C   UNL     1       2.342  14.736  20.884  0.00  0.00    +0.000 A 
ATOM     17  C   UNL     1       3.717  14.596  20.652  0.00  0.00    +0.000 A 
ATOM     18  N   UNL     1       1.592  14.336  21.960  0.00  0.00    +0.000 NA
ATOM     19  C   UNL     1       0.350  14.690  21.696  0.00  0.00    +0.000 A 
ATOM     20  N   UNL     1       0.274  15.323  20.474  0.00  0.00    +0.000 N 
ATOM     21  C   UNL     1      -0.888  15.886  19.828  0.00  0.00    +0.000 C 
BRANCH  12  22
ATOM     22  C   UNL     1       5.720  14.937  19.230  0.00  0.00    +0.000 C 
ATOM     23  O   UNL     1       6.558  15.067  20.108  0.00  0.00    +0.000 OA
BRANCH  22  25
ATOM     24  C   UNL     1       7.332  14.298  17.663  0.00  0.00    +0.000 C 
ATOM     25  O   UNL     1       5.970  14.636  17.931  0.00  0.00    +0.000 OA
ENDBRANCH  22  25
ENDBRANCH  12  22
ENDBRANCH   1  19
BRANCH  10  26
ATOM     26  C   UNL     1      -1.097  11.969  21.937  0.00  0.00    +0.000 A 
ATOM     27  C   UNL     1      -0.773  11.090  22.982  0.00  0.00    +0.000 A 
ATOM     28  C   UNL     1      -0.187   9.851  22.712  0.00  0.00    +0.000 A 
ATOM     29  C   UNL     1       0.093   9.477  21.396  0.00  0.00    +0.000 A 
ATOM     30 CL   UNL     1       0.797   7.920  21.135  0.00  0.00    +0.000 Cl
ATOM     31  C   UNL     1      -0.208  10.349  20.347  0.00  0.00    +0.000 A 
ATOM     32 CL   UNL     1       0.108   9.956  18.692  0.00  0.00    +0.000 Cl
ATOM     33  C   UNL     1      -0.798  11.588  20.617  0.00  0.00    +0.000 A 
ENDBRANCH  10  26
TORSDOF 4
ENDMDL
MODEL 6
REMARK VINA RESULT:      -6.4      3.865      4.984
REMARK  Name = 
REMARK  7 active torsions:
REMARK  status: ('A' for Active; 'I' for Inactive)
REMARK    1  A    between atoms: C_1  and  O_2
REMARK    2  A    between atoms: O_2  and  C_3
REMARK    3  A    between atoms: C_3  and  C_5
REMARK    4  A    between atoms: C_12  and  C_13
REMARK    5  A    between atoms: C_14  and  C_15
REMARK    6  A    between atoms: C_22  and  C_23
REMARK    7  A    between atoms: N_31  and  C_32
REMARK                            x       y       z     vdW  Elec       q    Type
REMARK                         _______ _______ _______ _____ _____    ______ ____
ROOT
ATOM      1  C   UNL     1      -1.257  13.698  21.984  0.00  0.00    +0.000 C 
ATOM      2  C   UNL     1      -2.004  13.456  23.098  0.00  0.00    +0.000 C 
ATOM      3  C   UNL     1      -3.043  12.360  23.226  0.00  0.00    +0.000 C 
ATOM      4  N   UNL     1      -1.858  14.234  24.244  0.00  0.00    +0.000 N 
ATOM      5  C   UNL     1      -1.077  15.331  24.299  0.00  0.00    +0.000 A 
ATOM      6  C   UNL     1      -0.885  16.320  25.227  0.00  0.00    +0.000 A 
ATOM      7  C   UNL     1       0.076  17.172  24.639  0.00  0.00    +0.000 A 
ATOM      8  N   UNL     1       0.493  16.736  23.446  0.00  0.00    +0.000 NA
ATOM      9  N   UNL     1      -0.275  15.640  23.234  0.00  0.00    +0.000 N 
ATOM     10  C   UNL     1      -0.209  14.834  22.001  0.00  0.00    +0.000 C 
ATOM     11  H   UNL     1      -2.485  14.010  25.016  0.00  0.00    +0.000 HD
ENDROOT
BRANCH   1  19
ATOM     12  C   UNL     1      -2.520  10.734  16.986  0.00  0.00    +0.000 A 
ATOM     13  C   UNL     1      -1.424   9.945  17.369  0.00  0.00    +0.000 A 
ATOM     14  C   UNL     1      -0.711  10.207  18.544  0.00  0.00    +0.000 A 
ATOM     15  C   UNL     1      -1.137  11.290  19.317  0.00  0.00    +0.000 A 
ATOM     16  C   UNL     1      -2.221  12.087  18.965  0.00  0.00    +0.000 A 
ATOM     17  C   UNL     1      -2.929  11.815  17.786  0.00  0.00    +0.000 A 
ATOM     18  N   UNL     1      -2.426  13.069  19.900  0.00  0.00    +0.000 NA
ATOM     19  C   UNL     1      -1.491  12.908  20.815  0.00  0.00    +0.000 A 
ATOM     20  N   UNL     1      -0.685  11.834  20.503  0.00  0.00    +0.000 N 
ATOM     21  C   UNL     1       0.431  11.305  21.250  0.00  0.00    +0.000 C 
BRANCH  12  22
ATOM     22  C   UNL     1      -3.285  10.466  15.736  0.00  0.00    +0.000 C 
ATOM     23  O   UNL     1      -4.501  10.372  15.695  0.00  0.00    +0.000 OA
BRANCH  22  25
ATOM     24  C   UNL     1      -3.019   9.683  13.550  0.00  0.00    +0.000 C 
ATOM     25  O   UNL     1      -2.442  10.338  14.681  0.00  0.00    +0.000 OA
ENDBRANCH  22  25
ENDBRANCH  12  22
ENDBRANCH   1  19
BRANCH  10  26
ATOM     26  C   UNL     1      -0.255  15.740  20.772  0.00  0.00    +0.000 A 
ATOM     27  C   UNL     1       0.825  15.815  19.878  0.00  0.00    +0.000 A 
ATOM     28  C   UNL     1       0.745  16.610  18.732  0.00  0.00    +0.000 A 
ATOM     29  C   UNL     1      -0.410  17.350  18.468  0.00  0.00    +0.000 A 
ATOM     30 CL   UNL     1      -0.446  18.293  17.020  0.00  0.00    +0.000 Cl
ATOM     31  C   UNL     1      -1.486  17.300  19.358  0.00  0.00    +0.000 A 
ATOM     32 CL   UNL     1      -2.948  18.187  19.098  0.00  0.00    +0.000 Cl
ATOM     33  C   UNL     1      -1.408  16.501  20.503  0.00  0.00    +0.000 A 
ENDBRANCH  10  26
TORSDOF 4
ENDMDL
MODEL 7
REMARK VINA RESULT:      -6.3      4.321      7.476
REMARK  Name = 
REMARK  7 active torsions:
REMARK  status: ('A' for Active; 'I' for Inactive)
REMARK    1  A    between atoms: C_1  and  O_2
REMARK    2  A    between atoms: O_2  and  C_3
REMARK    3  A    between atoms: C_3  and  C_5
REMARK    4  A    between atoms: C_12  and  C_13
REMARK    5  A    between atoms: C_14  and  C_15
REMARK    6  A    between atoms: C_22  and  C_23
REMARK    7  A    between atoms: N_31  and  C_32
REMARK                            x       y       z     vdW  Elec       q    Type
REMARK                         _______ _______ _______ _____ _____    ______ ____
ROOT
ATOM      1  C   UNL     1      -0.288  11.493  21.214  0.00  0.00    +0.000 C 
ATOM      2  C   UNL     1      -0.222  10.252  21.772  0.00  0.00    +0.000 C 
ATOM      3  C   UNL     1      -0.754   9.887  23.143  0.00  0.00    +0.000 C 
ATOM      4  N   UNL     1       0.368   9.188  21.093  0.00  0.00    +0.000 N 
ATOM      5  C   UNL     1       1.008   9.327  19.914  0.00  0.00    +0.000 A 
ATOM      6  C   UNL     1       1.775   8.496  19.141  0.00  0.00    +0.000 A 
ATOM      7  C   UNL     1       2.141   9.287  18.031  0.00  0.00    +0.000 A 
ATOM      8  N   UNL     1       1.614  10.515  18.074  0.00  0.00    +0.000 NA
ATOM      9  N   UNL     1       0.975  10.533  19.268  0.00  0.00    +0.000 N 
ATOM     10  C   UNL     1       0.271  11.719  19.791  0.00  0.00    +0.000 C 
ATOM     11  H   UNL     1       0.412   8.306  21.601  0.00  0.00    +0.000 HD
ENDROOT
BRANCH   1  19
ATOM     12  C   UNL     1      -2.209  15.994  24.592  0.00  0.00    +0.000 A 
ATOM     13  C   UNL     1      -3.342  15.917  23.766  0.00  0.00    +0.000 A 
ATOM     14  C   UNL     1      -3.434  14.970  22.739  0.00  0.00    +0.000 A 
ATOM     15  C   UNL     1      -2.347  14.107  22.572  0.00  0.00    +0.000 A 
ATOM     16  C   UNL     1      -1.215  14.158  23.377  0.00  0.00    +0.000 A 
ATOM     17  C   UNL     1      -1.134  15.110  24.402  0.00  0.00    +0.000 A 
ATOM     18  N   UNL     1      -0.310  13.198  23.002  0.00  0.00    +0.000 NA
ATOM     19  C   UNL     1      -0.848  12.563  21.981  0.00  0.00    +0.000 A 
ATOM     20  N   UNL     1      -2.091  13.080  21.686  0.00  0.00    +0.000 N 
ATOM     21  C   UNL     1      -3.019  12.656  20.664  0.00  0.00    +0.000 C 
BRANCH  12  22
ATOM     22  C   UNL     1      -2.100  16.999  25.685  0.00  0.00    +0.000 C 
ATOM     23  O   UNL     1      -2.700  18.062  25.689  0.00  0.00    +0.000 OA
BRANCH  22  25
ATOM     24  C   UNL     1      -0.414  17.587  27.194  0.00  0.00    +0.000 C 
ATOM     25  O   UNL     1      -1.248  16.564  26.647  0.00  0.00    +0.000 OA
ENDBRANCH  22  25
ENDBRANCH  12  22
ENDBRANCH   1  19
BRANCH  10  26
ATOM     26  C   UNL     1       1.154  12.959  19.659  0.00  0.00    +0.000 A 
ATOM     27  C   UNL     1       0.830  13.995  18.768  0.00  0.00    +0.000 A 
ATOM     28  C   UNL     1       1.621  15.145  18.698  0.00  0.00    +0.000 A 
ATOM     29  C   UNL     1       2.750  15.273  19.510  0.00  0.00    +0.000 A 
ATOM     30 CL   UNL     1       3.668  16.732  19.387  0.00  0.00    +0.000 Cl
ATOM     31  C   UNL     1       3.095  14.242  20.389  0.00  0.00    +0.000 A 
ATOM     32 CL   UNL     1       4.477  14.329  21.424  0.00  0.00    +0.000 Cl
ATOM     33  C   UNL     1       2.302  13.092  20.461  0.00  0.00    +0.000 A 
ENDBRANCH  10  26
TORSDOF 4
ENDMDL
MODEL 8
REMARK VINA RESULT:      -6.3      4.463      7.591
REMARK  Name = 
REMARK  7 active torsions:
REMARK  status: ('A' for Active; 'I' for Inactive)
REMARK    1  A    between atoms: C_1  and  O_2
REMARK    2  A    between atoms: O_2  and  C_3
REMARK    3  A    between atoms: C_3  and  C_5
REMARK    4  A    between atoms: C_12  and  C_13
REMARK    5  A    between atoms: C_14  and  C_15
REMARK    6  A    between atoms: C_22  and  C_23
REMARK    7  A    between atoms: N_31  and  C_32
REMARK                            x       y       z     vdW  Elec       q    Type
REMARK                         _______ _______ _______ _____ _____    ______ ____
ROOT
ATOM      1  C   UNL     1      -0.290  11.313  21.180  0.00  0.00    +0.000 C 
ATOM      2  C   UNL     1      -0.035  10.113  21.773  0.00  0.00    +0.000 C 
ATOM      3  C   UNL     1      -0.373   9.764  23.208  0.00  0.00    +0.000 C 
ATOM      4  N   UNL     1       0.584   9.082  21.070  0.00  0.00    +0.000 N 
ATOM      5  C   UNL     1       1.074   9.226  19.822  0.00  0.00    +0.000 A 
ATOM      6  C   UNL     1       1.834   8.439  18.998  0.00  0.00    +0.000 A 
ATOM      7  C   UNL     1       1.991   9.208  17.825  0.00  0.00    +0.000 A 
ATOM      8  N   UNL     1       1.348  10.378  17.883  0.00  0.00    +0.000 NA
ATOM      9  N   UNL     1       0.845  10.391  19.140  0.00  0.00    +0.000 N 
ATOM     10  C   UNL     1       0.083  11.525  19.695  0.00  0.00    +0.000 C 
ATOM     11  H   UNL     1       0.775   8.234  21.602  0.00  0.00    +0.000 HD
ENDROOT
BRANCH   1  19
ATOM     12  C   UNL     1      -2.291  15.745  24.603  0.00  0.00    +0.000 A 
ATOM     13  C   UNL     1      -3.473  15.563  23.868  0.00  0.00    +0.000 A 
ATOM     14  C   UNL     1      -3.569  14.586  22.871  0.00  0.00    +0.000 A 
ATOM     15  C   UNL     1      -2.436  13.802  22.638  0.00  0.00    +0.000 A 
ATOM     16  C   UNL     1      -1.253  13.957  23.353  0.00  0.00    +0.000 A 
ATOM     17  C   UNL     1      -1.168  14.939  24.350  0.00  0.00    +0.000 A 
ATOM     18  N   UNL     1      -0.308  13.057  22.930  0.00  0.00    +0.000 NA
ATOM     19  C   UNL     1      -0.872  12.358  21.966  0.00  0.00    +0.000 A 
ATOM     20  N   UNL     1      -2.169  12.774  21.756  0.00  0.00    +0.000 N 
ATOM     21  C   UNL     1      -3.135  12.256  20.817  0.00  0.00    +0.000 C 
BRANCH  12  22
ATOM     22  C   UNL     1      -2.176  16.783  25.664  0.00  0.00    +0.000 C 
ATOM     23  O   UNL     1      -2.862  17.793  25.700  0.00  0.00    +0.000 OA
BRANCH  22  25
ATOM     24  C   UNL     1      -0.496  17.560  27.092  0.00  0.00    +0.000 C 
ATOM     25  O   UNL     1      -1.215  16.446  26.559  0.00  0.00    +0.000 OA
ENDBRANCH  22  25
ENDBRANCH  12  22
ENDBRANCH   1  19
BRANCH  10  26
ATOM     26  C   UNL     1       0.812  12.839  19.419  0.00  0.00    +0.000 A 
ATOM     27  C   UNL     1       2.208  12.938  19.534  0.00  0.00    +0.000 A 
ATOM     28  C   UNL     1       2.863  14.134  19.228  0.00  0.00    +0.000 A 
ATOM     29  C   UNL     1       2.133  15.249  18.811  0.00  0.00    +0.000 A 
ATOM     30 CL   UNL     1       3.012  16.687  18.426  0.00  0.00    +0.000 Cl
ATOM     31  C   UNL     1       0.742  15.170  18.708  0.00  0.00    +0.000 A 
ATOM     32 CL   UNL     1      -0.229  16.508  18.199  0.00  0.00    +0.000 Cl
ATOM     33  C   UNL     1       0.086  13.973  19.012  0.00  0.00    +0.000 A 
ENDBRANCH  10  26
TORSDOF 4
ENDMDL
MODEL 9
REMARK VINA RESULT:      -6.2      7.972     10.282
REMARK  Name = 
REMARK  7 active torsions:
REMARK  status: ('A' for Active; 'I' for Inactive)
REMARK    1  A    between atoms: C_1  and  O_2
REMARK    2  A    between atoms: O_2  and  C_3
REMARK    3  A    between atoms: C_3  and  C_5
REMARK    4  A    between atoms: C_12  and  C_13
REMARK    5  A    between atoms: C_14  and  C_15
REMARK    6  A    between atoms: C_22  and  C_23
REMARK    7  A    between atoms: N_31  and  C_32
REMARK                            x       y       z     vdW  Elec       q    Type
REMARK                         _______ _______ _______ _____ _____    ______ ____
ROOT
ATOM      1  C   UNL     1       9.647  16.040  21.057  0.00  0.00    +0.000 C 
ATOM      2  C   UNL     1       9.277  17.336  20.853  0.00  0.00    +0.000 C 
ATOM      3  C   UNL     1       8.290  18.102  21.709  0.00  0.00    +0.000 C 
ATOM      4  N   UNL     1       9.803  18.074  19.796  0.00  0.00    +0.000 N 
ATOM      5  C   UNL     1      10.603  17.545  18.848  0.00  0.00    +0.000 A 
ATOM      6  C   UNL     1      11.113  18.006  17.663  0.00  0.00    +0.000 A 
ATOM      7  C   UNL     1      11.873  16.926  17.164  0.00  0.00    +0.000 A 
ATOM      8  N   UNL     1      11.879  15.873  17.988  0.00  0.00    +0.000 NA
ATOM      9  N   UNL     1      11.043  16.256  18.983  0.00  0.00    +0.000 N 
ATOM     10  C   UNL     1      10.690  15.388  20.121  0.00  0.00    +0.000 C 
ATOM     11  H   UNL     1       9.441  19.021  19.692  0.00  0.00    +0.000 HD
ENDROOT
BRANCH   1  19
ATOM     12  C   UNL     1       6.854  12.767  25.162  0.00  0.00    +0.000 A 
ATOM     13  C   UNL     1       7.787  13.355  26.032  0.00  0.00    +0.000 A 
ATOM     14  C   UNL     1       8.741  14.268  25.569  0.00  0.00    +0.000 A 
ATOM     15  C   UNL     1       8.724  14.569  24.204  0.00  0.00    +0.000 A 
ATOM     16  C   UNL     1       7.809  14.006  23.321  0.00  0.00    +0.000 A 
ATOM     17  C   UNL     1       6.858  13.092  23.795  0.00  0.00    +0.000 A 
ATOM     18  N   UNL     1       8.010  14.478  22.049  0.00  0.00    +0.000 NA
ATOM     19  C   UNL     1       9.030  15.309  22.121  0.00  0.00    +0.000 A 
ATOM     20  N   UNL     1       9.495  15.398  23.415  0.00  0.00    +0.000 N 
ATOM     21  C   UNL     1      10.574  16.211  23.926  0.00  0.00    +0.000 C 
BRANCH  12  22
ATOM     22  C   UNL     1       5.836  11.792  25.642  0.00  0.00    +0.000 C 
ATOM     23  O   UNL     1       5.207  11.051  24.903  0.00  0.00    +0.000 OA
BRANCH  22  25
ATOM     24  C   UNL     1       5.732  10.582  27.640  0.00  0.00    +0.000 C 
ATOM     25  O   UNL     1       5.716  11.856  26.992  0.00  0.00    +0.000 OA
ENDBRANCH  22  25
ENDBRANCH  12  22
ENDBRANCH   1  19
BRANCH  10  26
ATOM     26  C   UNL     1      10.296  13.998  19.625  0.00  0.00    +0.000 A 
ATOM     27  C   UNL     1      10.909  12.840  20.131  0.00  0.00    +0.000 A 
ATOM     28  C   UNL     1      10.501  11.575  19.702  0.00  0.00    +0.000 A 
ATOM     29  C   UNL     1       9.482  11.447  18.756  0.00  0.00    +0.000 A 
ATOM     30 CL   UNL     1       9.013   9.850  18.290  0.00  0.00    +0.000 Cl
ATOM     31  C   UNL     1       8.875  12.590  18.230  0.00  0.00    +0.000 A 
ATOM     32 CL   UNL     1       7.607  12.512  17.057  0.00  0.00    +0.000 Cl
ATOM     33  C   UNL     1       9.281  13.857  18.661  0.00  0.00    +0.000 A 
ENDBRANCH  10  26
TORSDOF 4
ENDMDL
