MODEL 1
REMARK VINA RESULT:      -8.5      0.000      0.000
REMARK  Name = 
REMARK  4 active torsions:
REMARK  status: ('A' for Active; 'I' for Inactive)
REMARK    1  A    between atoms: C_1  and  C_2
REMARK    2  A    between atoms: C_4  and  C_5
REMARK    3  A    between atoms: C_14  and  C_15
REMARK    4  A    between atoms: C_20  and  C_22
REMARK                            x       y       z     vdW  Elec       q    Type
REMARK                         _______ _______ _______ _____ _____    ______ ____
ROOT
ATOM      1  C   UNL     1       8.186   5.232  19.560  0.00  0.00    +0.000 C 
ATOM      2  C   UNL     1       7.971   6.478  18.742  0.00  0.00    +0.000 A 
ATOM      3  C   UNL     1       8.556   7.671  19.200  0.00  0.00    +0.000 A 
ATOM      4  C   UNL     1       8.419   8.846  18.464  0.00  0.00    +0.000 A 
ATOM      5  N   UNL     1       7.629   8.899  17.368  0.00  0.00    +0.000 NA
ATOM      6  C   UNL     1       7.043   7.747  16.956  0.00  0.00    +0.000 A 
ATOM      7  C   UNL     1       7.216   6.499  17.554  0.00  0.00    +0.000 A 
ENDROOT
BRANCH   4   8
ATOM      8  C   UNL     1       9.175  10.077  18.786  0.00  0.00    +0.000 A 
ATOM      9  C   UNL     1       9.385  10.482  20.113  0.00  0.00    +0.000 A 
ATOM     10  C   UNL     1      10.072  11.663  20.422  0.00  0.00    +0.000 A 
ATOM     11  C   UNL     1      10.571  12.468  19.405  0.00  0.00    +0.000 A 
ATOM     12  C   UNL     1      10.374  12.090  18.082  0.00  0.00    +0.000 A 
ATOM     13 CL   UNL     1      10.969  13.093  16.813  0.00  0.00    +0.000 Cl
ATOM     14  C   UNL     1       9.689  10.916  17.775  0.00  0.00    +0.000 A 
ENDBRANCH   4   8
BRANCH   7  15
ATOM     15  C   UNL     1       6.769   5.236  16.845  0.00  0.00    +0.000 C 
ATOM     16  C   UNL     1       7.319   5.235  15.405  0.00  0.00    +0.000 C 
ATOM     17  C   UNL     1       6.480   4.193  14.690  0.00  0.00    +0.000 C 
ATOM     18  C   UNL     1       5.133   4.244  15.395  0.00  0.00    +0.000 C 
ATOM     19  N   UNL     1       5.342   4.962  16.647  0.00  0.00    +0.000 N 
ATOM     20  C   UNL     1       4.437   4.897  17.709  0.00  0.00    +0.000 C 
ATOM     21  O   UNL     1       4.717   5.389  18.806  0.00  0.00    +0.000 OA
BRANCH  20  22
ATOM     22  C   UNL     1       3.102   4.119  17.449  0.00  0.00    +0.000 C 
ATOM     23  C   UNL     1       2.991   2.674  18.007  0.00  0.00    +0.000 C 
ATOM     24  C   UNL     1       1.522   2.954  18.354  0.00  0.00    +0.000 C 
ATOM     25  C   UNL     1       1.842   4.456  18.291  0.00  0.00    +0.000 C 
ENDBRANCH  20  22
ENDBRANCH   7  15
TORSDOF 3
ENDMDL
MODEL 2
REMARK VINA RESULT:      -8.2      1.003      1.273
REMARK  Name = 
REMARK  4 active torsions:
REMARK  status: ('A' for Active; 'I' for Inactive)
REMARK    1  A    between atoms: C_1  and  C_2
REMARK    2  A    between atoms: C_4  and  C_5
REMARK    3  A    between atoms: C_14  and  C_15
REMARK    4  A    between atoms: C_20  and  C_22
REMARK                            x       y       z     vdW  Elec       q    Type
REMARK                         _______ _______ _______ _____ _____    ______ ____
ROOT
ATOM      1  C   UNL     1       8.374   5.440  19.586  0.00  0.00    +0.000 C 
ATOM      2  C   UNL     1       7.941   6.589  18.713  0.00  0.00    +0.000 A 
ATOM      3  C   UNL     1       8.486   7.856  18.981  0.00  0.00    +0.000 A 
ATOM      4  C   UNL     1       8.147   8.947  18.183  0.00  0.00    +0.000 A 
ATOM      5  N   UNL     1       7.205   8.844  17.218  0.00  0.00    +0.000 NA
ATOM      6  C   UNL     1       6.662   7.621  16.994  0.00  0.00    +0.000 A 
ATOM      7  C   UNL     1       7.023   6.448  17.656  0.00  0.00    +0.000 A 
ENDROOT
BRANCH   4   8
ATOM      8  C   UNL     1       8.837  10.251  18.286  0.00  0.00    +0.000 A 
ATOM      9  C   UNL     1       8.353  11.391  17.627  0.00  0.00    +0.000 A 
ATOM     10  C   UNL     1       9.020  12.621  17.695  0.00  0.00    +0.000 A 
ATOM     11  C   UNL     1      10.192  12.740  18.432  0.00  0.00    +0.000 A 
ATOM     12  C   UNL     1      10.695  11.625  19.092  0.00  0.00    +0.000 A 
ATOM     13 CL   UNL     1      12.160  11.756  19.990  0.00  0.00    +0.000 Cl
ATOM     14  C   UNL     1      10.031  10.402  19.023  0.00  0.00    +0.000 A 
ENDBRANCH   4   8
BRANCH   7  15
ATOM     15  C   UNL     1       6.584   5.098  17.126  0.00  0.00    +0.000 C 
ATOM     16  C   UNL     1       7.051   4.944  15.665  0.00  0.00    +0.000 C 
ATOM     17  C   UNL     1       6.211   3.800  15.128  0.00  0.00    +0.000 C 
ATOM     18  C   UNL     1       4.905   3.893  15.903  0.00  0.00    +0.000 C 
ATOM     19  N   UNL     1       5.159   4.759  17.047  0.00  0.00    +0.000 N 
ATOM     20  C   UNL     1       4.318   4.792  18.163  0.00  0.00    +0.000 C 
ATOM     21  O   UNL     1       4.641   5.418  19.177  0.00  0.00    +0.000 OA
BRANCH  20  22
ATOM     22  C   UNL     1       3.000   3.950  18.076  0.00  0.00    +0.000 C 
ATOM     23  C   UNL     1       2.960   2.596  18.838  0.00  0.00    +0.000 C 
ATOM     24  C   UNL     1       1.498   2.883  19.207  0.00  0.00    +0.000 C 
ATOM     25  C   UNL     1       1.765   4.368  18.918  0.00  0.00    +0.000 C 
ENDBRANCH  20  22
ENDBRANCH   7  15
TORSDOF 3
ENDMDL
MODEL 3
REMARK VINA RESULT:      -7.9      4.690      6.748
REMARK  Name = 
REMARK  4 active torsions:
REMARK  status: ('A' for Active; 'I' for Inactive)
REMARK    1  A    between atoms: C_1  and  C_2
REMARK    2  A    between atoms: C_4  and  C_5
REMARK    3  A    between atoms: C_14  and  C_15
REMARK    4  A    between atoms: C_20  and  C_22
REMARK                            x       y       z     vdW  Elec       q    Type
REMARK                         _______ _______ _______ _____ _____    ______ ____
ROOT
ATOM      1  C   UNL     1       3.243   4.146  20.139  0.00  0.00    +0.000 C 
ATOM      2  C   UNL     1       3.263   5.443  19.374  0.00  0.00    +0.000 A 
ATOM      3  C   UNL     1       2.264   6.388  19.663  0.00  0.00    +0.000 A 
ATOM      4  C   UNL     1       2.255   7.619  19.010  0.00  0.00    +0.000 A 
ATOM      5  N   UNL     1       3.122   7.888  18.008  0.00  0.00    +0.000 NA
ATOM      6  C   UNL     1       4.061   6.952  17.717  0.00  0.00    +0.000 A 
ATOM      7  C   UNL     1       4.226   5.743  18.393  0.00  0.00    +0.000 A 
ENDROOT
BRANCH   4   8
ATOM      8  C   UNL     1       1.359   8.725  19.413  0.00  0.00    +0.000 A 
ATOM      9  C   UNL     1       0.928   9.692  18.491  0.00  0.00    +0.000 A 
ATOM     10  C   UNL     1       0.106  10.760  18.874  0.00  0.00    +0.000 A 
ATOM     11  C   UNL     1      -0.311  10.882  20.194  0.00  0.00    +0.000 A 
ATOM     12  C   UNL     1       0.104   9.939  21.127  0.00  0.00    +0.000 A 
ATOM     13 CL   UNL     1      -0.389  10.094  22.771  0.00  0.00    +0.000 Cl
ATOM     14  C   UNL     1       0.923   8.878  20.745  0.00  0.00    +0.000 A 
ENDBRANCH   4   8
BRANCH   7  15
ATOM     15  C   UNL     1       5.480   4.915  18.195  0.00  0.00    +0.000 C 
ATOM     16  C   UNL     1       6.615   5.488  19.066  0.00  0.00    +0.000 C 
ATOM     17  C   UNL     1       7.875   4.882  18.477  0.00  0.00    +0.000 C 
ATOM     18  C   UNL     1       7.552   4.700  17.001  0.00  0.00    +0.000 C 
ATOM     19  N   UNL     1       6.105   4.820  16.872  0.00  0.00    +0.000 N 
ATOM     20  C   UNL     1       5.413   4.361  15.748  0.00  0.00    +0.000 C 
ATOM     21  O   UNL     1       4.178   4.337  15.735  0.00  0.00    +0.000 OA
BRANCH  20  22
ATOM     22  C   UNL     1       6.279   3.830  14.556  0.00  0.00    +0.000 C 
ATOM     23  C   UNL     1       5.547   3.503  13.225  0.00  0.00    +0.000 C 
ATOM     24  C   UNL     1       6.750   4.070  12.460  0.00  0.00    +0.000 C 
ATOM     25  C   UNL     1       7.151   4.821  13.739  0.00  0.00    +0.000 C 
ENDBRANCH  20  22
ENDBRANCH   7  15
TORSDOF 3
ENDMDL
MODEL 4
REMARK VINA RESULT:      -7.8      6.687      9.498
REMARK  Name = 
REMARK  4 active torsions:
REMARK  status: ('A' for Active; 'I' for Inactive)
REMARK    1  A    between atoms: C_1  and  C_2
REMARK    2  A    between atoms: C_4  and  C_5
REMARK    3  A    between atoms: C_14  and  C_15
REMARK    4  A    between atoms: C_20  and  C_22
REMARK                            x       y       z     vdW  Elec       q    Type
REMARK                         _______ _______ _______ _____ _____    ______ ____
ROOT
ATOM      1  C   UNL     1       0.782   8.733  21.454  0.00  0.00    +0.000 C 
ATOM      2  C   UNL     1       1.293   8.707  20.038  0.00  0.00    +0.000 A 
ATOM      3  C   UNL     1       2.099   7.622  19.654  0.00  0.00    +0.000 A 
ATOM      4  C   UNL     1       2.570   7.529  18.346  0.00  0.00    +0.000 A 
ATOM      5  N   UNL     1       2.370   8.526  17.455  0.00  0.00    +0.000 NA
ATOM      6  C   UNL     1       1.617   9.583  17.851  0.00  0.00    +0.000 A 
ATOM      7  C   UNL     1       1.003   9.711  19.096  0.00  0.00    +0.000 A 
ENDROOT
BRANCH   4   8
ATOM      8  C   UNL     1       3.248   6.318  17.830  0.00  0.00    +0.000 A 
ATOM      9  C   UNL     1       4.482   6.396  17.167  0.00  0.00    +0.000 A 
ATOM     10  C   UNL     1       5.112   5.257  16.648  0.00  0.00    +0.000 A 
ATOM     11  C   UNL     1       4.521   4.007  16.787  0.00  0.00    +0.000 A 
ATOM     12  C   UNL     1       3.297   3.904  17.438  0.00  0.00    +0.000 A 
ATOM     13 CL   UNL     1       2.544   2.362  17.595  0.00  0.00    +0.000 Cl
ATOM     14  C   UNL     1       2.671   5.037  17.952  0.00  0.00    +0.000 A 
ENDBRANCH   4   8
BRANCH   7  15
ATOM     15  C   UNL     1      -0.054  10.772  19.328  0.00  0.00    +0.000 C 
ATOM     16  C   UNL     1      -1.386  10.315  18.699  0.00  0.00    +0.000 C 
ATOM     17  C   UNL     1      -2.208  11.587  18.610  0.00  0.00    +0.000 C 
ATOM     18  C   UNL     1      -1.178  12.691  18.422  0.00  0.00    +0.000 C 
ATOM     19  N   UNL     1       0.116  12.121  18.781  0.00  0.00    +0.000 N 
ATOM     20  C   UNL     1       1.227  12.915  19.076  0.00  0.00    +0.000 C 
ATOM     21  O   UNL     1       2.261  12.409  19.524  0.00  0.00    +0.000 OA
BRANCH  20  22
ATOM     22  C   UNL     1       1.064  14.460  18.870  0.00  0.00    +0.000 C 
ATOM     23  C   UNL     1       0.916  15.342  20.140  0.00  0.00    +0.000 C 
ATOM     24  C   UNL     1       1.779  16.413  19.458  0.00  0.00    +0.000 C 
ATOM     25  C   UNL     1       2.305  15.321  18.513  0.00  0.00    +0.000 C 
ENDBRANCH  20  22
ENDBRANCH   7  15
TORSDOF 3
ENDMDL
MODEL 5
REMARK VINA RESULT:      -7.7      6.953      9.647
REMARK  Name = 
REMARK  4 active torsions:
REMARK  status: ('A' for Active; 'I' for Inactive)
REMARK    1  A    between atoms: C_1  and  C_2
REMARK    2  A    between atoms: C_4  and  C_5
REMARK    3  A    between atoms: C_14  and  C_15
REMARK    4  A    between atoms: C_20  and  C_22
REMARK                            x       y       z     vdW  Elec       q    Type
REMARK                         _______ _______ _______ _____ _____    ______ ____
ROOT
ATOM      1  C   UNL     1       0.708   8.732  21.831  0.00  0.00    +0.000 C 
ATOM      2  C   UNL     1       1.120   8.766  20.383  0.00  0.00    +0.000 A 
ATOM      3  C   UNL     1       1.980   7.754  19.923  0.00  0.00    +0.000 A 
ATOM      4  C   UNL     1       2.364   7.717  18.584  0.00  0.00    +0.000 A 
ATOM      5  N   UNL     1       2.024   8.707  17.729  0.00  0.00    +0.000 NA
ATOM      6  C   UNL     1       1.220   9.696  18.196  0.00  0.00    +0.000 A 
ATOM      7  C   UNL     1       0.686   9.757  19.483  0.00  0.00    +0.000 A 
ENDROOT
BRANCH   4   8
ATOM      8  C   UNL     1       3.097   6.572  18.001  0.00  0.00    +0.000 A 
ATOM      9  C   UNL     1       4.320   6.747  17.336  0.00  0.00    +0.000 A 
ATOM     10  C   UNL     1       5.003   5.671  16.753  0.00  0.00    +0.000 A 
ATOM     11  C   UNL     1       4.476   4.388  16.826  0.00  0.00    +0.000 A 
ATOM     12  C   UNL     1       3.263   4.187  17.476  0.00  0.00    +0.000 A 
ATOM     13 CL   UNL     1       2.589   2.603  17.553  0.00  0.00    +0.000 Cl
ATOM     14  C   UNL     1       2.585   5.259  18.055  0.00  0.00    +0.000 A 
ENDBRANCH   4   8
BRANCH   7  15
ATOM     15  C   UNL     1      -0.432  10.726  19.808  0.00  0.00    +0.000 C 
ATOM     16  C   UNL     1      -1.542  10.603  18.745  0.00  0.00    +0.000 C 
ATOM     17  C   UNL     1      -2.360  11.869  18.915  0.00  0.00    +0.000 C 
ATOM     18  C   UNL     1      -1.356  12.905  19.399  0.00  0.00    +0.000 C 
ATOM     19  N   UNL     1      -0.177  12.170  19.841  0.00  0.00    +0.000 N 
ATOM     20  C   UNL     1       0.794  12.739  20.669  0.00  0.00    +0.000 C 
ATOM     21  O   UNL     1       1.697  12.047  21.149  0.00  0.00    +0.000 OA
BRANCH  20  22
ATOM     22  C   UNL     1       0.635  14.263  20.996  0.00  0.00    +0.000 C 
ATOM     23  C   UNL     1      -0.022  14.642  22.353  0.00  0.00    +0.000 C 
ATOM     24  C   UNL     1       0.971  15.805  22.473  0.00  0.00    +0.000 C 
ATOM     25  C   UNL     1       1.869  15.083  21.457  0.00  0.00    +0.000 C 
ENDBRANCH  20  22
ENDBRANCH   7  15
TORSDOF 3
ENDMDL
MODEL 6
REMARK VINA RESULT:      -7.7      6.500      9.199
REMARK  Name = 
REMARK  4 active torsions:
REMARK  status: ('A' for Active; 'I' for Inactive)
REMARK    1  A    between atoms: C_1  and  C_2
REMARK    2  A    between atoms: C_4  and  C_5
REMARK    3  A    between atoms: C_14  and  C_15
REMARK    4  A    between atoms: C_20  and  C_22
REMARK                            x       y       z     vdW  Elec       q    Type
REMARK                         _______ _______ _______ _____ _____    ______ ____
ROOT
ATOM      1  C   UNL     1       0.653   8.537  21.578  0.00  0.00    +0.000 C 
ATOM      2  C   UNL     1       1.177   8.614  20.168  0.00  0.00    +0.000 A 
ATOM      3  C   UNL     1       2.074   7.617  19.749  0.00  0.00    +0.000 A 
ATOM      4  C   UNL     1       2.563   7.620  18.444  0.00  0.00    +0.000 A 
ATOM      5  N   UNL     1       2.288   8.634  17.593  0.00  0.00    +0.000 NA
ATOM      6  C   UNL     1       1.446   9.607  18.024  0.00  0.00    +0.000 A 
ATOM      7  C   UNL     1       0.812   9.630  19.266  0.00  0.00    +0.000 A 
ENDROOT
BRANCH   4   8
ATOM      8  C   UNL     1       3.344   6.493  17.887  0.00  0.00    +0.000 A 
ATOM      9  C   UNL     1       2.815   5.195  17.823  0.00  0.00    +0.000 A 
ATOM     10  C   UNL     1       3.561   4.118  17.327  0.00  0.00    +0.000 A 
ATOM     11  C   UNL     1       4.860   4.318  16.876  0.00  0.00    +0.000 A 
ATOM     12  C   UNL     1       5.409   5.594  16.931  0.00  0.00    +0.000 A 
ATOM     13 CL   UNL     1       7.027   5.848  16.396  0.00  0.00    +0.000 Cl
ATOM     14  C   UNL     1       4.666   6.664  17.426  0.00  0.00    +0.000 A 
ENDBRANCH   4   8
BRANCH   7  15
ATOM     15  C   UNL     1      -0.332  10.588  19.529  0.00  0.00    +0.000 C 
ATOM     16  C   UNL     1      -1.364  10.480  18.389  0.00  0.00    +0.000 C 
ATOM     17  C   UNL     1      -2.199  11.739  18.526  0.00  0.00    +0.000 C 
ATOM     18  C   UNL     1      -1.237  12.770  19.098  0.00  0.00    +0.000 C 
ATOM     19  N   UNL     1      -0.088  12.032  19.608  0.00  0.00    +0.000 N 
ATOM     20  C   UNL     1       0.820  12.590  20.512  0.00  0.00    +0.000 C 
ATOM     21  O   UNL     1       1.691  11.893  21.041  0.00  0.00    +0.000 OA
BRANCH  20  22
ATOM     22  C   UNL     1       0.629  14.107  20.856  0.00  0.00    +0.000 C 
ATOM     23  C   UNL     1      -0.072  14.456  22.198  0.00  0.00    +0.000 C 
ATOM     24  C   UNL     1       0.901  15.633  22.363  0.00  0.00    +0.000 C 
ATOM     25  C   UNL     1       1.838  14.937  21.362  0.00  0.00    +0.000 C 
ENDBRANCH  20  22
ENDBRANCH   7  15
TORSDOF 3
ENDMDL
MODEL 7
REMARK VINA RESULT:      -7.7      6.385      9.214
REMARK  Name = 
REMARK  4 active torsions:
REMARK  status: ('A' for Active; 'I' for Inactive)
REMARK    1  A    between atoms: C_1  and  C_2
REMARK    2  A    between atoms: C_4  and  C_5
REMARK    3  A    between atoms: C_14  and  C_15
REMARK    4  A    between atoms: C_20  and  C_22
REMARK                            x       y       z     vdW  Elec       q    Type
REMARK                         _______ _______ _______ _____ _____    ______ ____
ROOT
ATOM      1  C   UNL     1       0.830   8.727  21.507  0.00  0.00    +0.000 C 
ATOM      2  C   UNL     1       1.299   8.708  20.076  0.00  0.00    +0.000 A 
ATOM      3  C   UNL     1       2.150   7.662  19.681  0.00  0.00    +0.000 A 
ATOM      4  C   UNL     1       2.586   7.576  18.360  0.00  0.00    +0.000 A 
ATOM      5  N   UNL     1       2.305   8.548  17.463  0.00  0.00    +0.000 NA
ATOM      6  C   UNL     1       1.509   9.570  17.869  0.00  0.00    +0.000 A 
ATOM      7  C   UNL     1       0.926   9.682  19.131  0.00  0.00    +0.000 A 
ENDROOT
BRANCH   4   8
ATOM      8  C   UNL     1       3.312   6.396  17.839  0.00  0.00    +0.000 A 
ATOM      9  C   UNL     1       2.738   5.116  17.859  0.00  0.00    +0.000 A 
ATOM     10  C   UNL     1       3.433   3.990  17.397  0.00  0.00    +0.000 A 
ATOM     11  C   UNL     1       4.723   4.122  16.897  0.00  0.00    +0.000 A 
ATOM     12  C   UNL     1       5.315   5.380  16.869  0.00  0.00    +0.000 A 
ATOM     13 CL   UNL     1       6.923   5.551  16.273  0.00  0.00    +0.000 Cl
ATOM     14  C   UNL     1       4.623   6.498  17.330  0.00  0.00    +0.000 A 
ENDBRANCH   4   8
BRANCH   7  15
ATOM     15  C   UNL     1      -0.179  10.688  19.383  0.00  0.00    +0.000 C 
ATOM     16  C   UNL     1      -1.452  10.248  18.633  0.00  0.00    +0.000 C 
ATOM     17  C   UNL     1      -2.310  11.499  18.598  0.00  0.00    +0.000 C 
ATOM     18  C   UNL     1      -1.309  12.644  18.570  0.00  0.00    +0.000 C 
ATOM     19  N   UNL     1      -0.022  12.084  18.962  0.00  0.00    +0.000 N 
ATOM     20  C   UNL     1       1.042  12.881  19.393  0.00  0.00    +0.000 C 
ATOM     21  O   UNL     1       2.063  12.369  19.863  0.00  0.00    +0.000 OA
BRANCH  20  22
ATOM     22  C   UNL     1       0.839  14.432  19.307  0.00  0.00    +0.000 C 
ATOM     23  C   UNL     1       1.029  15.255  20.611  0.00  0.00    +0.000 C 
ATOM     24  C   UNL     1       1.692  16.362  19.779  0.00  0.00    +0.000 C 
ATOM     25  C   UNL     1       1.950  15.317  18.682  0.00  0.00    +0.000 C 
ENDBRANCH  20  22
ENDBRANCH   7  15
TORSDOF 3
ENDMDL
MODEL 8
REMARK VINA RESULT:      -7.6      4.540      6.647
REMARK  Name = 
REMARK  4 active torsions:
REMARK  status: ('A' for Active; 'I' for Inactive)
REMARK    1  A    between atoms: C_1  and  C_2
REMARK    2  A    between atoms: C_4  and  C_5
REMARK    3  A    between atoms: C_14  and  C_15
REMARK    4  A    between atoms: C_20  and  C_22
REMARK                            x       y       z     vdW  Elec       q    Type
REMARK                         _______ _______ _______ _____ _____    ______ ____
ROOT
ATOM      1  C   UNL     1       3.278   3.879  20.223  0.00  0.00    +0.000 C 
ATOM      2  C   UNL     1       3.274   5.234  19.565  0.00  0.00    +0.000 A 
ATOM      3  C   UNL     1       2.261   6.137  19.933  0.00  0.00    +0.000 A 
ATOM      4  C   UNL     1       2.230   7.416  19.381  0.00  0.00    +0.000 A 
ATOM      5  N   UNL     1       3.089   7.779  18.402  0.00  0.00    +0.000 NA
ATOM      6  C   UNL     1       4.041   6.885  18.035  0.00  0.00    +0.000 A 
ATOM      7  C   UNL     1       4.229   5.629  18.610  0.00  0.00    +0.000 A 
ENDROOT
BRANCH   4   8
ATOM      8  C   UNL     1       1.318   8.471  19.875  0.00  0.00    +0.000 A 
ATOM      9  C   UNL     1       0.869   8.489  21.205  0.00  0.00    +0.000 A 
ATOM     10  C   UNL     1      -0.021   9.466  21.669  0.00  0.00    +0.000 A 
ATOM     11  C   UNL     1      -0.481  10.456  20.810  0.00  0.00    +0.000 A 
ATOM     12  C   UNL     1      -0.054  10.460  19.487  0.00  0.00    +0.000 A 
ATOM     13 CL   UNL     1      -0.637  11.670  18.408  0.00  0.00    +0.000 Cl
ATOM     14  C   UNL     1       0.830   9.486  19.026  0.00  0.00    +0.000 A 
ENDBRANCH   4   8
BRANCH   7  15
ATOM     15  C   UNL     1       5.494   4.840  18.342  0.00  0.00    +0.000 C 
ATOM     16  C   UNL     1       6.659   5.450  19.147  0.00  0.00    +0.000 C 
ATOM     17  C   UNL     1       7.902   4.883  18.488  0.00  0.00    +0.000 C 
ATOM     18  C   UNL     1       7.502   4.687  17.033  0.00  0.00    +0.000 C 
ATOM     19  N   UNL     1       6.047   4.761  16.985  0.00  0.00    +0.000 N 
ATOM     20  C   UNL     1       5.307   4.278  15.903  0.00  0.00    +0.000 C 
ATOM     21  O   UNL     1       4.075   4.215  15.960  0.00  0.00    +0.000 OA
BRANCH  20  22
ATOM     22  C   UNL     1       6.122   3.771  14.664  0.00  0.00    +0.000 C 
ATOM     23  C   UNL     1       5.359   3.611  13.320  0.00  0.00    +0.000 C 
ATOM     24  C   UNL     1       6.602   4.134  12.588  0.00  0.00    +0.000 C 
ATOM     25  C   UNL     1       7.069   4.747  13.917  0.00  0.00    +0.000 C 
ENDBRANCH  20  22
ENDBRANCH   7  15
TORSDOF 3
ENDMDL
MODEL 9
REMARK VINA RESULT:      -7.5      6.855      9.809
REMARK  Name = 
REMARK  4 active torsions:
REMARK  status: ('A' for Active; 'I' for Inactive)
REMARK    1  A    between atoms: C_1  and  C_2
REMARK    2  A    between atoms: C_4  and  C_5
REMARK    3  A    between atoms: C_14  and  C_15
REMARK    4  A    between atoms: C_20  and  C_22
REMARK                            x       y       z     vdW  Elec       q    Type
REMARK                         _______ _______ _______ _____ _____    ______ ____
ROOT
ATOM      1  C   UNL     1      -0.086   9.246  22.147  0.00  0.00    +0.000 C 
ATOM      2  C   UNL     1       0.680   8.881  20.903  0.00  0.00    +0.000 A 
ATOM      3  C   UNL     1       1.428   7.691  20.921  0.00  0.00    +0.000 A 
ATOM      4  C   UNL     1       2.127   7.288  19.785  0.00  0.00    +0.000 A 
ATOM      5  N   UNL     1       2.205   8.077  18.691  0.00  0.00    +0.000 NA
ATOM      6  C   UNL     1       1.504   9.239  18.701  0.00  0.00    +0.000 A 
ATOM      7  C   UNL     1       0.680   9.672  19.739  0.00  0.00    +0.000 A 
ENDROOT
BRANCH   4   8
ATOM      8  C   UNL     1       2.762   5.955  19.676  0.00  0.00    +0.000 A 
ATOM      9  C   UNL     1       4.104   5.812  19.294  0.00  0.00    +0.000 A 
ATOM     10  C   UNL     1       4.701   4.551  19.157  0.00  0.00    +0.000 A 
ATOM     11  C   UNL     1       3.965   3.400  19.405  0.00  0.00    +0.000 A 
ATOM     12  C   UNL     1       2.631   3.514  19.783  0.00  0.00    +0.000 A 
ATOM     13 CL   UNL     1       1.703   2.091  20.071  0.00  0.00    +0.000 Cl
ATOM     14  C   UNL     1       2.039   4.768  19.917  0.00  0.00    +0.000 A 
ENDBRANCH   4   8
BRANCH   7  15
ATOM     15  C   UNL     1      -0.286  10.820  19.529  0.00  0.00    +0.000 C 
ATOM     16  C   UNL     1      -1.113  10.567  18.252  0.00  0.00    +0.000 C 
ATOM     17  C   UNL     1      -1.701  11.925  17.917  0.00  0.00    +0.000 C 
ATOM     18  C   UNL     1      -0.669  12.920  18.428  0.00  0.00    +0.000 C 
ATOM     19  N   UNL     1       0.214  12.184  19.324  0.00  0.00    +0.000 N 
ATOM     20  C   UNL     1       1.046  12.822  20.247  0.00  0.00    +0.000 C 
ATOM     21  O   UNL     1       1.666  12.171  21.094  0.00  0.00    +0.000 OA
BRANCH  20  22
ATOM     22  C   UNL     1       1.095  14.387  20.186  0.00  0.00    +0.000 C 
ATOM     23  C   UNL     1       1.676  15.136  21.417  0.00  0.00    +0.000 C 
ATOM     24  C   UNL     1       2.337  16.136  20.457  0.00  0.00    +0.000 C 
ATOM     25  C   UNL     1       2.193  15.088  19.342  0.00  0.00    +0.000 C 
ENDBRANCH  20  22
ENDBRANCH   7  15
TORSDOF 3
ENDMDL
