MODEL 1
REMARK VINA RESULT:      -6.9      0.000      0.000
REMARK  Name = 
REMARK  3 active torsions:
REMARK  status: ('A' for Active; 'I' for Inactive)
REMARK    1  A    between atoms: C_1  and  N_2
REMARK    2  A    between atoms: C_3  and  C_5
REMARK    3  A    between atoms: N_9  and  C_10
REMARK                            x       y       z     vdW  Elec       q    Type
REMARK                         _______ _______ _______ _____ _____    ______ ____
ROOT
ATOM      1  C   UNL     1       1.462   7.883  20.658  0.00  0.00    +0.000 C 
ATOM      2  N   UNL     1       1.911   8.214  19.302  0.00  0.00    +0.000 N 
ATOM      3  C   UNL     1       1.600   9.405  18.627  0.00  0.00    +0.000 C 
ATOM      4  O   UNL     1       1.938   9.685  17.478  0.00  0.00    +0.000 OA
ATOM      5  C   UNL     1       2.749   7.331  18.590  0.00  0.00    +0.000 A 
ATOM      6  N   UNL     1       3.534   7.638  17.586  0.00  0.00    +0.000 NA
ATOM      7  C   UNL     1       4.168   6.520  17.091  0.00  0.00    +0.000 A 
ATOM      8  C   UNL     1       5.069   6.501  16.009  0.00  0.00    +0.000 A 
ATOM      9  C   UNL     1       5.620   5.288  15.587  0.00  0.00    +0.000 A 
ATOM     10  C   UNL     1       5.278   4.101  16.226  0.00  0.00    +0.000 A 
ATOM     11  C   UNL     1       4.395   4.097  17.314  0.00  0.00    +0.000 A 
ATOM     12  C   UNL     1       3.859   5.324  17.737  0.00  0.00    +0.000 A 
ATOM     13  S   UNL     1       2.788   5.670  19.040  0.00  0.00    +0.000 S 
ENDROOT
BRANCH   3  14
ATOM     14  C   UNL     1       0.703  10.397  19.312  0.00  0.00    +0.000 C 
ATOM     15  C   UNL     1      -0.624  10.455  19.085  0.00  0.00    +0.000 C 
ATOM     16  C   UNL     1      -1.418   9.709  18.048  0.00  0.00    +0.000 C 
ATOM     17  C   UNL     1      -2.470  10.734  17.653  0.00  0.00    +0.000 C 
ATOM     18  N   UNL     1      -2.714  11.530  18.879  0.00  0.00    +0.000 N 
ATOM     19  C   UNL     1      -1.574  11.368  19.810  0.00  0.00    +0.000 C 
BRANCH  18  20
ATOM     20  C   UNL     1      -3.830  12.219  19.142  0.00  0.00    +0.000 C 
ATOM     21  N   UNL     1      -4.795  12.811  19.367  0.00  0.00    +0.000 NA
ENDBRANCH  18  20
ENDBRANCH   3  14
TORSDOF 2
ENDMDL
MODEL 2
REMARK VINA RESULT:      -6.6      2.428      2.848
REMARK  Name = 
REMARK  3 active torsions:
REMARK  status: ('A' for Active; 'I' for Inactive)
REMARK    1  A    between atoms: C_1  and  N_2
REMARK    2  A    between atoms: C_3  and  C_5
REMARK    3  A    between atoms: N_9  and  C_10
REMARK                            x       y       z     vdW  Elec       q    Type
REMARK                         _______ _______ _______ _____ _____    ______ ____
ROOT
ATOM      1  C   UNL     1       2.349   4.787  20.929  0.00  0.00    +0.000 C 
ATOM      2  N   UNL     1       2.622   5.778  19.885  0.00  0.00    +0.000 N 
ATOM      3  C   UNL     1       2.155   7.101  19.900  0.00  0.00    +0.000 C 
ATOM      4  O   UNL     1       2.344   7.937  19.016  0.00  0.00    +0.000 OA
ATOM      5  C   UNL     1       3.435   5.449  18.781  0.00  0.00    +0.000 A 
ATOM      6  N   UNL     1       4.082   6.290  18.010  0.00  0.00    +0.000 NA
ATOM      7  C   UNL     1       4.735   5.629  16.993  0.00  0.00    +0.000 A 
ATOM      8  C   UNL     1       5.510   6.237  15.986  0.00  0.00    +0.000 A 
ATOM      9  C   UNL     1       6.095   5.449  14.992  0.00  0.00    +0.000 A 
ATOM     10  C   UNL     1       5.911   4.070  14.988  0.00  0.00    +0.000 A 
ATOM     11  C   UNL     1       5.155   3.441  15.986  0.00  0.00    +0.000 A 
ATOM     12  C   UNL     1       4.583   4.244  16.988  0.00  0.00    +0.000 A 
ATOM     13  S   UNL     1       3.641   3.794  18.357  0.00  0.00    +0.000 S 
ENDROOT
BRANCH   3  14
ATOM     14  C   UNL     1       1.271   7.531  21.036  0.00  0.00    +0.000 C 
ATOM     15  C   UNL     1       0.581   8.688  21.024  0.00  0.00    +0.000 C 
ATOM     16  C   UNL     1       0.668   9.806  20.020  0.00  0.00    +0.000 C 
ATOM     17  C   UNL     1       0.478  11.036  20.895  0.00  0.00    +0.000 C 
ATOM     18  N   UNL     1      -0.415  10.595  21.993  0.00  0.00    +0.000 N 
ATOM     19  C   UNL     1      -0.383   9.118  22.095  0.00  0.00    +0.000 C 
BRANCH  18  20
ATOM     20  C   UNL     1      -1.195  11.400  22.722  0.00  0.00    +0.000 C 
ATOM     21  N   UNL     1      -1.872  12.095  23.349  0.00  0.00    +0.000 NA
ENDBRANCH  18  20
ENDBRANCH   3  14
TORSDOF 2
ENDMDL
MODEL 3
REMARK VINA RESULT:      -6.5      3.153      8.500
REMARK  Name = 
REMARK  3 active torsions:
REMARK  status: ('A' for Active; 'I' for Inactive)
REMARK    1  A    between atoms: C_1  and  N_2
REMARK    2  A    between atoms: C_3  and  C_5
REMARK    3  A    between atoms: N_9  and  C_10
REMARK                            x       y       z     vdW  Elec       q    Type
REMARK                         _______ _______ _______ _____ _____    ______ ____
ROOT
ATOM      1  C   UNL     1       1.819   9.273  17.888  0.00  0.00    +0.000 C 
ATOM      2  N   UNL     1       1.391   8.968  19.257  0.00  0.00    +0.000 N 
ATOM      3  C   UNL     1       1.808   7.848  19.992  0.00  0.00    +0.000 C 
ATOM      4  O   UNL     1       1.432   7.557  21.127  0.00  0.00    +0.000 OA
ATOM      5  C   UNL     1       0.531   9.845  19.949  0.00  0.00    +0.000 A 
ATOM      6  N   UNL     1       0.384   9.931  21.249  0.00  0.00    +0.000 NA
ATOM      7  C   UNL     1      -0.581  10.855  21.581  0.00  0.00    +0.000 A 
ATOM      8  C   UNL     1      -0.989  11.181  22.889  0.00  0.00    +0.000 A 
ATOM      9  C   UNL     1      -2.006  12.118  23.084  0.00  0.00    +0.000 A 
ATOM     10  C   UNL     1      -2.621  12.727  21.995  0.00  0.00    +0.000 A 
ATOM     11  C   UNL     1      -2.223  12.429  20.684  0.00  0.00    +0.000 A 
ATOM     12  C   UNL     1      -1.190  11.494  20.502  0.00  0.00    +0.000 A 
ATOM     13  S   UNL     1      -0.451  10.937  19.050  0.00  0.00    +0.000 S 
ENDROOT
BRANCH   3  14
ATOM     14  C   UNL     1       2.718   6.856  19.323  0.00  0.00    +0.000 C 
ATOM     15  C   UNL     1       2.443   5.539  19.269  0.00  0.00    +0.000 C 
ATOM     16  C   UNL     1       1.332   4.796  19.960  0.00  0.00    +0.000 C 
ATOM     17  C   UNL     1       1.998   3.472  20.301  0.00  0.00    +0.000 C 
ATOM     18  N   UNL     1       2.981   3.242  19.216  0.00  0.00    +0.000 N 
ATOM     19  C   UNL     1       3.276   4.523  18.536  0.00  0.00    +0.000 C 
BRANCH  18  20
ATOM     20  C   UNL     1       3.461   2.048  18.852  0.00  0.00    +0.000 C 
ATOM     21  N   UNL     1       3.879   1.019  18.535  0.00  0.00    +0.000 NA
ENDBRANCH  18  20
ENDBRANCH   3  14
TORSDOF 2
ENDMDL
MODEL 4
REMARK VINA RESULT:      -6.3      2.111      2.523
REMARK  Name = 
REMARK  3 active torsions:
REMARK  status: ('A' for Active; 'I' for Inactive)
REMARK    1  A    between atoms: C_1  and  N_2
REMARK    2  A    between atoms: C_3  and  C_5
REMARK    3  A    between atoms: N_9  and  C_10
REMARK                            x       y       z     vdW  Elec       q    Type
REMARK                         _______ _______ _______ _____ _____    ______ ____
ROOT
ATOM      1  C   UNL     1       1.897   7.419  20.444  0.00  0.00    +0.000 C 
ATOM      2  N   UNL     1       2.236   7.758  19.058  0.00  0.00    +0.000 N 
ATOM      3  C   UNL     1       1.781   8.901  18.383  0.00  0.00    +0.000 C 
ATOM      4  O   UNL     1       2.026   9.184  17.211  0.00  0.00    +0.000 OA
ATOM      5  C   UNL     1       3.106   6.936  18.313  0.00  0.00    +0.000 A 
ATOM      6  N   UNL     1       3.801   7.289  17.259  0.00  0.00    +0.000 NA
ATOM      7  C   UNL     1       4.502   6.220  16.746  0.00  0.00    +0.000 A 
ATOM      8  C   UNL     1       5.337   6.256  15.612  0.00  0.00    +0.000 A 
ATOM      9  C   UNL     1       5.969   5.087  15.180  0.00  0.00    +0.000 A 
ATOM     10  C   UNL     1       5.772   3.889  15.859  0.00  0.00    +0.000 A 
ATOM     11  C   UNL     1       4.957   3.832  16.997  0.00  0.00    +0.000 A 
ATOM     12  C   UNL     1       4.339   5.016  17.429  0.00  0.00    +0.000 A 
ATOM     13  S   UNL     1       3.319   5.296  18.788  0.00  0.00    +0.000 S 
ENDROOT
BRANCH   3  14
ATOM     14  C   UNL     1       0.840   9.825  19.103  0.00  0.00    +0.000 C 
ATOM     15  C   UNL     1       0.978  11.165  19.082  0.00  0.00    +0.000 C 
ATOM     16  C   UNL     1       2.118  11.968  18.517  0.00  0.00    +0.000 C 
ATOM     17  C   UNL     1       2.210  13.126  19.499  0.00  0.00    +0.000 C 
ATOM     18  N   UNL     1       0.822  13.346  19.969  0.00  0.00    +0.000 N 
ATOM     19  C   UNL     1       0.013  12.133  19.710  0.00  0.00    +0.000 C 
BRANCH  18  20
ATOM     20  C   UNL     1       0.350  14.493  20.469  0.00  0.00    +0.000 C 
ATOM     21  N   UNL     1      -0.055  15.485  20.899  0.00  0.00    +0.000 NA
ENDBRANCH  18  20
ENDBRANCH   3  14
TORSDOF 2
ENDMDL
MODEL 5
REMARK VINA RESULT:      -6.2      2.977      3.783
REMARK  Name = 
REMARK  3 active torsions:
REMARK  status: ('A' for Active; 'I' for Inactive)
REMARK    1  A    between atoms: C_1  and  N_2
REMARK    2  A    between atoms: C_3  and  C_5
REMARK    3  A    between atoms: N_9  and  C_10
REMARK                            x       y       z     vdW  Elec       q    Type
REMARK                         _______ _______ _______ _____ _____    ______ ____
ROOT
ATOM      1  C   UNL     1       2.156   8.763  18.057  0.00  0.00    +0.000 C 
ATOM      2  N   UNL     1       1.957   8.055  19.326  0.00  0.00    +0.000 N 
ATOM      3  C   UNL     1       1.307   8.593  20.446  0.00  0.00    +0.000 C 
ATOM      4  O   UNL     1       1.161   8.027  21.530  0.00  0.00    +0.000 OA
ATOM      5  C   UNL     1       2.395   6.723  19.477  0.00  0.00    +0.000 A 
ATOM      6  N   UNL     1       1.957   5.852  20.354  0.00  0.00    +0.000 NA
ATOM      7  C   UNL     1       2.645   4.663  20.259  0.00  0.00    +0.000 A 
ATOM      8  C   UNL     1       2.429   3.525  21.061  0.00  0.00    +0.000 A 
ATOM      9  C   UNL     1       3.222   2.389  20.879  0.00  0.00    +0.000 A 
ATOM     10  C   UNL     1       4.225   2.378  19.915  0.00  0.00    +0.000 A 
ATOM     11  C   UNL     1       4.449   3.493  19.096  0.00  0.00    +0.000 A 
ATOM     12  C   UNL     1       3.637   4.624  19.280  0.00  0.00    +0.000 A 
ATOM     13  S   UNL     1       3.626   6.123  18.434  0.00  0.00    +0.000 S 
ENDROOT
BRANCH   3  14
ATOM     14  C   UNL     1       0.818  10.012  20.372  0.00  0.00    +0.000 C 
ATOM     15  C   UNL     1       0.302  10.660  21.434  0.00  0.00    +0.000 C 
ATOM     16  C   UNL     1      -0.034  10.096  22.788  0.00  0.00    +0.000 C 
ATOM     17  C   UNL     1      -1.287  10.875  23.157  0.00  0.00    +0.000 C 
ATOM     18  N   UNL     1      -1.121  12.201  22.516  0.00  0.00    +0.000 N 
ATOM     19  C   UNL     1      -0.117  12.105  21.432  0.00  0.00    +0.000 C 
BRANCH  18  20
ATOM     20  C   UNL     1      -1.720  13.329  22.911  0.00  0.00    +0.000 C 
ATOM     21  N   UNL     1      -2.235  14.303  23.256  0.00  0.00    +0.000 NA
ENDBRANCH  18  20
ENDBRANCH   3  14
TORSDOF 2
ENDMDL
MODEL 6
REMARK VINA RESULT:      -6.2      2.641      3.197
REMARK  Name = 
REMARK  3 active torsions:
REMARK  status: ('A' for Active; 'I' for Inactive)
REMARK    1  A    between atoms: C_1  and  N_2
REMARK    2  A    between atoms: C_3  and  C_5
REMARK    3  A    between atoms: N_9  and  C_10
REMARK                            x       y       z     vdW  Elec       q    Type
REMARK                         _______ _______ _______ _____ _____    ______ ____
ROOT
ATOM      1  C   UNL     1       1.157   8.772  20.999  0.00  0.00    +0.000 C 
ATOM      2  N   UNL     1       1.590   8.618  19.607  0.00  0.00    +0.000 N 
ATOM      3  C   UNL     1       1.409   9.583  18.604  0.00  0.00    +0.000 C 
ATOM      4  O   UNL     1       1.735   9.458  17.424  0.00  0.00    +0.000 OA
ATOM      5  C   UNL     1       2.277   7.458  19.196  0.00  0.00    +0.000 A 
ATOM      6  N   UNL     1       3.055   7.341  18.147  0.00  0.00    +0.000 NA
ATOM      7  C   UNL     1       3.518   6.051  18.013  0.00  0.00    +0.000 A 
ATOM      8  C   UNL     1       4.365   5.587  16.988  0.00  0.00    +0.000 A 
ATOM      9  C   UNL     1       4.737   4.241  16.953  0.00  0.00    +0.000 A 
ATOM     10  C   UNL     1       4.271   3.357  17.920  0.00  0.00    +0.000 A 
ATOM     11  C   UNL     1       3.439   3.798  18.958  0.00  0.00    +0.000 A 
ATOM     12  C   UNL     1       3.083   5.156  18.989  0.00  0.00    +0.000 A 
ATOM     13  S   UNL     1       2.119   6.018  20.126  0.00  0.00    +0.000 S 
ENDROOT
BRANCH   3  14
ATOM     14  C   UNL     1       0.676  10.846  18.956  0.00  0.00    +0.000 C 
ATOM     15  C   UNL     1       1.170  12.071  18.694  0.00  0.00    +0.000 C 
ATOM     16  C   UNL     1       2.541  12.425  18.184  0.00  0.00    +0.000 C 
ATOM     17  C   UNL     1       2.829  13.726  18.918  0.00  0.00    +0.000 C 
ATOM     18  N   UNL     1       1.506  14.373  19.093  0.00  0.00    +0.000 N 
ATOM     19  C   UNL     1       0.436  13.360  18.946  0.00  0.00    +0.000 C 
BRANCH  18  20
ATOM     20  C   UNL     1       1.306  15.683  19.268  0.00  0.00    +0.000 C 
ATOM     21  N   UNL     1       1.137  16.815  19.420  0.00  0.00    +0.000 NA
ENDBRANCH  18  20
ENDBRANCH   3  14
TORSDOF 2
ENDMDL
MODEL 7
REMARK VINA RESULT:      -6.1      3.079      4.135
REMARK  Name = 
REMARK  3 active torsions:
REMARK  status: ('A' for Active; 'I' for Inactive)
REMARK    1  A    between atoms: C_1  and  N_2
REMARK    2  A    between atoms: C_3  and  C_5
REMARK    3  A    between atoms: N_9  and  C_10
REMARK                            x       y       z     vdW  Elec       q    Type
REMARK                         _______ _______ _______ _____ _____    ______ ____
ROOT
ATOM      1  C   UNL     1       0.465  11.266  18.710  0.00  0.00    +0.000 C 
ATOM      2  N   UNL     1       0.877  10.416  19.831  0.00  0.00    +0.000 N 
ATOM      3  C   UNL     1       0.784  10.779  21.183  0.00  0.00    +0.000 C 
ATOM      4  O   UNL     1       1.156  10.094  22.135  0.00  0.00    +0.000 OA
ATOM      5  C   UNL     1       1.374   9.117  19.599  0.00  0.00    +0.000 A 
ATOM      6  N   UNL     1       1.402   8.127  20.457  0.00  0.00    +0.000 NA
ATOM      7  C   UNL     1       2.007   7.015  19.914  0.00  0.00    +0.000 A 
ATOM      8  C   UNL     1       2.207   5.787  20.574  0.00  0.00    +0.000 A 
ATOM      9  C   UNL     1       2.866   4.746  19.915  0.00  0.00    +0.000 A 
ATOM     10  C   UNL     1       3.330   4.919  18.615  0.00  0.00    +0.000 A 
ATOM     11  C   UNL     1       3.131   6.127  17.933  0.00  0.00    +0.000 A 
ATOM     12  C   UNL     1       2.455   7.161  18.602  0.00  0.00    +0.000 A 
ATOM     13  S   UNL     1       2.022   8.734  18.051  0.00  0.00    +0.000 S 
ENDROOT
BRANCH   3  14
ATOM     14  C   UNL     1       0.274  12.152  21.518  0.00  0.00    +0.000 C 
ATOM     15  C   UNL     1      -0.690  12.367  22.433  0.00  0.00    +0.000 C 
ATOM     16  C   UNL     1      -1.529  11.344  23.150  0.00  0.00    +0.000 C 
ATOM     17  C   UNL     1      -2.872  12.050  23.257  0.00  0.00    +0.000 C 
ATOM     18  N   UNL     1      -2.544  13.492  23.365  0.00  0.00    +0.000 N 
ATOM     19  C   UNL     1      -1.170  13.726  22.866  0.00  0.00    +0.000 C 
BRANCH  18  20
ATOM     20  C   UNL     1      -3.333  14.423  23.911  0.00  0.00    +0.000 C 
ATOM     21  N   UNL     1      -4.013  15.227  24.385  0.00  0.00    +0.000 NA
ENDBRANCH  18  20
ENDBRANCH   3  14
TORSDOF 2
ENDMDL
MODEL 8
REMARK VINA RESULT:      -6.1      1.397      1.653
REMARK  Name = 
REMARK  3 active torsions:
REMARK  status: ('A' for Active; 'I' for Inactive)
REMARK    1  A    between atoms: C_1  and  N_2
REMARK    2  A    between atoms: C_3  and  C_5
REMARK    3  A    between atoms: N_9  and  C_10
REMARK                            x       y       z     vdW  Elec       q    Type
REMARK                         _______ _______ _______ _____ _____    ______ ____
ROOT
ATOM      1  C   UNL     1       0.402   9.135  21.035  0.00  0.00    +0.000 C 
ATOM      2  N   UNL     1       0.884   9.007  19.656  0.00  0.00    +0.000 N 
ATOM      3  C   UNL     1       0.466   9.816  18.588  0.00  0.00    +0.000 C 
ATOM      4  O   UNL     1       0.832   9.702  17.419  0.00  0.00    +0.000 OA
ATOM      5  C   UNL     1       1.864   8.049  19.327  0.00  0.00    +0.000 A 
ATOM      6  N   UNL     1       2.661   8.073  18.286  0.00  0.00    +0.000 NA
ATOM      7  C   UNL     1       3.456   6.950  18.243  0.00  0.00    +0.000 A 
ATOM      8  C   UNL     1       4.413   6.661  17.251  0.00  0.00    +0.000 A 
ATOM      9  C   UNL     1       5.134   5.465  17.310  0.00  0.00    +0.000 A 
ATOM     10  C   UNL     1       4.906   4.558  18.340  0.00  0.00    +0.000 A 
ATOM     11  C   UNL     1       3.970   4.829  19.346  0.00  0.00    +0.000 A 
ATOM     12  C   UNL     1       3.261   6.041  19.282  0.00  0.00    +0.000 A 
ATOM     13  S   UNL     1       2.083   6.688  20.358  0.00  0.00    +0.000 S 
ENDROOT
BRANCH   3  14
ATOM     14  C   UNL     1      -0.585  10.856  18.852  0.00  0.00    +0.000 C 
ATOM     15  C   UNL     1      -1.854  10.735  18.416  0.00  0.00    +0.000 C 
ATOM     16  C   UNL     1      -2.418   9.691  17.492  0.00  0.00    +0.000 C 
ATOM     17  C   UNL     1      -3.437  10.488  16.692  0.00  0.00    +0.000 C 
ATOM     18  N   UNL     1      -3.929  11.531  17.624  0.00  0.00    +0.000 N 
ATOM     19  C   UNL     1      -2.960  11.704  18.730  0.00  0.00    +0.000 C 
BRANCH  18  20
ATOM     20  C   UNL     1      -5.107  12.157  17.528  0.00  0.00    +0.000 C 
ATOM     21  N   UNL     1      -6.124  12.698  17.448  0.00  0.00    +0.000 NA
ENDBRANCH  18  20
ENDBRANCH   3  14
TORSDOF 2
ENDMDL
MODEL 9
REMARK VINA RESULT:      -5.8      3.025      3.913
REMARK  Name = 
REMARK  3 active torsions:
REMARK  status: ('A' for Active; 'I' for Inactive)
REMARK    1  A    between atoms: C_1  and  N_2
REMARK    2  A    between atoms: C_3  and  C_5
REMARK    3  A    between atoms: N_9  and  C_10
REMARK                            x       y       z     vdW  Elec       q    Type
REMARK                         _______ _______ _______ _____ _____    ______ ____
ROOT
ATOM      1  C   UNL     1       1.370   9.622  18.429  0.00  0.00    +0.000 C 
ATOM      2  N   UNL     1       1.446   8.897  19.701  0.00  0.00    +0.000 N 
ATOM      3  C   UNL     1       1.126   9.447  20.952  0.00  0.00    +0.000 C 
ATOM      4  O   UNL     1       1.216   8.865  22.033  0.00  0.00    +0.000 OA
ATOM      5  C   UNL     1       1.824   7.540  19.729  0.00  0.00    +0.000 A 
ATOM      6  N   UNL     1       1.562   6.675  20.680  0.00  0.00    +0.000 NA
ATOM      7  C   UNL     1       2.129   5.450  20.408  0.00  0.00    +0.000 A 
ATOM      8  C   UNL     1       2.047   4.309  21.230  0.00  0.00    +0.000 A 
ATOM      9  C   UNL     1       2.698   3.133  20.849  0.00  0.00    +0.000 A 
ATOM     10  C   UNL     1       3.431   3.086  19.668  0.00  0.00    +0.000 A 
ATOM     11  C   UNL     1       3.516   4.204  18.828  0.00  0.00    +0.000 A 
ATOM     12  C   UNL     1       2.846   5.376  19.215  0.00  0.00    +0.000 A 
ATOM     13  S   UNL     1       2.721   6.893  18.410  0.00  0.00    +0.000 S 
ENDROOT
BRANCH   3  14
ATOM     14  C   UNL     1       0.723  10.893  21.012  0.00  0.00    +0.000 C 
ATOM     15  C   UNL     1      -0.071  11.388  21.981  0.00  0.00    +0.000 C 
ATOM     16  C   UNL     1      -0.815  10.626  23.045  0.00  0.00    +0.000 C 
ATOM     17  C   UNL     1      -2.098  11.433  23.175  0.00  0.00    +0.000 C 
ATOM     18  N   UNL     1      -1.709  12.831  22.876  0.00  0.00    +0.000 N 
ATOM     19  C   UNL     1      -0.427  12.841  22.134  0.00  0.00    +0.000 C 
BRANCH  18  20
ATOM     20  C   UNL     1      -2.367  13.920  23.289  0.00  0.00    +0.000 C 
ATOM     21  N   UNL     1      -2.932  14.861  23.646  0.00  0.00    +0.000 NA
ENDBRANCH  18  20
ENDBRANCH   3  14
TORSDOF 2
ENDMDL
