MODEL 1
REMARK VINA RESULT:      -9.7      0.000      0.000
REMARK  Name = 
REMARK  7 active torsions:
REMARK  status: ('A' for Active; 'I' for Inactive)
REMARK    1  A    between atoms: N_1  and  C_2
REMARK    2  A    between atoms: C_7  and  N_8
REMARK    3  A    between atoms: C_9  and  C_11
REMARK    4  A    between atoms: C_12  and  C_13
REMARK    5  A    between atoms: N_17  and  S_18
REMARK    6  A    between atoms: S_18  and  C_21
REMARK    7  A    between atoms: C_24  and  C_25
REMARK                            x       y       z     vdW  Elec       q    Type
REMARK                         _______ _______ _______ _____ _____    ______ ____
ROOT
ATOM      1  C   UNL     1       6.822   6.895  17.611  0.00  0.00    +0.000 A 
ATOM      2  C   UNL     1       5.770   6.755  16.698  0.00  0.00    +0.000 A 
ATOM      3  C   UNL     1       5.166   5.515  16.516  0.00  0.00    +0.000 A 
ATOM      4  C   UNL     1       5.660   4.441  17.234  0.00  0.00    +0.000 A 
ATOM      5  N   UNL     1       5.115   3.153  17.056  0.00  0.00    +0.000 N 
ATOM      6  N   UNL     1       6.673   4.513  18.112  0.00  0.00    +0.000 NA
ATOM      7  C   UNL     1       7.229   5.744  18.280  0.00  0.00    +0.000 A 
ATOM      8  H   UNL     1       5.852   2.455  17.113  0.00  0.00    +0.000 HD
ENDROOT
BRANCH   5   9
ATOM      9  S   UNL     1       3.845   2.753  18.102  0.00  0.00    +0.000 S 
ATOM     10  O   UNL     1       2.823   2.027  17.378  0.00  0.00    +0.000 OA
ATOM     11  O   UNL     1       4.462   2.184  19.282  0.00  0.00    +0.000 OA
BRANCH   9  12
ATOM     12  C   UNL     1       3.180   4.332  18.589  0.00  0.00    +0.000 A 
ATOM     13  C   UNL     1       3.579   4.921  19.784  0.00  0.00    +0.000 A 
ATOM     14  C   UNL     1       3.077   6.182  20.133  0.00  0.00    +0.000 A 
ATOM     15  C   UNL     1       2.193   6.892  19.294  0.00  0.00    +0.000 A 
ATOM     16  C   UNL     1       1.846   6.283  18.072  0.00  0.00    +0.000 A 
ATOM     17  C   UNL     1       2.329   5.016  17.719  0.00  0.00    +0.000 A 
BRANCH  15  18
ATOM     18  C   UNL     1       1.643   8.215  19.690  0.00  0.00    +0.000 A 
ATOM     19  C   UNL     1       1.315   8.508  21.029  0.00  0.00    +0.000 A 
ATOM     20  C   UNL     1       0.750   9.736  21.395  0.00  0.00    +0.000 A 
ATOM     21  C   UNL     1       0.518  10.713  20.434  0.00  0.00    +0.000 A 
ATOM     22  C   UNL     1       0.849  10.461  19.106  0.00  0.00    +0.000 A 
ATOM     23  C   UNL     1       1.401   9.227  18.742  0.00  0.00    +0.000 A 
ENDBRANCH  15  18
ENDBRANCH   9  12
ENDBRANCH   5   9
BRANCH   1  25
ATOM     24  C   UNL     1       8.447   8.567  18.589  0.00  0.00    +0.000 C 
ATOM     25  C   UNL     1       7.481   8.202  17.726  0.00  0.00    +0.000 C 
BRANCH  24  27
ATOM     26  N   UNL     1       9.847  10.333  19.477  0.00  0.00    +0.000 N 
ATOM     27  C   UNL     1       8.921   9.987  18.514  0.00  0.00    +0.000 C 
ATOM     28  O   UNL     1       8.494  10.714  17.621  0.00  0.00    +0.000 OA
ATOM     29  H   UNL     1      10.246   9.601  20.046  0.00  0.00    +0.000 HD
BRANCH  26  35
ATOM     30  C   UNL     1      11.388  12.117  18.781  0.00  0.00    +0.000 A 
ATOM     31  C   UNL     1      11.844  13.441  18.931  0.00  0.00    +0.000 A 
ATOM     32  C   UNL     1      11.405  14.250  19.980  0.00  0.00    +0.000 A 
ATOM     33  C   UNL     1      10.475  13.755  20.880  0.00  0.00    +0.000 A 
ATOM     34  C   UNL     1       9.977  12.461  20.722  0.00  0.00    +0.000 A 
ATOM     35  C   UNL     1      10.393  11.636  19.663  0.00  0.00    +0.000 A 
BRANCH  30  36
ATOM     36  N   UNL     1      11.767  11.425  17.610  0.00  0.00    +0.000 N 
ATOM     37  H   UNL     1      12.420  11.955  17.037  0.00  0.00    +0.000 HD
ATOM     38  H   UNL     1      12.078  10.479  17.741  0.00  0.00    +0.000 HD
ENDBRANCH  30  36
ENDBRANCH  26  35
ENDBRANCH  24  27
ENDBRANCH   1  25
TORSDOF 7
ENDMDL
MODEL 2
REMARK VINA RESULT:      -9.7      1.308      1.861
REMARK  Name = 
REMARK  7 active torsions:
REMARK  status: ('A' for Active; 'I' for Inactive)
REMARK    1  A    between atoms: N_1  and  C_2
REMARK    2  A    between atoms: C_7  and  N_8
REMARK    3  A    between atoms: C_9  and  C_11
REMARK    4  A    between atoms: C_12  and  C_13
REMARK    5  A    between atoms: N_17  and  S_18
REMARK    6  A    between atoms: S_18  and  C_21
REMARK    7  A    between atoms: C_24  and  C_25
REMARK                            x       y       z     vdW  Elec       q    Type
REMARK                         _______ _______ _______ _____ _____    ______ ____
ROOT
ATOM      1  C   UNL     1       7.626   7.022  18.234  0.00  0.00    +0.000 A 
ATOM      2  C   UNL     1       6.539   7.099  17.355  0.00  0.00    +0.000 A 
ATOM      3  C   UNL     1       5.813   5.954  17.041  0.00  0.00    +0.000 A 
ATOM      4  C   UNL     1       6.225   4.754  17.594  0.00  0.00    +0.000 A 
ATOM      5  N   UNL     1       5.554   3.556  17.275  0.00  0.00    +0.000 N 
ATOM      6  N   UNL     1       7.266   4.618  18.430  0.00  0.00    +0.000 NA
ATOM      7  C   UNL     1       7.941   5.760  18.731  0.00  0.00    +0.000 A 
ATOM      8  H   UNL     1       6.222   2.792  17.211  0.00  0.00    +0.000 HD
ENDROOT
BRANCH   5   9
ATOM      9  S   UNL     1       4.283   3.138  18.314  0.00  0.00    +0.000 S 
ATOM     10  O   UNL     1       3.357   2.262  17.629  0.00  0.00    +0.000 OA
ATOM     11  O   UNL     1       4.901   2.734  19.560  0.00  0.00    +0.000 OA
BRANCH   9  12
ATOM     12  C   UNL     1       3.467   4.688  18.634  0.00  0.00    +0.000 A 
ATOM     13  C   UNL     1       3.560   5.283  19.887  0.00  0.00    +0.000 A 
ATOM     14  C   UNL     1       2.945   6.523  20.110  0.00  0.00    +0.000 A 
ATOM     15  C   UNL     1       2.251   7.206  19.090  0.00  0.00    +0.000 A 
ATOM     16  C   UNL     1       2.215   6.593  17.822  0.00  0.00    +0.000 A 
ATOM     17  C   UNL     1       2.813   5.347  17.591  0.00  0.00    +0.000 A 
BRANCH  15  18
ATOM     18  C   UNL     1       1.576   8.505  19.348  0.00  0.00    +0.000 A 
ATOM     19  C   UNL     1       1.436   9.478  18.338  0.00  0.00    +0.000 A 
ATOM     20  C   UNL     1       0.846  10.722  18.593  0.00  0.00    +0.000 A 
ATOM     21  C   UNL     1       0.360  11.019  19.861  0.00  0.00    +0.000 A 
ATOM     22  C   UNL     1       0.466  10.071  20.875  0.00  0.00    +0.000 A 
ATOM     23  C   UNL     1       1.069   8.834  20.619  0.00  0.00    +0.000 A 
ENDBRANCH  15  18
ENDBRANCH   9  12
ENDBRANCH   5   9
BRANCH   1  25
ATOM     24  C   UNL     1       8.164   9.485  18.050  0.00  0.00    +0.000 C 
ATOM     25  C   UNL     1       8.410   8.236  18.487  0.00  0.00    +0.000 C 
BRANCH  24  27
ATOM     26  N   UNL     1       9.083  11.693  17.669  0.00  0.00    +0.000 N 
ATOM     27  C   UNL     1       9.156  10.543  18.427  0.00  0.00    +0.000 C 
ATOM     28  O   UNL     1       9.920  10.339  19.367  0.00  0.00    +0.000 OA
ATOM     29  H   UNL     1       8.301  11.807  17.042  0.00  0.00    +0.000 HD
BRANCH  26  35
ATOM     30  C   UNL     1       9.560  13.951  18.515  0.00  0.00    +0.000 A 
ATOM     31  C   UNL     1      10.481  15.003  18.689  0.00  0.00    +0.000 A 
ATOM     32  C   UNL     1      11.736  14.982  18.080  0.00  0.00    +0.000 A 
ATOM     33  C   UNL     1      12.103  13.890  17.311  0.00  0.00    +0.000 A 
ATOM     34  C   UNL     1      11.223  12.818  17.164  0.00  0.00    +0.000 A 
ATOM     35  C   UNL     1       9.961  12.811  17.782  0.00  0.00    +0.000 A 
BRANCH  30  36
ATOM     36  N   UNL     1       8.378  13.985  19.287  0.00  0.00    +0.000 N 
ATOM     37  H   UNL     1       7.600  13.513  18.832  0.00  0.00    +0.000 HD
ATOM     38  H   UNL     1       8.472  13.697  20.245  0.00  0.00    +0.000 HD
ENDBRANCH  30  36
ENDBRANCH  26  35
ENDBRANCH  24  27
ENDBRANCH   1  25
TORSDOF 7
ENDMDL
MODEL 3
REMARK VINA RESULT:      -9.6      0.325      1.209
REMARK  Name = 
REMARK  7 active torsions:
REMARK  status: ('A' for Active; 'I' for Inactive)
REMARK    1  A    between atoms: N_1  and  C_2
REMARK    2  A    between atoms: C_7  and  N_8
REMARK    3  A    between atoms: C_9  and  C_11
REMARK    4  A    between atoms: C_12  and  C_13
REMARK    5  A    between atoms: N_17  and  S_18
REMARK    6  A    between atoms: S_18  and  C_21
REMARK    7  A    between atoms: C_24  and  C_25
REMARK                            x       y       z     vdW  Elec       q    Type
REMARK                         _______ _______ _______ _____ _____    ______ ____
ROOT
ATOM      1  C   UNL     1       6.978   7.103  17.709  0.00  0.00    +0.000 A 
ATOM      2  C   UNL     1       6.013   6.887  16.717  0.00  0.00    +0.000 A 
ATOM      3  C   UNL     1       5.436   5.629  16.568  0.00  0.00    +0.000 A 
ATOM      4  C   UNL     1       5.873   4.613  17.399  0.00  0.00    +0.000 A 
ATOM      5  N   UNL     1       5.355   3.309  17.263  0.00  0.00    +0.000 N 
ATOM      6  N   UNL     1       6.803   4.758  18.356  0.00  0.00    +0.000 NA
ATOM      7  C   UNL     1       7.332   6.004  18.487  0.00  0.00    +0.000 A 
ATOM      8  H   UNL     1       6.089   2.626  17.432  0.00  0.00    +0.000 HD
ENDROOT
BRANCH   5   9
ATOM      9  S   UNL     1       4.000   2.963  18.217  0.00  0.00    +0.000 S 
ATOM     10  O   UNL     1       3.037   2.206  17.447  0.00  0.00    +0.000 OA
ATOM     11  O   UNL     1       4.514   2.450  19.471  0.00  0.00    +0.000 OA
BRANCH   9  12
ATOM     12  C   UNL     1       3.309   4.566  18.572  0.00  0.00    +0.000 A 
ATOM     13  C   UNL     1       2.405   5.149  17.692  0.00  0.00    +0.000 A 
ATOM     14  C   UNL     1       1.840   6.393  18.007  0.00  0.00    +0.000 A 
ATOM     15  C   UNL     1       2.140   7.066  19.209  0.00  0.00    +0.000 A 
ATOM     16  C   UNL     1       3.025   6.423  20.096  0.00  0.00    +0.000 A 
ATOM     17  C   UNL     1       3.608   5.188  19.786  0.00  0.00    +0.000 A 
BRANCH  15  18
ATOM     18  C   UNL     1       1.557   8.399  19.516  0.00  0.00    +0.000 A 
ATOM     19  C   UNL     1       1.447   9.402  18.533  0.00  0.00    +0.000 A 
ATOM     20  C   UNL     1       0.945  10.674  18.834  0.00  0.00    +0.000 A 
ATOM     21  C   UNL     1       0.520  10.971  20.124  0.00  0.00    +0.000 A 
ATOM     22  C   UNL     1       0.597   9.995  21.113  0.00  0.00    +0.000 A 
ATOM     23  C   UNL     1       1.112   8.728  20.811  0.00  0.00    +0.000 A 
ENDBRANCH  15  18
ENDBRANCH   9  12
ENDBRANCH   5   9
BRANCH   1  25
ATOM     24  C   UNL     1       8.605   8.812  18.614  0.00  0.00    +0.000 C 
ATOM     25  C   UNL     1       7.615   8.423  17.791  0.00  0.00    +0.000 C 
BRANCH  24  27
ATOM     26  N   UNL     1      10.081  10.581  19.362  0.00  0.00    +0.000 N 
ATOM     27  C   UNL     1       9.047  10.241  18.514  0.00  0.00    +0.000 C 
ATOM     28  O   UNL     1       8.503  10.980  17.698  0.00  0.00    +0.000 OA
ATOM     29  H   UNL     1      10.558   9.844  19.859  0.00  0.00    +0.000 HD
BRANCH  26  35
ATOM     30  C   UNL     1      11.656  12.325  18.641  0.00  0.00    +0.000 A 
ATOM     31  C   UNL     1      12.115  13.653  18.748  0.00  0.00    +0.000 A 
ATOM     32  C   UNL     1      11.646  14.509  19.744  0.00  0.00    +0.000 A 
ATOM     33  C   UNL     1      10.682  14.059  20.633  0.00  0.00    +0.000 A 
ATOM     34  C   UNL     1      10.182  12.762  20.515  0.00  0.00    +0.000 A 
ATOM     35  C   UNL     1      10.629  11.889  19.509  0.00  0.00    +0.000 A 
BRANCH  30  36
ATOM     36  N   UNL     1      12.071  11.580  17.515  0.00  0.00    +0.000 N 
ATOM     37  H   UNL     1      11.334  11.478  16.821  0.00  0.00    +0.000 HD
ATOM     38  H   UNL     1      12.935  11.869  17.093  0.00  0.00    +0.000 HD
ENDBRANCH  30  36
ENDBRANCH  26  35
ENDBRANCH  24  27
ENDBRANCH   1  25
TORSDOF 7
ENDMDL
MODEL 4
REMARK VINA RESULT:      -9.6      0.636      1.449
REMARK  Name = 
REMARK  7 active torsions:
REMARK  status: ('A' for Active; 'I' for Inactive)
REMARK    1  A    between atoms: N_1  and  C_2
REMARK    2  A    between atoms: C_7  and  N_8
REMARK    3  A    between atoms: C_9  and  C_11
REMARK    4  A    between atoms: C_12  and  C_13
REMARK    5  A    between atoms: N_17  and  S_18
REMARK    6  A    between atoms: S_18  and  C_21
REMARK    7  A    between atoms: C_24  and  C_25
REMARK                            x       y       z     vdW  Elec       q    Type
REMARK                         _______ _______ _______ _____ _____    ______ ____
ROOT
ATOM      1  C   UNL     1       6.990   6.971  17.560  0.00  0.00    +0.000 A 
ATOM      2  C   UNL     1       5.914   6.781  16.685  0.00  0.00    +0.000 A 
ATOM      3  C   UNL     1       5.314   5.530  16.579  0.00  0.00    +0.000 A 
ATOM      4  C   UNL     1       5.837   4.495  17.333  0.00  0.00    +0.000 A 
ATOM      5  N   UNL     1       5.297   3.197  17.233  0.00  0.00    +0.000 N 
ATOM      6  N   UNL     1       6.874   4.615  18.177  0.00  0.00    +0.000 NA
ATOM      7  C   UNL     1       7.425   5.855  18.271  0.00  0.00    +0.000 A 
ATOM      8  H   UNL     1       6.040   2.506  17.302  0.00  0.00    +0.000 HD
ENDROOT
BRANCH   5   9
ATOM      9  S   UNL     1       4.060   2.839  18.332  0.00  0.00    +0.000 S 
ATOM     10  O   UNL     1       3.069   1.995  17.699  0.00  0.00    +0.000 OA
ATOM     11  O   UNL     1       4.717   2.420  19.553  0.00  0.00    +0.000 OA
BRANCH   9  12
ATOM     12  C   UNL     1       3.321   4.423  18.673  0.00  0.00    +0.000 A 
ATOM     13  C   UNL     1       3.725   5.160  19.780  0.00  0.00    +0.000 A 
ATOM     14  C   UNL     1       3.163   6.424  20.011  0.00  0.00    +0.000 A 
ATOM     15  C   UNL     1       2.211   6.987  19.137  0.00  0.00    +0.000 A 
ATOM     16  C   UNL     1       1.858   6.230  18.003  0.00  0.00    +0.000 A 
ATOM     17  C   UNL     1       2.403   4.961  17.769  0.00  0.00    +0.000 A 
BRANCH  15  18
ATOM     18  C   UNL     1       1.598   8.315  19.411  0.00  0.00    +0.000 A 
ATOM     19  C   UNL     1       1.472   9.292  18.404  0.00  0.00    +0.000 A 
ATOM     20  C   UNL     1       0.941  10.559  18.672  0.00  0.00    +0.000 A 
ATOM     21  C   UNL     1       0.502  10.877  19.952  0.00  0.00    +0.000 A 
ATOM     22  C   UNL     1       0.595   9.927  20.964  0.00  0.00    +0.000 A 
ATOM     23  C   UNL     1       1.139   8.665  20.694  0.00  0.00    +0.000 A 
ENDBRANCH  15  18
ENDBRANCH   9  12
ENDBRANCH   5   9
BRANCH   1  25
ATOM     24  C   UNL     1       8.458   8.779  18.543  0.00  0.00    +0.000 C 
ATOM     25  C   UNL     1       7.643   8.286  17.593  0.00  0.00    +0.000 C 
BRANCH  24  27
ATOM     26  N   UNL     1      10.153  10.453  18.982  0.00  0.00    +0.000 N 
ATOM     27  C   UNL     1       8.960  10.178  18.345  0.00  0.00    +0.000 C 
ATOM     28  O   UNL     1       8.321  10.949  17.635  0.00  0.00    +0.000 OA
ATOM     29  H   UNL     1      10.668   9.688  19.392  0.00  0.00    +0.000 HD
BRANCH  26  35
ATOM     30  C   UNL     1      10.701  12.542  20.156  0.00  0.00    +0.000 A 
ATOM     31  C   UNL     1      11.424  13.751  20.190  0.00  0.00    +0.000 A 
ATOM     32  C   UNL     1      12.153  14.197  19.087  0.00  0.00    +0.000 A 
ATOM     33  C   UNL     1      12.196  13.421  17.939  0.00  0.00    +0.000 A 
ATOM     34  C   UNL     1      11.524  12.199  17.902  0.00  0.00    +0.000 A 
ATOM     35  C   UNL     1      10.798  11.724  19.008  0.00  0.00    +0.000 A 
BRANCH  30  36
ATOM     36  N   UNL     1      10.119  12.097  21.363  0.00  0.00    +0.000 N 
ATOM     37  H   UNL     1       9.837  12.864  21.968  0.00  0.00    +0.000 HD
ATOM     38  H   UNL     1       9.387  11.414  21.271  0.00  0.00    +0.000 HD
ENDBRANCH  30  36
ENDBRANCH  26  35
ENDBRANCH  24  27
ENDBRANCH   1  25
TORSDOF 7
ENDMDL
MODEL 5
REMARK VINA RESULT:      -9.3      1.347      1.898
REMARK  Name = 
REMARK  7 active torsions:
REMARK  status: ('A' for Active; 'I' for Inactive)
REMARK    1  A    between atoms: N_1  and  C_2
REMARK    2  A    between atoms: C_7  and  N_8
REMARK    3  A    between atoms: C_9  and  C_11
REMARK    4  A    between atoms: C_12  and  C_13
REMARK    5  A    between atoms: N_17  and  S_18
REMARK    6  A    between atoms: S_18  and  C_21
REMARK    7  A    between atoms: C_24  and  C_25
REMARK                            x       y       z     vdW  Elec       q    Type
REMARK                         _______ _______ _______ _____ _____    ______ ____
ROOT
ATOM      1  C   UNL     1       7.854   7.480  18.374  0.00  0.00    +0.000 A 
ATOM      2  C   UNL     1       6.817   7.511  17.433  0.00  0.00    +0.000 A 
ATOM      3  C   UNL     1       6.153   6.338  17.088  0.00  0.00    +0.000 A 
ATOM      4  C   UNL     1       6.576   5.158  17.674  0.00  0.00    +0.000 A 
ATOM      5  N   UNL     1       5.969   3.934  17.328  0.00  0.00    +0.000 N 
ATOM      6  N   UNL     1       7.572   5.066  18.569  0.00  0.00    +0.000 NA
ATOM      7  C   UNL     1       8.186   6.234  18.899  0.00  0.00    +0.000 A 
ATOM      8  H   UNL     1       6.667   3.195  17.308  0.00  0.00    +0.000 HD
ENDROOT
BRANCH   5   9
ATOM      9  S   UNL     1       4.657   3.476  18.295  0.00  0.00    +0.000 S 
ATOM     10  O   UNL     1       3.803   2.563  17.566  0.00  0.00    +0.000 OA
ATOM     11  O   UNL     1       5.217   3.100  19.577  0.00  0.00    +0.000 OA
BRANCH   9  12
ATOM     12  C   UNL     1       3.769   4.997  18.557  0.00  0.00    +0.000 A 
ATOM     13  C   UNL     1       3.206   5.673  17.481  0.00  0.00    +0.000 A 
ATOM     14  C   UNL     1       2.475   6.848  17.710  0.00  0.00    +0.000 A 
ATOM     15  C   UNL     1       2.269   7.357  19.008  0.00  0.00    +0.000 A 
ATOM     16  C   UNL     1       2.818   6.622  20.077  0.00  0.00    +0.000 A 
ATOM     17  C   UNL     1       3.562   5.455  19.860  0.00  0.00    +0.000 A 
BRANCH  15  18
ATOM     18  C   UNL     1       1.520   8.621  19.235  0.00  0.00    +0.000 A 
ATOM     19  C   UNL     1       1.244   9.516  18.182  0.00  0.00    +0.000 A 
ATOM     20  C   UNL     1       0.582  10.730  18.403  0.00  0.00    +0.000 A 
ATOM     21  C   UNL     1       0.158  11.072  19.682  0.00  0.00    +0.000 A 
ATOM     22  C   UNL     1       0.398  10.200  20.739  0.00  0.00    +0.000 A 
ATOM     23  C   UNL     1       1.072   8.994  20.516  0.00  0.00    +0.000 A 
ENDBRANCH  15  18
ENDBRANCH   9  12
ENDBRANCH   5   9
BRANCH   1  25
ATOM     24  C   UNL     1       8.591   9.858  17.936  0.00  0.00    +0.000 C 
ATOM     25  C   UNL     1       8.577   8.725  18.661  0.00  0.00    +0.000 C 
BRANCH  24  27
ATOM     26  N   UNL     1       9.250  12.185  17.810  0.00  0.00    +0.000 N 
ATOM     27  C   UNL     1       9.452  10.976  18.442  0.00  0.00    +0.000 C 
ATOM     28  O   UNL     1      10.230  10.760  19.368  0.00  0.00    +0.000 OA
ATOM     29  H   UNL     1       8.463  12.277  17.185  0.00  0.00    +0.000 HD
BRANCH  26  35
ATOM     30  C   UNL     1      11.033  13.757  17.180  0.00  0.00    +0.000 A 
ATOM     31  C   UNL     1      11.688  14.985  17.396  0.00  0.00    +0.000 A 
ATOM     32  C   UNL     1      11.395  15.784  18.501  0.00  0.00    +0.000 A 
ATOM     33  C   UNL     1      10.415  15.380  19.395  0.00  0.00    +0.000 A 
ATOM     34  C   UNL     1       9.724  14.188  19.174  0.00  0.00    +0.000 A 
ATOM     35  C   UNL     1       9.992  13.378  18.058  0.00  0.00    +0.000 A 
BRANCH  30  36
ATOM     36  N   UNL     1      11.283  13.090  15.961  0.00  0.00    +0.000 N 
ATOM     37  H   UNL     1      12.244  12.765  15.882  0.00  0.00    +0.000 HD
ATOM     38  H   UNL     1      10.630  12.367  15.714  0.00  0.00    +0.000 HD
ENDBRANCH  30  36
ENDBRANCH  26  35
ENDBRANCH  24  27
ENDBRANCH   1  25
TORSDOF 7
ENDMDL
MODEL 6
REMARK VINA RESULT:      -9.2      1.034      1.333
REMARK  Name = 
REMARK  7 active torsions:
REMARK  status: ('A' for Active; 'I' for Inactive)
REMARK    1  A    between atoms: N_1  and  C_2
REMARK    2  A    between atoms: C_7  and  N_8
REMARK    3  A    between atoms: C_9  and  C_11
REMARK    4  A    between atoms: C_12  and  C_13
REMARK    5  A    between atoms: N_17  and  S_18
REMARK    6  A    between atoms: S_18  and  C_21
REMARK    7  A    between atoms: C_24  and  C_25
REMARK                            x       y       z     vdW  Elec       q    Type
REMARK                         _______ _______ _______ _____ _____    ______ ____
ROOT
ATOM      1  C   UNL     1       7.246   6.835  18.232  0.00  0.00    +0.000 A 
ATOM      2  C   UNL     1       6.170   6.951  17.345  0.00  0.00    +0.000 A 
ATOM      3  C   UNL     1       5.467   5.816  16.950  0.00  0.00    +0.000 A 
ATOM      4  C   UNL     1       5.891   4.591  17.433  0.00  0.00    +0.000 A 
ATOM      5  N   UNL     1       5.243   3.404  17.032  0.00  0.00    +0.000 N 
ATOM      6  N   UNL     1       6.923   4.418  18.273  0.00  0.00    +0.000 NA
ATOM      7  C   UNL     1       7.576   5.550  18.654  0.00  0.00    +0.000 A 
ATOM      8  H   UNL     1       5.924   2.656  16.929  0.00  0.00    +0.000 HD
ENDROOT
BRANCH   5   9
ATOM      9  S   UNL     1       3.967   2.903  18.025  0.00  0.00    +0.000 S 
ATOM     10  O   UNL     1       2.981   2.194  17.237  0.00  0.00    +0.000 OA
ATOM     11  O   UNL     1       4.579   2.281  19.180  0.00  0.00    +0.000 OA
BRANCH   9  12
ATOM     12  C   UNL     1       3.246   4.429  18.595  0.00  0.00    +0.000 A 
ATOM     13  C   UNL     1       3.439   4.848  19.906  0.00  0.00    +0.000 A 
ATOM     14  C   UNL     1       2.899   6.071  20.327  0.00  0.00    +0.000 A 
ATOM     15  C   UNL     1       2.180   6.910  19.450  0.00  0.00    +0.000 A 
ATOM     16  C   UNL     1       2.042   6.473  18.119  0.00  0.00    +0.000 A 
ATOM     17  C   UNL     1       2.565   5.246  17.690  0.00  0.00    +0.000 A 
BRANCH  15  18
ATOM     18  C   UNL     1       1.585   8.190  19.917  0.00  0.00    +0.000 A 
ATOM     19  C   UNL     1       1.322   9.251  19.028  0.00  0.00    +0.000 A 
ATOM     20  C   UNL     1       0.808  10.474  19.474  0.00  0.00    +0.000 A 
ATOM     21  C   UNL     1       0.523  10.663  20.822  0.00  0.00    +0.000 A 
ATOM     22  C   UNL     1       0.754   9.628  21.723  0.00  0.00    +0.000 A 
ATOM     23  C   UNL     1       1.280   8.410  21.274  0.00  0.00    +0.000 A 
ENDBRANCH  15  18
ENDBRANCH   9  12
ENDBRANCH   5   9
BRANCH   1  25
ATOM     24  C   UNL     1       8.153   9.162  17.837  0.00  0.00    +0.000 C 
ATOM     25  C   UNL     1       8.008   8.044  18.571  0.00  0.00    +0.000 C 
BRANCH  24  27
ATOM     26  N   UNL     1       8.903  11.464  17.783  0.00  0.00    +0.000 N 
ATOM     27  C   UNL     1       9.024  10.240  18.408  0.00  0.00    +0.000 C 
ATOM     28  O   UNL     1       9.738   9.983  19.374  0.00  0.00    +0.000 OA
ATOM     29  H   UNL     1       8.158  11.593  17.116  0.00  0.00    +0.000 HD
BRANCH  26  35
ATOM     30  C   UNL     1      11.080  12.591  17.970  0.00  0.00    +0.000 A 
ATOM     31  C   UNL     1      11.808  13.776  18.191  0.00  0.00    +0.000 A 
ATOM     32  C   UNL     1      11.182  14.949  18.613  0.00  0.00    +0.000 A 
ATOM     33  C   UNL     1       9.807  14.963  18.790  0.00  0.00    +0.000 A 
ATOM     34  C   UNL     1       9.063  13.811  18.533  0.00  0.00    +0.000 A 
ATOM     35  C   UNL     1       9.673  12.624  18.091  0.00  0.00    +0.000 A 
BRANCH  30  36
ATOM     36  N   UNL     1      11.771  11.498  17.401  0.00  0.00    +0.000 N 
ATOM     37  H   UNL     1      12.317  11.762  16.585  0.00  0.00    +0.000 HD
ATOM     38  H   UNL     1      12.311  10.941  18.039  0.00  0.00    +0.000 HD
ENDBRANCH  30  36
ENDBRANCH  26  35
ENDBRANCH  24  27
ENDBRANCH   1  25
TORSDOF 7
ENDMDL
MODEL 7
REMARK VINA RESULT:      -9.2      1.051      1.664
REMARK  Name = 
REMARK  7 active torsions:
REMARK  status: ('A' for Active; 'I' for Inactive)
REMARK    1  A    between atoms: N_1  and  C_2
REMARK    2  A    between atoms: C_7  and  N_8
REMARK    3  A    between atoms: C_9  and  C_11
REMARK    4  A    between atoms: C_12  and  C_13
REMARK    5  A    between atoms: N_17  and  S_18
REMARK    6  A    between atoms: S_18  and  C_21
REMARK    7  A    between atoms: C_24  and  C_25
REMARK                            x       y       z     vdW  Elec       q    Type
REMARK                         _______ _______ _______ _____ _____    ______ ____
ROOT
ATOM      1  C   UNL     1       6.283   6.256  17.854  0.00  0.00    +0.000 A 
ATOM      2  C   UNL     1       5.785   5.748  16.649  0.00  0.00    +0.000 A 
ATOM      3  C   UNL     1       5.161   4.504  16.622  0.00  0.00    +0.000 A 
ATOM      4  C   UNL     1       5.088   3.790  17.805  0.00  0.00    +0.000 A 
ATOM      5  N   UNL     1       4.506   2.506  17.827  0.00  0.00    +0.000 N 
ATOM      6  N   UNL     1       5.560   4.221  18.985  0.00  0.00    +0.000 NA
ATOM      7  C   UNL     1       6.146   5.449  18.980  0.00  0.00    +0.000 A 
ATOM      8  H   UNL     1       5.013   1.908  18.475  0.00  0.00    +0.000 HD
ENDROOT
BRANCH   5   9
ATOM      9  S   UNL     1       2.848   2.467  18.168  0.00  0.00    +0.000 S 
ATOM     10  O   UNL     1       2.102   2.233  16.950  0.00  0.00    +0.000 OA
ATOM     11  O   UNL     1       2.695   1.589  19.310  0.00  0.00    +0.000 OA
BRANCH   9  12
ATOM     12  C   UNL     1       2.492   4.114  18.744  0.00  0.00    +0.000 A 
ATOM     13  C   UNL     1       2.249   5.137  17.836  0.00  0.00    +0.000 A 
ATOM     14  C   UNL     1       1.930   6.418  18.307  0.00  0.00    +0.000 A 
ATOM     15  C   UNL     1       1.822   6.700  19.684  0.00  0.00    +0.000 A 
ATOM     16  C   UNL     1       2.032   5.629  20.574  0.00  0.00    +0.000 A 
ATOM     17  C   UNL     1       2.366   4.348  20.115  0.00  0.00    +0.000 A 
BRANCH  15  18
ATOM     18  C   UNL     1       1.514   8.071  20.172  0.00  0.00    +0.000 A 
ATOM     19  C   UNL     1       1.378   8.353  21.546  0.00  0.00    +0.000 A 
ATOM     20  C   UNL     1       1.039   9.632  22.004  0.00  0.00    +0.000 A 
ATOM     21  C   UNL     1       0.848  10.670  21.099  0.00  0.00    +0.000 A 
ATOM     22  C   UNL     1       0.994  10.428  19.737  0.00  0.00    +0.000 A 
ATOM     23  C   UNL     1       1.321   9.145  19.283  0.00  0.00    +0.000 A 
ENDBRANCH  15  18
ENDBRANCH   9  12
ENDBRANCH   5   9
BRANCH   1  25
ATOM     24  C   UNL     1       8.098   7.884  18.523  0.00  0.00    +0.000 C 
ATOM     25  C   UNL     1       6.997   7.540  17.832  0.00  0.00    +0.000 C 
BRANCH  24  27
ATOM     26  N   UNL     1       9.473   9.712  19.322  0.00  0.00    +0.000 N 
ATOM     27  C   UNL     1       8.602   9.284  18.340  0.00  0.00    +0.000 C 
ATOM     28  O   UNL     1       8.245   9.925  17.355  0.00  0.00    +0.000 OA
ATOM     29  H   UNL     1       9.823   9.035  19.983  0.00  0.00    +0.000 HD
BRANCH  26  35
ATOM     30  C   UNL     1       9.839  11.789  20.583  0.00  0.00    +0.000 A 
ATOM     31  C   UNL     1      10.478  13.040  20.685  0.00  0.00    +0.000 A 
ATOM     32  C   UNL     1      11.216  13.571  19.626  0.00  0.00    +0.000 A 
ATOM     33  C   UNL     1      11.353  12.841  18.457  0.00  0.00    +0.000 A 
ATOM     34  C   UNL     1      10.765  11.580  18.353  0.00  0.00    +0.000 A 
ATOM     35  C   UNL     1      10.031  11.020  19.414  0.00  0.00    +0.000 A 
BRANCH  30  36
ATOM     36  N   UNL     1       9.243  11.265  21.751  0.00  0.00    +0.000 N 
ATOM     37  H   UNL     1       9.818  10.555  22.199  0.00  0.00    +0.000 HD
ATOM     38  H   UNL     1       8.912  11.941  22.417  0.00  0.00    +0.000 HD
ENDBRANCH  30  36
ENDBRANCH  26  35
ENDBRANCH  24  27
ENDBRANCH   1  25
TORSDOF 7
ENDMDL
MODEL 8
REMARK VINA RESULT:      -9.1      4.245      9.453
REMARK  Name = 
REMARK  7 active torsions:
REMARK  status: ('A' for Active; 'I' for Inactive)
REMARK    1  A    between atoms: N_1  and  C_2
REMARK    2  A    between atoms: C_7  and  N_8
REMARK    3  A    between atoms: C_9  and  C_11
REMARK    4  A    between atoms: C_12  and  C_13
REMARK    5  A    between atoms: N_17  and  S_18
REMARK    6  A    between atoms: S_18  and  C_21
REMARK    7  A    between atoms: C_24  and  C_25
REMARK                            x       y       z     vdW  Elec       q    Type
REMARK                         _______ _______ _______ _____ _____    ______ ____
ROOT
ATOM      1  C   UNL     1       9.597  10.925  18.915  0.00  0.00    +0.000 A 
ATOM      2  C   UNL     1       9.337  11.640  20.091  0.00  0.00    +0.000 A 
ATOM      3  C   UNL     1       9.979  12.852  20.326  0.00  0.00    +0.000 A 
ATOM      4  C   UNL     1      10.893  13.294  19.386  0.00  0.00    +0.000 A 
ATOM      5  N   UNL     1      11.605  14.493  19.593  0.00  0.00    +0.000 N 
ATOM      6  N   UNL     1      11.192  12.646  18.249  0.00  0.00    +0.000 NA
ATOM      7  C   UNL     1      10.532  11.474  18.042  0.00  0.00    +0.000 A 
ATOM      8  H   UNL     1      12.554  14.398  19.241  0.00  0.00    +0.000 HD
ENDROOT
BRANCH   5   9
ATOM      9  S   UNL     1      10.881  15.886  18.958  0.00  0.00    +0.000 S 
ATOM     10  O   UNL     1      11.189  17.025  19.795  0.00  0.00    +0.000 OA
ATOM     11  O   UNL     1      11.203  15.896  17.546  0.00  0.00    +0.000 OA
BRANCH   9  12
ATOM     12  C   UNL     1       9.135  15.551  19.076  0.00  0.00    +0.000 A 
ATOM     13  C   UNL     1       8.444  15.840  20.247  0.00  0.00    +0.000 A 
ATOM     14  C   UNL     1       7.063  15.608  20.308  0.00  0.00    +0.000 A 
ATOM     15  C   UNL     1       6.340  15.110  19.205  0.00  0.00    +0.000 A 
ATOM     16  C   UNL     1       7.067  14.870  18.022  0.00  0.00    +0.000 A 
ATOM     17  C   UNL     1       8.450  15.084  17.953  0.00  0.00    +0.000 A 
BRANCH  15  18
ATOM     18  C   UNL     1       4.881  14.838  19.293  0.00  0.00    +0.000 A 
ATOM     19  C   UNL     1       4.235  14.667  20.534  0.00  0.00    +0.000 A 
ATOM     20  C   UNL     1       2.871  14.362  20.616  0.00  0.00    +0.000 A 
ATOM     21  C   UNL     1       2.111  14.240  19.459  0.00  0.00    +0.000 A 
ATOM     22  C   UNL     1       2.716  14.422  18.219  0.00  0.00    +0.000 A 
ATOM     23  C   UNL     1       4.083  14.714  18.141  0.00  0.00    +0.000 A 
ENDBRANCH  15  18
ENDBRANCH   9  12
ENDBRANCH   5   9
BRANCH   1  25
ATOM     24  C   UNL     1       8.212   9.199  17.693  0.00  0.00    +0.000 C 
ATOM     25  C   UNL     1       8.955   9.617  18.734  0.00  0.00    +0.000 C 
BRANCH  24  27
ATOM     26  N   UNL     1       6.661   7.542  16.848  0.00  0.00    +0.000 N 
ATOM     27  C   UNL     1       7.639   7.817  17.781  0.00  0.00    +0.000 C 
ATOM     28  O   UNL     1       8.078   7.040  18.625  0.00  0.00    +0.000 OA
ATOM     29  H   UNL     1       6.511   8.201  16.099  0.00  0.00    +0.000 HD
BRANCH  26  35
ATOM     30  C   UNL     1       6.324   5.303  15.891  0.00  0.00    +0.000 A 
ATOM     31  C   UNL     1       5.624   4.081  15.901  0.00  0.00    +0.000 A 
ATOM     32  C   UNL     1       4.487   3.898  16.689  0.00  0.00    +0.000 A 
ATOM     33  C   UNL     1       4.050   4.929  17.506  0.00  0.00    +0.000 A 
ATOM     34  C   UNL     1       4.757   6.132  17.543  0.00  0.00    +0.000 A 
ATOM     35  C   UNL     1       5.914   6.330  16.770  0.00  0.00    +0.000 A 
BRANCH  30  36
ATOM     36  N   UNL     1       7.546   5.348  15.183  0.00  0.00    +0.000 N 
ATOM     37  H   UNL     1       8.107   6.162  15.422  0.00  0.00    +0.000 HD
ATOM     38  H   UNL     1       8.094   4.506  15.201  0.00  0.00    +0.000 HD
ENDBRANCH  30  36
ENDBRANCH  26  35
ENDBRANCH  24  27
ENDBRANCH   1  25
TORSDOF 7
ENDMDL
MODEL 9
REMARK VINA RESULT:      -9.0      1.267      1.742
REMARK  Name = 
REMARK  7 active torsions:
REMARK  status: ('A' for Active; 'I' for Inactive)
REMARK    1  A    between atoms: N_1  and  C_2
REMARK    2  A    between atoms: C_7  and  N_8
REMARK    3  A    between atoms: C_9  and  C_11
REMARK    4  A    between atoms: C_12  and  C_13
REMARK    5  A    between atoms: N_17  and  S_18
REMARK    6  A    between atoms: S_18  and  C_21
REMARK    7  A    between atoms: C_24  and  C_25
REMARK                            x       y       z     vdW  Elec       q    Type
REMARK                         _______ _______ _______ _____ _____    ______ ____
ROOT
ATOM      1  C   UNL     1       7.250   7.200  17.912  0.00  0.00    +0.000 A 
ATOM      2  C   UNL     1       6.216   7.154  16.969  0.00  0.00    +0.000 A 
ATOM      3  C   UNL     1       5.595   5.944  16.675  0.00  0.00    +0.000 A 
ATOM      4  C   UNL     1       6.056   4.806  17.312  0.00  0.00    +0.000 A 
ATOM      5  N   UNL     1       5.494   3.547  17.020  0.00  0.00    +0.000 N 
ATOM      6  N   UNL     1       7.052   4.788  18.213  0.00  0.00    +0.000 NA
ATOM      7  C   UNL     1       7.624   5.990  18.491  0.00  0.00    +0.000 A 
ATOM      8  H   UNL     1       6.217   2.833  17.034  0.00  0.00    +0.000 HD
ENDROOT
BRANCH   5   9
ATOM      9  S   UNL     1       4.195   3.087  18.004  0.00  0.00    +0.000 S 
ATOM     10  O   UNL     1       3.237   2.327  17.230  0.00  0.00    +0.000 OA
ATOM     11  O   UNL     1       4.782   2.531  19.206  0.00  0.00    +0.000 OA
BRANCH   9  12
ATOM     12  C   UNL     1       3.447   4.633  18.475  0.00  0.00    +0.000 A 
ATOM     13  C   UNL     1       2.584   5.287  17.604  0.00  0.00    +0.000 A 
ATOM     14  C   UNL     1       1.973   6.483  18.006  0.00  0.00    +0.000 A 
ATOM     15  C   UNL     1       2.186   7.036  19.285  0.00  0.00    +0.000 A 
ATOM     16  C   UNL     1       3.032   6.323  20.156  0.00  0.00    +0.000 A 
ATOM     17  C   UNL     1       3.661   5.135  19.760  0.00  0.00    +0.000 A 
BRANCH  15  18
ATOM     18  C   UNL     1       1.556   8.321  19.688  0.00  0.00    +0.000 A 
ATOM     19  C   UNL     1       1.119   8.548  21.008  0.00  0.00    +0.000 A 
ATOM     20  C   UNL     1       0.481   9.739  21.377  0.00  0.00    +0.000 A 
ATOM     21  C   UNL     1       0.281  10.744  20.438  0.00  0.00    +0.000 A 
ATOM     22  C   UNL     1       0.718  10.558  19.131  0.00  0.00    +0.000 A 
ATOM     23  C   UNL     1       1.344   9.361  18.763  0.00  0.00    +0.000 A 
ENDBRANCH  15  18
ENDBRANCH   9  12
ENDBRANCH   5   9
BRANCH   1  25
ATOM     24  C   UNL     1       8.822   8.779  19.106  0.00  0.00    +0.000 C 
ATOM     25  C   UNL     1       7.929   8.480  18.145  0.00  0.00    +0.000 C 
BRANCH  24  27
ATOM     26  N   UNL     1       9.768  10.669  17.922  0.00  0.00    +0.000 N 
ATOM     27  C   UNL     1       9.336  10.186  19.141  0.00  0.00    +0.000 C 
ATOM     28  O   UNL     1       9.314  10.806  20.201  0.00  0.00    +0.000 OA
ATOM     29  H   UNL     1       9.574  10.126  17.094  0.00  0.00    +0.000 HD
BRANCH  26  35
ATOM     30  C   UNL     1       9.556  13.051  17.356  0.00  0.00    +0.000 A 
ATOM     31  C   UNL     1      10.156  14.320  17.239  0.00  0.00    +0.000 A 
ATOM     32  C   UNL     1      11.535  14.489  17.371  0.00  0.00    +0.000 A 
ATOM     33  C   UNL     1      12.333  13.392  17.654  0.00  0.00    +0.000 A 
ATOM     34  C   UNL     1      11.751  12.135  17.818  0.00  0.00    +0.000 A 
ATOM     35  C   UNL     1      10.363  11.946  17.706  0.00  0.00    +0.000 A 
BRANCH  30  36
ATOM     36  N   UNL     1       8.144  12.996  17.359  0.00  0.00    +0.000 N 
ATOM     37  H   UNL     1       7.735  13.500  18.142  0.00  0.00    +0.000 HD
ATOM     38  H   UNL     1       7.694  13.235  16.494  0.00  0.00    +0.000 HD
ENDBRANCH  30  36
ENDBRANCH  26  35
ENDBRANCH  24  27
ENDBRANCH   1  25
TORSDOF 7
ENDMDL
