MODEL 1
REMARK VINA RESULT:      -8.6      0.000      0.000
REMARK  Name = 
REMARK  7 active torsions:
REMARK  status: ('A' for Active; 'I' for Inactive)
REMARK    1  A    between atoms: S_2  and  N_4
REMARK    2  A    between atoms: S_2  and  C_24
REMARK    3  A    between atoms: N_4  and  C_5
REMARK    4  A    between atoms: C_8  and  S_9
REMARK    5  A    between atoms: S_9  and  C_12
REMARK    6  A    between atoms: C_16  and  O_17
REMARK    7  A    between atoms: O_17  and  C_18
REMARK                            x       y       z     vdW  Elec       q    Type
REMARK                         _______ _______ _______ _____ _____    ______ ____
ROOT
ATOM      1  C   UNL     1       2.807   4.771  17.655  0.00  0.00    +0.000 A 
ATOM      2  C   UNL     1       3.495   4.107  16.628  0.00  0.00    +0.000 A 
ATOM      3  C   UNL     1       4.852   4.357  16.394  0.00  0.00    +0.000 A 
ATOM      4  C   UNL     1       5.522   5.294  17.181  0.00  0.00    +0.000 A 
ATOM      5  C   UNL     1       4.857   5.953  18.216  0.00  0.00    +0.000 A 
ATOM      6  C   UNL     1       3.504   5.678  18.472  0.00  0.00    +0.000 A 
ENDROOT
BRANCH   4   7
ATOM      7  S   UNL     1       7.264   5.585  16.932  0.00  0.00    +0.000 S 
ATOM      8  O   UNL     1       7.969   4.455  17.516  0.00  0.00    +0.000 OA
ATOM      9  O   UNL     1       7.444   5.882  15.520  0.00  0.00    +0.000 OA
BRANCH   7  10
ATOM     10  C   UNL     1       7.585   7.064  17.904  0.00  0.00    +0.000 C 
ATOM     11  F   UNL     1       8.482   6.846  18.908  0.00  0.00    +0.000 F 
ATOM     12  F   UNL     1       8.095   8.083  17.154  0.00  0.00    +0.000 F 
ENDBRANCH   7  10
ENDBRANCH   4   7
BRANCH   1  13
ATOM     13  N   UNL     1       1.457   4.389  17.905  0.00  0.00    +0.000 N 
ATOM     14  H   UNL     1       0.731   5.083  17.748  0.00  0.00    +0.000 HD
BRANCH  13  16
ATOM     15  O   UNL     1       0.662   4.036  20.304  0.00  0.00    +0.000 OA
ATOM     16  S   UNL     1       1.057   3.309  19.118  0.00  0.00    +0.000 S 
ATOM     17  O   UNL     1       0.159   2.350  18.500  0.00  0.00    +0.000 OA
BRANCH  16  18
ATOM     18  C   UNL     1       2.580   2.461  19.448  0.00  0.00    +0.000 A 
ATOM     19  C   UNL     1       3.266   2.710  20.642  0.00  0.00    +0.000 A 
ATOM     20  C   UNL     1       4.450   2.029  20.912  0.00  0.00    +0.000 A 
ATOM     21  C   UNL     1       4.941   1.092  20.003  0.00  0.00    +0.000 A 
ATOM     22  C   UNL     1       4.241   0.821  18.824  0.00  0.00    +0.000 A 
ATOM     23  C   UNL     1       3.054   1.508  18.546  0.00  0.00    +0.000 A 
ENDBRANCH  16  18
ENDBRANCH  13  16
ENDBRANCH   1  13
BRANCH   6  24
ATOM     24  O   UNL     1       2.974   6.427  19.496  0.00  0.00    +0.000 OA
BRANCH  24  25
ATOM     25  C   UNL     1       2.253   7.570  19.254  0.00  0.00    +0.000 A 
ATOM     26  C   UNL     1       2.142   8.226  18.029  0.00  0.00    +0.000 A 
ATOM     27  C   UNL     1       1.487   9.457  17.953  0.00  0.00    +0.000 A 
ATOM     28  C   UNL     1       0.872   9.994  19.083  0.00  0.00    +0.000 A 
ATOM     29  C   UNL     1       0.889   9.289  20.283  0.00  0.00    +0.000 A 
ATOM     30  C   UNL     1       1.577   8.079  20.365  0.00  0.00    +0.000 A 
ENDBRANCH  24  25
ENDBRANCH   6  24
TORSDOF 7
ENDMDL
MODEL 2
REMARK VINA RESULT:      -8.4      0.141      1.273
REMARK  Name = 
REMARK  7 active torsions:
REMARK  status: ('A' for Active; 'I' for Inactive)
REMARK    1  A    between atoms: S_2  and  N_4
REMARK    2  A    between atoms: S_2  and  C_24
REMARK    3  A    between atoms: N_4  and  C_5
REMARK    4  A    between atoms: C_8  and  S_9
REMARK    5  A    between atoms: S_9  and  C_12
REMARK    6  A    between atoms: C_16  and  O_17
REMARK    7  A    between atoms: O_17  and  C_18
REMARK                            x       y       z     vdW  Elec       q    Type
REMARK                         _______ _______ _______ _____ _____    ______ ____
ROOT
ATOM      1  C   UNL     1       2.787   4.759  17.683  0.00  0.00    +0.000 A 
ATOM      2  C   UNL     1       3.462   4.150  16.615  0.00  0.00    +0.000 A 
ATOM      3  C   UNL     1       4.821   4.400  16.388  0.00  0.00    +0.000 A 
ATOM      4  C   UNL     1       5.505   5.283  17.225  0.00  0.00    +0.000 A 
ATOM      5  C   UNL     1       4.851   5.886  18.300  0.00  0.00    +0.000 A 
ATOM      6  C   UNL     1       3.498   5.610  18.547  0.00  0.00    +0.000 A 
ENDROOT
BRANCH   4   7
ATOM      7  S   UNL     1       7.248   5.571  16.982  0.00  0.00    +0.000 S 
ATOM      8  O   UNL     1       7.949   4.446  17.579  0.00  0.00    +0.000 OA
ATOM      9  O   UNL     1       7.436   5.857  15.569  0.00  0.00    +0.000 OA
BRANCH   7  10
ATOM     10  C   UNL     1       7.564   7.058  17.945  0.00  0.00    +0.000 C 
ATOM     11  F   UNL     1       8.489   6.858  18.927  0.00  0.00    +0.000 F 
ATOM     12  F   UNL     1       8.037   8.084  17.181  0.00  0.00    +0.000 F 
ENDBRANCH   7  10
ENDBRANCH   4   7
BRANCH   1  13
ATOM     13  N   UNL     1       1.435   4.376  17.919  0.00  0.00    +0.000 N 
ATOM     14  H   UNL     1       0.710   5.070  17.752  0.00  0.00    +0.000 HD
BRANCH  13  16
ATOM     15  O   UNL     1       0.627   4.024  20.313  0.00  0.00    +0.000 OA
ATOM     16  S   UNL     1       1.022   3.297  19.127  0.00  0.00    +0.000 S 
ATOM     17  O   UNL     1       0.121   2.345  18.503  0.00  0.00    +0.000 OA
BRANCH  16  18
ATOM     18  C   UNL     1       2.538   2.438  19.463  0.00  0.00    +0.000 A 
ATOM     19  C   UNL     1       3.044   1.533  18.524  0.00  0.00    +0.000 A 
ATOM     20  C   UNL     1       4.245   0.875  18.776  0.00  0.00    +0.000 A 
ATOM     21  C   UNL     1       4.947   1.130  19.954  0.00  0.00    +0.000 A 
ATOM     22  C   UNL     1       4.457   2.056  20.879  0.00  0.00    +0.000 A 
ATOM     23  C   UNL     1       3.248   2.714  20.632  0.00  0.00    +0.000 A 
ENDBRANCH  16  18
ENDBRANCH  13  16
ENDBRANCH   1  13
BRANCH   6  24
ATOM     24  O   UNL     1       2.980   6.302  19.617  0.00  0.00    +0.000 OA
BRANCH  24  25
ATOM     25  C   UNL     1       2.305   7.486  19.450  0.00  0.00    +0.000 A 
ATOM     26  C   UNL     1       1.582   8.164  20.430  0.00  0.00    +0.000 A 
ATOM     27  C   UNL     1       0.828   9.289  20.089  0.00  0.00    +0.000 A 
ATOM     28  C   UNL     1       0.859   9.785  18.787  0.00  0.00    +0.000 A 
ATOM     29  C   UNL     1       1.665   9.172  17.830  0.00  0.00    +0.000 A 
ATOM     30  C   UNL     1       2.386   8.027  18.165  0.00  0.00    +0.000 A 
ENDBRANCH  24  25
ENDBRANCH   6  24
TORSDOF 7
ENDMDL
MODEL 3
REMARK VINA RESULT:      -8.2      2.966      5.877
REMARK  Name = 
REMARK  7 active torsions:
REMARK  status: ('A' for Active; 'I' for Inactive)
REMARK    1  A    between atoms: S_2  and  N_4
REMARK    2  A    between atoms: S_2  and  C_24
REMARK    3  A    between atoms: N_4  and  C_5
REMARK    4  A    between atoms: C_8  and  S_9
REMARK    5  A    between atoms: S_9  and  C_12
REMARK    6  A    between atoms: C_16  and  O_17
REMARK    7  A    between atoms: O_17  and  C_18
REMARK                            x       y       z     vdW  Elec       q    Type
REMARK                         _______ _______ _______ _____ _____    ______ ____
ROOT
ATOM      1  C   UNL     1       4.239   5.270  17.157  0.00  0.00    +0.000 A 
ATOM      2  C   UNL     1       4.044   3.885  17.052  0.00  0.00    +0.000 A 
ATOM      3  C   UNL     1       3.114   3.227  17.866  0.00  0.00    +0.000 A 
ATOM      4  C   UNL     1       2.388   3.958  18.806  0.00  0.00    +0.000 A 
ATOM      5  C   UNL     1       2.559   5.339  18.913  0.00  0.00    +0.000 A 
ATOM      6  C   UNL     1       3.468   6.003  18.075  0.00  0.00    +0.000 A 
ENDROOT
BRANCH   4   7
ATOM      7  S   UNL     1       1.161   3.145  19.814  0.00  0.00    +0.000 S 
ATOM      8  O   UNL     1       0.230   4.171  20.255  0.00  0.00    +0.000 OA
ATOM      9  O   UNL     1       0.662   2.017  19.044  0.00  0.00    +0.000 OA
BRANCH   7  10
ATOM     10  C   UNL     1       2.107   2.543  21.221  0.00  0.00    +0.000 C 
ATOM     11  F   UNL     1       3.413   2.306  20.910  0.00  0.00    +0.000 F 
ATOM     12  F   UNL     1       2.119   3.428  22.259  0.00  0.00    +0.000 F 
ENDBRANCH   7  10
ENDBRANCH   4   7
BRANCH   1  13
ATOM     13  N   UNL     1       5.121   5.888  16.224  0.00  0.00    +0.000 N 
ATOM     14  H   UNL     1       4.727   6.221  15.347  0.00  0.00    +0.000 HD
BRANCH  13  16
ATOM     15  O   UNL     1       7.585   6.555  16.214  0.00  0.00    +0.000 OA
ATOM     16  S   UNL     1       6.715   5.409  16.066  0.00  0.00    +0.000 S 
ATOM     17  O   UNL     1       6.858   4.250  16.929  0.00  0.00    +0.000 OA
BRANCH  16  18
ATOM     18  C   UNL     1       6.818   4.829  14.392  0.00  0.00    +0.000 A 
ATOM     19  C   UNL     1       5.943   3.830  13.950  0.00  0.00    +0.000 A 
ATOM     20  C   UNL     1       6.008   3.390  12.631  0.00  0.00    +0.000 A 
ATOM     21  C   UNL     1       6.931   3.954  11.750  0.00  0.00    +0.000 A 
ATOM     22  C   UNL     1       7.785   4.972  12.183  0.00  0.00    +0.000 A 
ATOM     23  C   UNL     1       7.727   5.413  13.509  0.00  0.00    +0.000 A 
ENDBRANCH  16  18
ENDBRANCH  13  16
ENDBRANCH   1  13
BRANCH   6  24
ATOM     24  O   UNL     1       3.556   7.354  18.318  0.00  0.00    +0.000 OA
BRANCH  24  25
ATOM     25  C   UNL     1       2.445   8.108  18.605  0.00  0.00    +0.000 A 
ATOM     26  C   UNL     1       1.728   8.890  17.701  0.00  0.00    +0.000 A 
ATOM     27  C   UNL     1       0.697   9.715  18.157  0.00  0.00    +0.000 A 
ATOM     28  C   UNL     1       0.329   9.700  19.501  0.00  0.00    +0.000 A 
ATOM     29  C   UNL     1       0.973   8.840  20.387  0.00  0.00    +0.000 A 
ATOM     30  C   UNL     1       2.027   8.045  19.936  0.00  0.00    +0.000 A 
ENDBRANCH  24  25
ENDBRANCH   6  24
TORSDOF 7
ENDMDL
MODEL 4
REMARK VINA RESULT:      -8.0      0.703      1.296
REMARK  Name = 
REMARK  7 active torsions:
REMARK  status: ('A' for Active; 'I' for Inactive)
REMARK    1  A    between atoms: S_2  and  N_4
REMARK    2  A    between atoms: S_2  and  C_24
REMARK    3  A    between atoms: N_4  and  C_5
REMARK    4  A    between atoms: C_8  and  S_9
REMARK    5  A    between atoms: S_9  and  C_12
REMARK    6  A    between atoms: C_16  and  O_17
REMARK    7  A    between atoms: O_17  and  C_18
REMARK                            x       y       z     vdW  Elec       q    Type
REMARK                         _______ _______ _______ _____ _____    ______ ____
ROOT
ATOM      1  C   UNL     1       2.703   4.801  17.725  0.00  0.00    +0.000 A 
ATOM      2  C   UNL     1       3.466   4.158  16.740  0.00  0.00    +0.000 A 
ATOM      3  C   UNL     1       4.806   4.505  16.530  0.00  0.00    +0.000 A 
ATOM      4  C   UNL     1       5.382   5.516  17.299  0.00  0.00    +0.000 A 
ATOM      5  C   UNL     1       4.640   6.155  18.294  0.00  0.00    +0.000 A 
ATOM      6  C   UNL     1       3.306   5.786  18.526  0.00  0.00    +0.000 A 
ENDROOT
BRANCH   4   7
ATOM      7  S   UNL     1       7.102   5.933  17.082  0.00  0.00    +0.000 S 
ATOM      8  O   UNL     1       7.651   4.976  16.135  0.00  0.00    +0.000 OA
ATOM      9  O   UNL     1       7.156   7.352  16.771  0.00  0.00    +0.000 OA
BRANCH   7  10
ATOM     10  C   UNL     1       7.811   5.646  18.710  0.00  0.00    +0.000 C 
ATOM     11  F   UNL     1       8.478   6.734  19.190  0.00  0.00    +0.000 F 
ATOM     12  F   UNL     1       6.867   5.337  19.645  0.00  0.00    +0.000 F 
ENDBRANCH   7  10
ENDBRANCH   4   7
BRANCH   1  13
ATOM     13  N   UNL     1       1.380   4.324  17.956  0.00  0.00    +0.000 N 
ATOM     14  H   UNL     1       0.606   4.943  17.727  0.00  0.00    +0.000 HD
BRANCH  13  16
ATOM     15  O   UNL     1       0.698   4.073  20.402  0.00  0.00    +0.000 OA
ATOM     16  S   UNL     1       1.021   3.297  19.226  0.00  0.00    +0.000 S 
ATOM     17  O   UNL     1       0.080   2.332  18.689  0.00  0.00    +0.000 OA
BRANCH  16  18
ATOM     18  C   UNL     1       2.545   2.434  19.515  0.00  0.00    +0.000 A 
ATOM     19  C   UNL     1       3.012   1.517  18.568  0.00  0.00    +0.000 A 
ATOM     20  C   UNL     1       4.218   0.856  18.783  0.00  0.00    +0.000 A 
ATOM     21  C   UNL     1       4.965   1.120  19.930  0.00  0.00    +0.000 A 
ATOM     22  C   UNL     1       4.515   2.058  20.863  0.00  0.00    +0.000 A 
ATOM     23  C   UNL     1       3.300   2.720  20.653  0.00  0.00    +0.000 A 
ENDBRANCH  16  18
ENDBRANCH  13  16
ENDBRANCH   1  13
BRANCH   6  24
ATOM     24  O   UNL     1       2.693   6.524  19.511  0.00  0.00    +0.000 OA
BRANCH  24  25
ATOM     25  C   UNL     1       2.093   7.729  19.238  0.00  0.00    +0.000 A 
ATOM     26  C   UNL     1       2.068   8.372  18.002  0.00  0.00    +0.000 A 
ATOM     27  C   UNL     1       1.539   9.660  17.895  0.00  0.00    +0.000 A 
ATOM     28  C   UNL     1       0.963  10.275  19.006  0.00  0.00    +0.000 A 
ATOM     29  C   UNL     1       0.890   9.592  20.217  0.00  0.00    +0.000 A 
ATOM     30  C   UNL     1       1.453   8.321  20.329  0.00  0.00    +0.000 A 
ENDBRANCH  24  25
ENDBRANCH   6  24
TORSDOF 7
ENDMDL
MODEL 5
REMARK VINA RESULT:      -8.0      3.719      6.674
REMARK  Name = 
REMARK  7 active torsions:
REMARK  status: ('A' for Active; 'I' for Inactive)
REMARK    1  A    between atoms: S_2  and  N_4
REMARK    2  A    between atoms: S_2  and  C_24
REMARK    3  A    between atoms: N_4  and  C_5
REMARK    4  A    between atoms: C_8  and  S_9
REMARK    5  A    between atoms: S_9  and  C_12
REMARK    6  A    between atoms: C_16  and  O_17
REMARK    7  A    between atoms: O_17  and  C_18
REMARK                            x       y       z     vdW  Elec       q    Type
REMARK                         _______ _______ _______ _____ _____    ______ ____
ROOT
ATOM      1  C   UNL     1       2.802   6.918  18.403  0.00  0.00    +0.000 A 
ATOM      2  C   UNL     1       2.384   8.125  17.824  0.00  0.00    +0.000 A 
ATOM      3  C   UNL     1       1.666   9.069  18.569  0.00  0.00    +0.000 A 
ATOM      4  C   UNL     1       1.348   8.794  19.899  0.00  0.00    +0.000 A 
ATOM      5  C   UNL     1       1.769   7.604  20.495  0.00  0.00    +0.000 A 
ATOM      6  C   UNL     1       2.516   6.673  19.757  0.00  0.00    +0.000 A 
ENDROOT
BRANCH   4   7
ATOM      7  S   UNL     1       0.482  10.007  20.878  0.00  0.00    +0.000 S 
ATOM      8  O   UNL     1       1.427  11.076  21.158  0.00  0.00    +0.000 OA
ATOM      9  O   UNL     1      -0.752  10.316  20.172  0.00  0.00    +0.000 OA
BRANCH   7  10
ATOM     10  C   UNL     1       0.101   9.124  22.398  0.00  0.00    +0.000 C 
ATOM     11  F   UNL     1      -0.188   9.965  23.433  0.00  0.00    +0.000 F 
ATOM     12  F   UNL     1      -0.978   8.300  22.267  0.00  0.00    +0.000 F 
ENDBRANCH   7  10
ENDBRANCH   4   7
BRANCH   1  13
ATOM     13  N   UNL     1       3.619   6.054  17.619  0.00  0.00    +0.000 N 
ATOM     14  H   UNL     1       3.297   5.100  17.472  0.00  0.00    +0.000 HD
BRANCH  13  16
ATOM     15  O   UNL     1       5.678   7.557  17.509  0.00  0.00    +0.000 OA
ATOM     16  S   UNL     1       5.287   6.170  17.626  0.00  0.00    +0.000 S 
ATOM     17  O   UNL     1       5.726   5.366  18.753  0.00  0.00    +0.000 OA
BRANCH  16  18
ATOM     18  C   UNL     1       5.777   5.313  16.151  0.00  0.00    +0.000 A 
ATOM     19  C   UNL     1       4.893   4.412  15.548  0.00  0.00    +0.000 A 
ATOM     20  C   UNL     1       5.268   3.756  14.379  0.00  0.00    +0.000 A 
ATOM     21  C   UNL     1       6.513   4.009  13.803  0.00  0.00    +0.000 A 
ATOM     22  C   UNL     1       7.384   4.931  14.388  0.00  0.00    +0.000 A 
ATOM     23  C   UNL     1       7.014   5.588  15.567  0.00  0.00    +0.000 A 
ENDBRANCH  16  18
ENDBRANCH  13  16
ENDBRANCH   1  13
BRANCH   6  24
ATOM     24  O   UNL     1       2.830   5.535  20.463  0.00  0.00    +0.000 OA
BRANCH  24  25
ATOM     25  C   UNL     1       2.474   4.287  20.012  0.00  0.00    +0.000 A 
ATOM     26  C   UNL     1       3.349   3.279  19.613  0.00  0.00    +0.000 A 
ATOM     27  C   UNL     1       2.849   2.105  19.045  0.00  0.00    +0.000 A 
ATOM     28  C   UNL     1       1.473   1.903  18.950  0.00  0.00    +0.000 A 
ATOM     29  C   UNL     1       0.596   2.864  19.446  0.00  0.00    +0.000 A 
ATOM     30  C   UNL     1       1.098   4.051  19.977  0.00  0.00    +0.000 A 
ENDBRANCH  24  25
ENDBRANCH   6  24
TORSDOF 7
ENDMDL
MODEL 6
REMARK VINA RESULT:      -8.0      2.928      6.428
REMARK  Name = 
REMARK  7 active torsions:
REMARK  status: ('A' for Active; 'I' for Inactive)
REMARK    1  A    between atoms: S_2  and  N_4
REMARK    2  A    between atoms: S_2  and  C_24
REMARK    3  A    between atoms: N_4  and  C_5
REMARK    4  A    between atoms: C_8  and  S_9
REMARK    5  A    between atoms: S_9  and  C_12
REMARK    6  A    between atoms: C_16  and  O_17
REMARK    7  A    between atoms: O_17  and  C_18
REMARK                            x       y       z     vdW  Elec       q    Type
REMARK                         _______ _______ _______ _____ _____    ______ ____
ROOT
ATOM      1  C   UNL     1       2.611   7.645  17.970  0.00  0.00    +0.000 A 
ATOM      2  C   UNL     1       3.515   7.892  16.927  0.00  0.00    +0.000 A 
ATOM      3  C   UNL     1       4.687   7.137  16.799  0.00  0.00    +0.000 A 
ATOM      4  C   UNL     1       4.966   6.139  17.734  0.00  0.00    +0.000 A 
ATOM      5  C   UNL     1       4.069   5.871  18.769  0.00  0.00    +0.000 A 
ATOM      6  C   UNL     1       2.878   6.606  18.879  0.00  0.00    +0.000 A 
ENDROOT
BRANCH   4   7
ATOM      7  S   UNL     1       6.427   5.133  17.555  0.00  0.00    +0.000 S 
ATOM      8  O   UNL     1       7.478   6.001  17.047  0.00  0.00    +0.000 OA
ATOM      9  O   UNL     1       6.623   4.445  18.822  0.00  0.00    +0.000 OA
BRANCH   7  10
ATOM     10  C   UNL     1       5.963   3.942  16.289  0.00  0.00    +0.000 C 
ATOM     11  F   UNL     1       4.814   3.275  16.594  0.00  0.00    +0.000 F 
ATOM     12  F   UNL     1       5.752   4.527  15.075  0.00  0.00    +0.000 F 
ENDBRANCH   7  10
ENDBRANCH   4   7
BRANCH   1  13
ATOM     13  N   UNL     1       1.388   8.378  17.976  0.00  0.00    +0.000 N 
ATOM     14  H   UNL     1       0.836   8.385  17.122  0.00  0.00    +0.000 HD
BRANCH  13  16
ATOM     15  O   UNL     1       1.299   9.475  20.278  0.00  0.00    +0.000 OA
ATOM     16  S   UNL     1       1.205   9.780  18.868  0.00  0.00    +0.000 S 
ATOM     17  O   UNL     1       2.097  10.747  18.255  0.00  0.00    +0.000 OA
BRANCH  16  18
ATOM     18  C   UNL     1      -0.453  10.297  18.506  0.00  0.00    +0.000 A 
ATOM     19  C   UNL     1      -1.036  11.328  19.250  0.00  0.00    +0.000 A 
ATOM     20  C   UNL     1      -2.329  11.749  18.953  0.00  0.00    +0.000 A 
ATOM     21  C   UNL     1      -3.034  11.155  17.906  0.00  0.00    +0.000 A 
ATOM     22  C   UNL     1      -2.442  10.145  17.143  0.00  0.00    +0.000 A 
ATOM     23  C   UNL     1      -1.145   9.715  17.443  0.00  0.00    +0.000 A 
ENDBRANCH  16  18
ENDBRANCH  13  16
ENDBRANCH   1  13
BRANCH   6  24
ATOM     24  O   UNL     1       2.112   6.255  19.965  0.00  0.00    +0.000 OA
BRANCH  24  25
ATOM     25  C   UNL     1       1.882   4.941  20.289  0.00  0.00    +0.000 A 
ATOM     26  C   UNL     1       2.273   4.306  21.468  0.00  0.00    +0.000 A 
ATOM     27  C   UNL     1       2.095   2.928  21.610  0.00  0.00    +0.000 A 
ATOM     28  C   UNL     1       1.455   2.197  20.611  0.00  0.00    +0.000 A 
ATOM     29  C   UNL     1       0.968   2.847  19.480  0.00  0.00    +0.000 A 
ATOM     30  C   UNL     1       1.180   4.216  19.323  0.00  0.00    +0.000 A 
ENDBRANCH  24  25
ENDBRANCH   6  24
TORSDOF 7
ENDMDL
MODEL 7
REMARK VINA RESULT:      -7.9      1.011      1.146
REMARK  Name = 
REMARK  7 active torsions:
REMARK  status: ('A' for Active; 'I' for Inactive)
REMARK    1  A    between atoms: S_2  and  N_4
REMARK    2  A    between atoms: S_2  and  C_24
REMARK    3  A    between atoms: N_4  and  C_5
REMARK    4  A    between atoms: C_8  and  S_9
REMARK    5  A    between atoms: S_9  and  C_12
REMARK    6  A    between atoms: C_16  and  O_17
REMARK    7  A    between atoms: O_17  and  C_18
REMARK                            x       y       z     vdW  Elec       q    Type
REMARK                         _______ _______ _______ _____ _____    ______ ____
ROOT
ATOM      1  C   UNL     1       2.685   4.941  17.666  0.00  0.00    +0.000 A 
ATOM      2  C   UNL     1       3.500   4.348  16.691  0.00  0.00    +0.000 A 
ATOM      3  C   UNL     1       4.825   4.763  16.513  0.00  0.00    +0.000 A 
ATOM      4  C   UNL     1       5.333   5.794  17.304  0.00  0.00    +0.000 A 
ATOM      5  C   UNL     1       4.539   6.385  18.288  0.00  0.00    +0.000 A 
ATOM      6  C   UNL     1       3.221   5.946  18.489  0.00  0.00    +0.000 A 
ENDROOT
BRANCH   4   7
ATOM      7  S   UNL     1       7.034   6.300  17.127  0.00  0.00    +0.000 S 
ATOM      8  O   UNL     1       7.511   5.740  15.872  0.00  0.00    +0.000 OA
ATOM      9  O   UNL     1       7.068   7.740  17.322  0.00  0.00    +0.000 OA
BRANCH   7  10
ATOM     10  C   UNL     1       7.858   5.485  18.503  0.00  0.00    +0.000 C 
ATOM     11  F   UNL     1       7.062   5.388  19.606  0.00  0.00    +0.000 F 
ATOM     12  F   UNL     1       8.244   4.212  18.201  0.00  0.00    +0.000 F 
ENDBRANCH   7  10
ENDBRANCH   4   7
BRANCH   1  13
ATOM     13  N   UNL     1       1.384   4.395  17.865  0.00  0.00    +0.000 N 
ATOM     14  H   UNL     1       0.584   4.974  17.617  0.00  0.00    +0.000 HD
BRANCH  13  16
ATOM     15  O   UNL     1       0.711   4.105  20.309  0.00  0.00    +0.000 OA
ATOM     16  S   UNL     1       1.048   3.348  19.124  0.00  0.00    +0.000 S 
ATOM     17  O   UNL     1       0.126   2.370  18.578  0.00  0.00    +0.000 OA
BRANCH  16  18
ATOM     18  C   UNL     1       2.590   2.514  19.401  0.00  0.00    +0.000 A 
ATOM     19  C   UNL     1       3.321   2.776  20.565  0.00  0.00    +0.000 A 
ATOM     20  C   UNL     1       4.520   2.107  20.793  0.00  0.00    +0.000 A 
ATOM     21  C   UNL     1       4.981   1.166  19.873  0.00  0.00    +0.000 A 
ATOM     22  C   UNL     1       4.238   0.881  18.725  0.00  0.00    +0.000 A 
ATOM     23  C   UNL     1       3.035   1.557  18.488  0.00  0.00    +0.000 A 
ENDBRANCH  16  18
ENDBRANCH  13  16
ENDBRANCH   1  13
BRANCH   6  24
ATOM     24  O   UNL     1       2.551   6.643  19.467  0.00  0.00    +0.000 OA
BRANCH  24  25
ATOM     25  C   UNL     1       1.987   7.870  19.219  0.00  0.00    +0.000 A 
ATOM     26  C   UNL     1       1.975   8.534  17.994  0.00  0.00    +0.000 A 
ATOM     27  C   UNL     1       1.487   9.840  17.913  0.00  0.00    +0.000 A 
ATOM     28  C   UNL     1       0.937  10.454  19.037  0.00  0.00    +0.000 A 
ATOM     29  C   UNL     1       0.850   9.753  20.237  0.00  0.00    +0.000 A 
ATOM     30  C   UNL     1       1.373   8.463  20.324  0.00  0.00    +0.000 A 
ENDBRANCH  24  25
ENDBRANCH   6  24
TORSDOF 7
ENDMDL
MODEL 8
REMARK VINA RESULT:      -7.9      2.923      6.422
REMARK  Name = 
REMARK  7 active torsions:
REMARK  status: ('A' for Active; 'I' for Inactive)
REMARK    1  A    between atoms: S_2  and  N_4
REMARK    2  A    between atoms: S_2  and  C_24
REMARK    3  A    between atoms: N_4  and  C_5
REMARK    4  A    between atoms: C_8  and  S_9
REMARK    5  A    between atoms: S_9  and  C_12
REMARK    6  A    between atoms: C_16  and  O_17
REMARK    7  A    between atoms: O_17  and  C_18
REMARK                            x       y       z     vdW  Elec       q    Type
REMARK                         _______ _______ _______ _____ _____    ______ ____
ROOT
ATOM      1  C   UNL     1       2.683   7.676  17.859  0.00  0.00    +0.000 A 
ATOM      2  C   UNL     1       3.607   7.940  16.837  0.00  0.00    +0.000 A 
ATOM      3  C   UNL     1       4.773   7.176  16.708  0.00  0.00    +0.000 A 
ATOM      4  C   UNL     1       5.027   6.152  17.622  0.00  0.00    +0.000 A 
ATOM      5  C   UNL     1       4.111   5.868  18.636  0.00  0.00    +0.000 A 
ATOM      6  C   UNL     1       2.926   6.612  18.745  0.00  0.00    +0.000 A 
ENDROOT
BRANCH   4   7
ATOM      7  S   UNL     1       6.480   5.135  17.440  0.00  0.00    +0.000 S 
ATOM      8  O   UNL     1       7.541   6.000  16.948  0.00  0.00    +0.000 OA
ATOM      9  O   UNL     1       6.663   4.432  18.700  0.00  0.00    +0.000 OA
BRANCH   7  10
ATOM     10  C   UNL     1       6.014   3.963  16.158  0.00  0.00    +0.000 C 
ATOM     11  F   UNL     1       4.911   3.233  16.493  0.00  0.00    +0.000 F 
ATOM     12  F   UNL     1       5.720   4.573  14.974  0.00  0.00    +0.000 F 
ENDBRANCH   7  10
ENDBRANCH   4   7
BRANCH   1  13
ATOM     13  N   UNL     1       1.468   8.421  17.864  0.00  0.00    +0.000 N 
ATOM     14  H   UNL     1       0.947   8.484  16.993  0.00  0.00    +0.000 HD
BRANCH  13  16
ATOM     15  O   UNL     1       1.323   9.387  20.222  0.00  0.00    +0.000 OA
ATOM     16  S   UNL     1       1.266   9.772  18.829  0.00  0.00    +0.000 S 
ATOM     17  O   UNL     1       2.177  10.768  18.295  0.00  0.00    +0.000 OA
BRANCH  16  18
ATOM     18  C   UNL     1      -0.381  10.315  18.455  0.00  0.00    +0.000 A 
ATOM     19  C   UNL     1      -1.084   9.722  17.401  0.00  0.00    +0.000 A 
ATOM     20  C   UNL     1      -2.384  10.132  17.120  0.00  0.00    +0.000 A 
ATOM     21  C   UNL     1      -2.988  11.120  17.898  0.00  0.00    +0.000 A 
ATOM     22  C   UNL     1      -2.298  11.693  18.969  0.00  0.00    +0.000 A 
ATOM     23  C   UNL     1      -0.988  11.288  19.250  0.00  0.00    +0.000 A 
ENDBRANCH  16  18
ENDBRANCH  13  16
ENDBRANCH   1  13
BRANCH   6  24
ATOM     24  O   UNL     1       2.139   6.242  19.810  0.00  0.00    +0.000 OA
BRANCH  24  25
ATOM     25  C   UNL     1       1.880   4.923  20.090  0.00  0.00    +0.000 A 
ATOM     26  C   UNL     1       1.222   4.021  19.255  0.00  0.00    +0.000 A 
ATOM     27  C   UNL     1       0.904   2.743  19.721  0.00  0.00    +0.000 A 
ATOM     28  C   UNL     1       1.312   2.338  20.991  0.00  0.00    +0.000 A 
ATOM     29  C   UNL     1       2.063   3.201  21.786  0.00  0.00    +0.000 A 
ATOM     30  C   UNL     1       2.346   4.489  21.333  0.00  0.00    +0.000 A 
ENDBRANCH  24  25
ENDBRANCH   6  24
TORSDOF 7
ENDMDL
MODEL 9
REMARK VINA RESULT:      -7.9      3.079      5.969
REMARK  Name = 
REMARK  7 active torsions:
REMARK  status: ('A' for Active; 'I' for Inactive)
REMARK    1  A    between atoms: S_2  and  N_4
REMARK    2  A    between atoms: S_2  and  C_24
REMARK    3  A    between atoms: N_4  and  C_5
REMARK    4  A    between atoms: C_8  and  S_9
REMARK    5  A    between atoms: S_9  and  C_12
REMARK    6  A    between atoms: C_16  and  O_17
REMARK    7  A    between atoms: O_17  and  C_18
REMARK                            x       y       z     vdW  Elec       q    Type
REMARK                         _______ _______ _______ _____ _____    ______ ____
ROOT
ATOM      1  C   UNL     1       4.321   5.046  17.159  0.00  0.00    +0.000 A 
ATOM      2  C   UNL     1       4.049   3.745  16.711  0.00  0.00    +0.000 A 
ATOM      3  C   UNL     1       3.125   2.934  17.379  0.00  0.00    +0.000 A 
ATOM      4  C   UNL     1       2.481   3.422  18.517  0.00  0.00    +0.000 A 
ATOM      5  C   UNL     1       2.730   4.719  18.967  0.00  0.00    +0.000 A 
ATOM      6  C   UNL     1       3.632   5.544  18.279  0.00  0.00    +0.000 A 
ENDROOT
BRANCH   4   7
ATOM      7  S   UNL     1       1.262   2.422  19.349  0.00  0.00    +0.000 S 
ATOM      8  O   UNL     1       0.042   2.501  18.561  0.00  0.00    +0.000 OA
ATOM      9  O   UNL     1       1.871   1.123  19.587  0.00  0.00    +0.000 OA
BRANCH   7  10
ATOM     10  C   UNL     1       1.022   3.271  20.917  0.00  0.00    +0.000 C 
ATOM     11  F   UNL     1       2.156   3.300  21.675  0.00  0.00    +0.000 F 
ATOM     12  F   UNL     1       0.643   4.571  20.754  0.00  0.00    +0.000 F 
ENDBRANCH   7  10
ENDBRANCH   4   7
BRANCH   1  13
ATOM     13  N   UNL     1       5.191   5.852  16.368  0.00  0.00    +0.000 N 
ATOM     14  H   UNL     1       4.796   6.321  15.556  0.00  0.00    +0.000 HD
BRANCH  13  16
ATOM     15  O   UNL     1       7.610   6.663  16.292  0.00  0.00    +0.000 OA
ATOM     16  S   UNL     1       6.805   5.468  16.162  0.00  0.00    +0.000 S 
ATOM     17  O   UNL     1       7.040   4.316  17.014  0.00  0.00    +0.000 OA
BRANCH  16  18
ATOM     18  C   UNL     1       6.893   4.902  14.483  0.00  0.00    +0.000 A 
ATOM     19  C   UNL     1       6.026   3.895  14.045  0.00  0.00    +0.000 A 
ATOM     20  C   UNL     1       6.079   3.466  12.722  0.00  0.00    +0.000 A 
ATOM     21  C   UNL     1       6.983   4.048  11.833  0.00  0.00    +0.000 A 
ATOM     22  C   UNL     1       7.829   5.074  12.262  0.00  0.00    +0.000 A 
ATOM     23  C   UNL     1       7.783   5.504  13.593  0.00  0.00    +0.000 A 
ENDBRANCH  16  18
ENDBRANCH  13  16
ENDBRANCH   1  13
BRANCH   6  24
ATOM     24  O   UNL     1       3.802   6.780  18.857  0.00  0.00    +0.000 OA
BRANCH  24  25
ATOM     25  C   UNL     1       2.767   7.677  18.956  0.00  0.00    +0.000 A 
ATOM     26  C   UNL     1       1.983   7.904  20.086  0.00  0.00    +0.000 A 
ATOM     27  C   UNL     1       0.873   8.748  20.007  0.00  0.00    +0.000 A 
ATOM     28  C   UNL     1       0.591   9.427  18.823  0.00  0.00    +0.000 A 
ATOM     29  C   UNL     1       1.435   9.284  17.724  0.00  0.00    +0.000 A 
ATOM     30  C   UNL     1       2.520   8.412  17.794  0.00  0.00    +0.000 A 
ENDBRANCH  24  25
ENDBRANCH   6  24
TORSDOF 7
ENDMDL
