MODEL 1
REMARK VINA RESULT:      -8.3      0.000      0.000
REMARK  Name = 
REMARK  7 active torsions:
REMARK  status: ('A' for Active; 'I' for Inactive)
REMARK    1  A    between atoms: C_1  and  C_2
REMARK    2  A    between atoms: C_2  and  N_3
REMARK    3  A    between atoms: N_9  and  C_10
REMARK    4  A    between atoms: C_12  and  C_13
REMARK    5  A    between atoms: C_16  and  S_17
REMARK    6  A    between atoms: S_17  and  C_18
REMARK    7  A    between atoms: C_21  and  O_22
REMARK                            x       y       z     vdW  Elec       q    Type
REMARK                         _______ _______ _______ _____ _____    ______ ____
ROOT
ATOM      1  N   UNL     1       1.293  12.271  17.895  0.00  0.00    +0.000 N 
ATOM      2  C   UNL     1       1.371  10.960  18.358  0.00  0.00    +0.000 A 
ATOM      3  N   UNL     1       2.117  10.124  17.633  0.00  0.00    +0.000 NA
ATOM      4  C   UNL     1       2.307   8.900  18.153  0.00  0.00    +0.000 A 
ATOM      5  C   UNL     1       1.791   8.502  19.380  0.00  0.00    +0.000 A 
ATOM      6  C   UNL     1       2.005   7.282  20.023  0.00  0.00    +0.000 A 
ATOM      7  N   UNL     1       2.972   6.388  19.514  0.00  0.00    +0.000 N 
ATOM      8  N   UNL     1       1.356   6.965  21.155  0.00  0.00    +0.000 NA
ATOM      9  C   UNL     1       0.541   7.899  21.646  0.00  0.00    +0.000 A 
ATOM     10  N   UNL     1       0.333   9.111  21.131  0.00  0.00    +0.000 NA
ATOM     11  C   UNL     1       0.959   9.411  19.999  0.00  0.00    +0.000 A 
ATOM     12  N   UNL     1       0.768  10.621  19.503  0.00  0.00    +0.000 NA
ATOM     13  H   UNL     1       2.030  12.363  17.202  0.00  0.00    +0.000 HD
ATOM     14  H   UNL     1       3.913   6.757  19.630  0.00  0.00    +0.000 HD
ENDROOT
BRANCH   7  15
ATOM     15  C   UNL     1       2.947   4.976  19.607  0.00  0.00    +0.000 A 
ATOM     16  C   UNL     1       2.357   4.373  20.732  0.00  0.00    +0.000 A 
ATOM     17  C   UNL     1       2.064   3.008  20.765  0.00  0.00    +0.000 A 
ATOM     18  C   UNL     1       1.319   2.428  21.930  0.00  0.00    +0.000 C 
ATOM     19  C   UNL     1       2.395   2.222  19.659  0.00  0.00    +0.000 A 
ATOM     20  C   UNL     1       3.039   2.791  18.555  0.00  0.00    +0.000 A 
ATOM     21  C   UNL     1       3.329   4.163  18.521  0.00  0.00    +0.000 A 
BRANCH  21  22
ATOM     22  S   UNL     1       4.051   4.838  17.028  0.00  0.00    +0.000 S 
BRANCH  22  23
ATOM     23  C   UNL     1       5.513   5.741  17.535  0.00  0.00    +0.000 A 
ATOM     24  C   UNL     1       5.900   6.990  17.036  0.00  0.00    +0.000 A 
ATOM     25  C   UNL     1       7.045   7.637  17.530  0.00  0.00    +0.000 A 
ATOM     26  C   UNL     1       7.805   7.032  18.531  0.00  0.00    +0.000 A 
ATOM     27  C   UNL     1       7.438   5.797  19.037  0.00  0.00    +0.000 A 
ATOM     28  C   UNL     1       6.295   5.158  18.545  0.00  0.00    +0.000 A 
BRANCH  26  29
ATOM     29  O   UNL     1       8.914   7.628  19.048  0.00  0.00    +0.000 OA
ATOM     30  H   UNL     1       8.878   8.581  18.865  0.00  0.00    +0.000 HD
ENDBRANCH  26  29
ENDBRANCH  22  23
ENDBRANCH  21  22
ENDBRANCH   7  15
BRANCH   1  32
ATOM     31  C   UNL     1       0.265  14.293  18.789  0.00  0.00    +0.000 C 
ATOM     32  C   UNL     1       1.342  13.239  18.981  0.00  0.00    +0.000 C 
ENDBRANCH   1  32
TORSDOF 5
ENDMDL
MODEL 2
REMARK VINA RESULT:      -8.2      3.970      8.731
REMARK  Name = 
REMARK  7 active torsions:
REMARK  status: ('A' for Active; 'I' for Inactive)
REMARK    1  A    between atoms: C_1  and  C_2
REMARK    2  A    between atoms: C_2  and  N_3
REMARK    3  A    between atoms: N_9  and  C_10
REMARK    4  A    between atoms: C_12  and  C_13
REMARK    5  A    between atoms: C_16  and  S_17
REMARK    6  A    between atoms: S_17  and  C_18
REMARK    7  A    between atoms: C_21  and  O_22
REMARK                            x       y       z     vdW  Elec       q    Type
REMARK                         _______ _______ _______ _____ _____    ______ ____
ROOT
ATOM      1  N   UNL     1       3.891   4.540  17.858  0.00  0.00    +0.000 N 
ATOM      2  C   UNL     1       3.394   5.774  18.268  0.00  0.00    +0.000 A 
ATOM      3  N   UNL     1       3.507   6.774  17.393  0.00  0.00    +0.000 NA
ATOM      4  C   UNL     1       2.904   7.926  17.730  0.00  0.00    +0.000 A 
ATOM      5  C   UNL     1       2.178   8.094  18.903  0.00  0.00    +0.000 A 
ATOM      6  C   UNL     1       1.462   9.227  19.290  0.00  0.00    +0.000 A 
ATOM      7  N   UNL     1       1.269  10.277  18.366  0.00  0.00    +0.000 N 
ATOM      8  N   UNL     1       0.894   9.315  20.504  0.00  0.00    +0.000 NA
ATOM      9  C   UNL     1       1.018   8.243  21.288  0.00  0.00    +0.000 A 
ATOM     10  N   UNL     1       1.627   7.101  20.970  0.00  0.00    +0.000 NA
ATOM     11  C   UNL     1       2.205   7.027  19.777  0.00  0.00    +0.000 A 
ATOM     12  N   UNL     1       2.789   5.886  19.456  0.00  0.00    +0.000 NA
ATOM     13  H   UNL     1       4.036   4.621  16.856  0.00  0.00    +0.000 HD
ATOM     14  H   UNL     1       0.652   9.992  17.608  0.00  0.00    +0.000 HD
ENDROOT
BRANCH   7  15
ATOM     15  C   UNL     1       1.126  11.652  18.668  0.00  0.00    +0.000 A 
ATOM     16  C   UNL     1       2.167  12.538  18.337  0.00  0.00    +0.000 A 
ATOM     17  C   UNL     1       1.987  13.924  18.364  0.00  0.00    +0.000 A 
ATOM     18  C   UNL     1       3.079  14.830  17.881  0.00  0.00    +0.000 C 
ATOM     19  C   UNL     1       0.750  14.435  18.758  0.00  0.00    +0.000 A 
ATOM     20  C   UNL     1      -0.279  13.571  19.152  0.00  0.00    +0.000 A 
ATOM     21  C   UNL     1      -0.100  12.179  19.120  0.00  0.00    +0.000 A 
BRANCH  21  22
ATOM     22  S   UNL     1      -1.497  11.137  19.530  0.00  0.00    +0.000 S 
BRANCH  22  23
ATOM     23  C   UNL     1      -2.418  10.903  18.011  0.00  0.00    +0.000 A 
ATOM     24  C   UNL     1      -3.592  11.585  17.669  0.00  0.00    +0.000 A 
ATOM     25  C   UNL     1      -4.218  11.359  16.431  0.00  0.00    +0.000 A 
ATOM     26  C   UNL     1      -3.665  10.451  15.531  0.00  0.00    +0.000 A 
ATOM     27  C   UNL     1      -2.503   9.767  15.851  0.00  0.00    +0.000 A 
ATOM     28  C   UNL     1      -1.881   9.997  17.082  0.00  0.00    +0.000 A 
BRANCH  26  29
ATOM     29  O   UNL     1      -4.230  10.211  14.316  0.00  0.00    +0.000 OA
ATOM     30  H   UNL     1      -4.794   9.424  14.377  0.00  0.00    +0.000 HD
ENDBRANCH  26  29
ENDBRANCH  22  23
ENDBRANCH  21  22
ENDBRANCH   7  15
BRANCH   1  32
ATOM     31  C   UNL     1       3.693   2.111  17.941  0.00  0.00    +0.000 C 
ATOM     32  C   UNL     1       3.032   3.438  18.270  0.00  0.00    +0.000 C 
ENDBRANCH   1  32
TORSDOF 5
ENDMDL
MODEL 3
REMARK VINA RESULT:      -8.2      4.022      8.736
REMARK  Name = 
REMARK  7 active torsions:
REMARK  status: ('A' for Active; 'I' for Inactive)
REMARK    1  A    between atoms: C_1  and  C_2
REMARK    2  A    between atoms: C_2  and  N_3
REMARK    3  A    between atoms: N_9  and  C_10
REMARK    4  A    between atoms: C_12  and  C_13
REMARK    5  A    between atoms: C_16  and  S_17
REMARK    6  A    between atoms: S_17  and  C_18
REMARK    7  A    between atoms: C_21  and  O_22
REMARK                            x       y       z     vdW  Elec       q    Type
REMARK                         _______ _______ _______ _____ _____    ______ ____
ROOT
ATOM      1  N   UNL     1       3.394   4.583  18.483  0.00  0.00    +0.000 N 
ATOM      2  C   UNL     1       2.968   5.869  18.806  0.00  0.00    +0.000 A 
ATOM      3  N   UNL     1       3.053   6.778  17.833  0.00  0.00    +0.000 NA
ATOM      4  C   UNL     1       2.514   7.979  18.099  0.00  0.00    +0.000 A 
ATOM      5  C   UNL     1       1.878   8.285  19.296  0.00  0.00    +0.000 A 
ATOM      6  C   UNL     1       1.229   9.476  19.620  0.00  0.00    +0.000 A 
ATOM      7  N   UNL     1       1.006  10.442  18.615  0.00  0.00    +0.000 N 
ATOM      8  N   UNL     1       0.751   9.699  20.856  0.00  0.00    +0.000 NA
ATOM      9  C   UNL     1       0.894   8.701  21.729  0.00  0.00    +0.000 A 
ATOM     10  N   UNL     1       1.440   7.511  21.481  0.00  0.00    +0.000 NA
ATOM     11  C   UNL     1       1.931   7.303  20.265  0.00  0.00    +0.000 A 
ATOM     12  N   UNL     1       2.453   6.115  20.015  0.00  0.00    +0.000 NA
ATOM     13  H   UNL     1       3.471   4.565  17.470  0.00  0.00    +0.000 HD
ATOM     14  H   UNL     1       0.329  10.113  17.931  0.00  0.00    +0.000 HD
ENDROOT
BRANCH   7  15
ATOM     15  C   UNL     1       0.931  11.844  18.794  0.00  0.00    +0.000 A 
ATOM     16  C   UNL     1       2.055  12.634  18.496  0.00  0.00    +0.000 A 
ATOM     17  C   UNL     1       1.969  14.025  18.396  0.00  0.00    +0.000 A 
ATOM     18  C   UNL     1       3.160  14.820  17.950  0.00  0.00    +0.000 C 
ATOM     19  C   UNL     1       0.739  14.642  18.629  0.00  0.00    +0.000 A 
ATOM     20  C   UNL     1      -0.378  13.879  18.989  0.00  0.00    +0.000 A 
ATOM     21  C   UNL     1      -0.292  12.481  19.084  0.00  0.00    +0.000 A 
BRANCH  21  22
ATOM     22  S   UNL     1      -1.789  11.564  19.438  0.00  0.00    +0.000 S 
BRANCH  22  23
ATOM     23  C   UNL     1      -2.459  11.057  17.856  0.00  0.00    +0.000 A 
ATOM     24  C   UNL     1      -1.896  10.087  17.018  0.00  0.00    +0.000 A 
ATOM     25  C   UNL     1      -2.523   9.730  15.812  0.00  0.00    +0.000 A 
ATOM     26  C   UNL     1      -3.721  10.342  15.446  0.00  0.00    +0.000 A 
ATOM     27  C   UNL     1      -4.294  11.302  16.263  0.00  0.00    +0.000 A 
ATOM     28  C   UNL     1      -3.669  11.653  17.464  0.00  0.00    +0.000 A 
BRANCH  26  29
ATOM     29  O   UNL     1      -4.370  10.016  14.295  0.00  0.00    +0.000 OA
ATOM     30  H   UNL     1      -5.253   9.677  14.513  0.00  0.00    +0.000 HD
ENDBRANCH  26  29
ENDBRANCH  22  23
ENDBRANCH  21  22
ENDBRANCH   7  15
BRANCH   1  32
ATOM     31  C   UNL     1       1.316   3.348  18.168  0.00  0.00    +0.000 C 
ATOM     32  C   UNL     1       2.530   3.560  19.055  0.00  0.00    +0.000 C 
ENDBRANCH   1  32
TORSDOF 5
ENDMDL
MODEL 4
REMARK VINA RESULT:      -8.1      0.390      1.044
REMARK  Name = 
REMARK  7 active torsions:
REMARK  status: ('A' for Active; 'I' for Inactive)
REMARK    1  A    between atoms: C_1  and  C_2
REMARK    2  A    between atoms: C_2  and  N_3
REMARK    3  A    between atoms: N_9  and  C_10
REMARK    4  A    between atoms: C_12  and  C_13
REMARK    5  A    between atoms: C_16  and  S_17
REMARK    6  A    between atoms: S_17  and  C_18
REMARK    7  A    between atoms: C_21  and  O_22
REMARK                            x       y       z     vdW  Elec       q    Type
REMARK                         _______ _______ _______ _____ _____    ______ ____
ROOT
ATOM      1  N   UNL     1       1.371  12.248  17.833  0.00  0.00    +0.000 N 
ATOM      2  C   UNL     1       1.457  10.938  18.298  0.00  0.00    +0.000 A 
ATOM      3  N   UNL     1       2.120  10.081  17.520  0.00  0.00    +0.000 NA
ATOM      4  C   UNL     1       2.325   8.856  18.032  0.00  0.00    +0.000 A 
ATOM      5  C   UNL     1       1.904   8.477  19.301  0.00  0.00    +0.000 A 
ATOM      6  C   UNL     1       2.143   7.257  19.933  0.00  0.00    +0.000 A 
ATOM      7  N   UNL     1       3.042   6.337  19.352  0.00  0.00    +0.000 N 
ATOM      8  N   UNL     1       1.584   6.962  21.118  0.00  0.00    +0.000 NA
ATOM      9  C   UNL     1       0.834   7.918  21.668  0.00  0.00    +0.000 A 
ATOM     10  N   UNL     1       0.612   9.131  21.162  0.00  0.00    +0.000 NA
ATOM     11  C   UNL     1       1.148   9.410  19.980  0.00  0.00    +0.000 A 
ATOM     12  N   UNL     1       0.944  10.621  19.491  0.00  0.00    +0.000 NA
ATOM     13  H   UNL     1       2.049  12.318  17.080  0.00  0.00    +0.000 HD
ATOM     14  H   UNL     1       3.998   6.684  19.387  0.00  0.00    +0.000 HD
ENDROOT
BRANCH   7  15
ATOM     15  C   UNL     1       2.993   4.927  19.458  0.00  0.00    +0.000 A 
ATOM     16  C   UNL     1       2.293   4.344  20.530  0.00  0.00    +0.000 A 
ATOM     17  C   UNL     1       1.982   2.981  20.549  0.00  0.00    +0.000 A 
ATOM     18  C   UNL     1       1.124   2.424  21.646  0.00  0.00    +0.000 C 
ATOM     19  C   UNL     1       2.407   2.179  19.489  0.00  0.00    +0.000 A 
ATOM     20  C   UNL     1       3.159   2.728  18.444  0.00  0.00    +0.000 A 
ATOM     21  C   UNL     1       3.466   4.096  18.423  0.00  0.00    +0.000 A 
BRANCH  21  22
ATOM     22  S   UNL     1       4.334   4.746  16.997  0.00  0.00    +0.000 S 
BRANCH  22  23
ATOM     23  C   UNL     1       5.727   5.678  17.632  0.00  0.00    +0.000 A 
ATOM     24  C   UNL     1       6.628   5.218  18.599  0.00  0.00    +0.000 A 
ATOM     25  C   UNL     1       7.714   6.013  19.002  0.00  0.00    +0.000 A 
ATOM     26  C   UNL     1       7.903   7.270  18.430  0.00  0.00    +0.000 A 
ATOM     27  C   UNL     1       7.023   7.741  17.470  0.00  0.00    +0.000 A 
ATOM     28  C   UNL     1       5.944   6.946  17.070  0.00  0.00    +0.000 A 
BRANCH  26  29
ATOM     29  O   UNL     1       8.950   8.067  18.779  0.00  0.00    +0.000 OA
ATOM     30  H   UNL     1       9.731   7.810  18.263  0.00  0.00    +0.000 HD
ENDBRANCH  26  29
ENDBRANCH  22  23
ENDBRANCH  21  22
ENDBRANCH   7  15
BRANCH   1  32
ATOM     31  C   UNL     1       2.885  13.904  18.787  0.00  0.00    +0.000 C 
ATOM     32  C   UNL     1       1.533  13.222  18.903  0.00  0.00    +0.000 C 
ENDBRANCH   1  32
TORSDOF 5
ENDMDL
MODEL 5
REMARK VINA RESULT:      -8.1      1.782      2.157
REMARK  Name = 
REMARK  7 active torsions:
REMARK  status: ('A' for Active; 'I' for Inactive)
REMARK    1  A    between atoms: C_1  and  C_2
REMARK    2  A    between atoms: C_2  and  N_3
REMARK    3  A    between atoms: N_9  and  C_10
REMARK    4  A    between atoms: C_12  and  C_13
REMARK    5  A    between atoms: C_16  and  S_17
REMARK    6  A    between atoms: S_17  and  C_18
REMARK    7  A    between atoms: C_21  and  O_22
REMARK                            x       y       z     vdW  Elec       q    Type
REMARK                         _______ _______ _______ _____ _____    ______ ____
ROOT
ATOM      1  N   UNL     1       0.937  12.361  17.980  0.00  0.00    +0.000 N 
ATOM      2  C   UNL     1       1.087  11.047  18.417  0.00  0.00    +0.000 A 
ATOM      3  N   UNL     1       1.752  10.228  17.601  0.00  0.00    +0.000 NA
ATOM      4  C   UNL     1       2.019   9.003  18.082  0.00  0.00    +0.000 A 
ATOM      5  C   UNL     1       1.658   8.587  19.358  0.00  0.00    +0.000 A 
ATOM      6  C   UNL     1       1.963   7.366  19.959  0.00  0.00    +0.000 A 
ATOM      7  N   UNL     1       2.874   6.489  19.329  0.00  0.00    +0.000 N 
ATOM      8  N   UNL     1       1.458   7.030  21.157  0.00  0.00    +0.000 NA
ATOM      9  C   UNL     1       0.695   7.949  21.750  0.00  0.00    +0.000 A 
ATOM     10  N   UNL     1       0.411   9.161  21.276  0.00  0.00    +0.000 NA
ATOM     11  C   UNL     1       0.894   9.480  20.081  0.00  0.00    +0.000 A 
ATOM     12  N   UNL     1       0.629  10.691  19.623  0.00  0.00    +0.000 NA
ATOM     13  H   UNL     1       1.585  12.469  17.206  0.00  0.00    +0.000 HD
ATOM     14  H   UNL     1       3.817   6.870  19.337  0.00  0.00    +0.000 HD
ENDROOT
BRANCH   7  15
ATOM     15  C   UNL     1       2.878   5.076  19.411  0.00  0.00    +0.000 A 
ATOM     16  C   UNL     1       1.654   4.385  19.413  0.00  0.00    +0.000 A 
ATOM     17  C   UNL     1       1.591   3.002  19.226  0.00  0.00    +0.000 A 
ATOM     18  C   UNL     1       0.260   2.321  19.107  0.00  0.00    +0.000 C 
ATOM     19  C   UNL     1       2.780   2.290  19.062  0.00  0.00    +0.000 A 
ATOM     20  C   UNL     1       4.013   2.950  19.119  0.00  0.00    +0.000 A 
ATOM     21  C   UNL     1       4.075   4.340  19.302  0.00  0.00    +0.000 A 
BRANCH  21  22
ATOM     22  S   UNL     1       5.683   5.128  19.251  0.00  0.00    +0.000 S 
BRANCH  22  23
ATOM     23  C   UNL     1       6.182   5.151  17.531  0.00  0.00    +0.000 A 
ATOM     24  C   UNL     1       7.427   4.727  17.049  0.00  0.00    +0.000 A 
ATOM     25  C   UNL     1       7.707   4.746  15.673  0.00  0.00    +0.000 A 
ATOM     26  C   UNL     1       6.737   5.186  14.774  0.00  0.00    +0.000 A 
ATOM     27  C   UNL     1       5.500   5.607  15.231  0.00  0.00    +0.000 A 
ATOM     28  C   UNL     1       5.223   5.585  16.601  0.00  0.00    +0.000 A 
BRANCH  26  29
ATOM     29  O   UNL     1       6.961   5.208  13.431  0.00  0.00    +0.000 OA
ATOM     30  H   UNL     1       6.152   5.497  12.979  0.00  0.00    +0.000 HD
ENDBRANCH  26  29
ENDBRANCH  22  23
ENDBRANCH  21  22
ENDBRANCH   7  15
BRANCH   1  32
ATOM     31  C   UNL     1       2.554  13.759  19.153  0.00  0.00    +0.000 C 
ATOM     32  C   UNL     1       1.103  13.321  19.062  0.00  0.00    +0.000 C 
ENDBRANCH   1  32
TORSDOF 5
ENDMDL
MODEL 6
REMARK VINA RESULT:      -8.1      1.736      1.942
REMARK  Name = 
REMARK  7 active torsions:
REMARK  status: ('A' for Active; 'I' for Inactive)
REMARK    1  A    between atoms: C_1  and  C_2
REMARK    2  A    between atoms: C_2  and  N_3
REMARK    3  A    between atoms: N_9  and  C_10
REMARK    4  A    between atoms: C_12  and  C_13
REMARK    5  A    between atoms: C_16  and  S_17
REMARK    6  A    between atoms: S_17  and  C_18
REMARK    7  A    between atoms: C_21  and  O_22
REMARK                            x       y       z     vdW  Elec       q    Type
REMARK                         _______ _______ _______ _____ _____    ______ ____
ROOT
ATOM      1  N   UNL     1       1.188  12.527  17.920  0.00  0.00    +0.000 N 
ATOM      2  C   UNL     1       1.271  11.220  18.394  0.00  0.00    +0.000 A 
ATOM      3  N   UNL     1       2.060  10.394  17.705  0.00  0.00    +0.000 NA
ATOM      4  C   UNL     1       2.251   9.177  18.239  0.00  0.00    +0.000 A 
ATOM      5  C   UNL     1       1.694   8.776  19.448  0.00  0.00    +0.000 A 
ATOM      6  C   UNL     1       1.904   7.564  20.107  0.00  0.00    +0.000 A 
ATOM      7  N   UNL     1       2.905   6.684  19.642  0.00  0.00    +0.000 N 
ATOM      8  N   UNL     1       1.216   7.242  21.215  0.00  0.00    +0.000 NA
ATOM      9  C   UNL     1       0.366   8.164  21.666  0.00  0.00    +0.000 A 
ATOM     10  N   UNL     1       0.157   9.369  21.136  0.00  0.00    +0.000 NA
ATOM     11  C   UNL     1       0.822   9.674  20.028  0.00  0.00    +0.000 A 
ATOM     12  N   UNL     1       0.629  10.877  19.516  0.00  0.00    +0.000 NA
ATOM     13  H   UNL     1       1.950  12.628  17.257  0.00  0.00    +0.000 HD
ATOM     14  H   UNL     1       3.834   7.071  19.793  0.00  0.00    +0.000 HD
ENDROOT
BRANCH   7  15
ATOM     15  C   UNL     1       2.902   5.273  19.743  0.00  0.00    +0.000 A 
ATOM     16  C   UNL     1       1.677   4.599  19.888  0.00  0.00    +0.000 A 
ATOM     17  C   UNL     1       1.577   3.214  19.729  0.00  0.00    +0.000 A 
ATOM     18  C   UNL     1       0.233   2.550  19.765  0.00  0.00    +0.000 C 
ATOM     19  C   UNL     1       2.733   2.484  19.448  0.00  0.00    +0.000 A 
ATOM     20  C   UNL     1       3.973   3.128  19.361  0.00  0.00    +0.000 A 
ATOM     21  C   UNL     1       4.071   4.519  19.516  0.00  0.00    +0.000 A 
BRANCH  21  22
ATOM     22  S   UNL     1       5.673   5.285  19.280  0.00  0.00    +0.000 S 
BRANCH  22  23
ATOM     23  C   UNL     1       5.995   5.252  17.518  0.00  0.00    +0.000 A 
ATOM     24  C   UNL     1       5.146   5.774  16.535  0.00  0.00    +0.000 A 
ATOM     25  C   UNL     1       5.510   5.736  15.178  0.00  0.00    +0.000 A 
ATOM     26  C   UNL     1       6.731   5.178  14.804  0.00  0.00    +0.000 A 
ATOM     27  C   UNL     1       7.585   4.658  15.762  0.00  0.00    +0.000 A 
ATOM     28  C   UNL     1       7.221   4.700  17.111  0.00  0.00    +0.000 A 
BRANCH  26  29
ATOM     29  O   UNL     1       7.131   5.133  13.503  0.00  0.00    +0.000 OA
ATOM     30  H   UNL     1       6.916   5.977  13.076  0.00  0.00    +0.000 HD
ENDBRANCH  26  29
ENDBRANCH  22  23
ENDBRANCH  21  22
ENDBRANCH   7  15
BRANCH   1  32
ATOM     31  C   UNL     1      -0.014  14.433  18.850  0.00  0.00    +0.000 C 
ATOM     32  C   UNL     1       1.177  13.502  19.001  0.00  0.00    +0.000 C 
ENDBRANCH   1  32
TORSDOF 5
ENDMDL
MODEL 7
REMARK VINA RESULT:      -7.9      2.507      5.110
REMARK  Name = 
REMARK  7 active torsions:
REMARK  status: ('A' for Active; 'I' for Inactive)
REMARK    1  A    between atoms: C_1  and  C_2
REMARK    2  A    between atoms: C_2  and  N_3
REMARK    3  A    between atoms: N_9  and  C_10
REMARK    4  A    between atoms: C_12  and  C_13
REMARK    5  A    between atoms: C_16  and  S_17
REMARK    6  A    between atoms: S_17  and  C_18
REMARK    7  A    between atoms: C_21  and  O_22
REMARK                            x       y       z     vdW  Elec       q    Type
REMARK                         _______ _______ _______ _____ _____    ______ ____
ROOT
ATOM      1  N   UNL     1      -0.180   9.823  23.016  0.00  0.00    +0.000 N 
ATOM      2  C   UNL     1       0.593   9.410  21.934  0.00  0.00    +0.000 A 
ATOM      3  N   UNL     1       1.217   8.239  22.071  0.00  0.00    +0.000 NA
ATOM      4  C   UNL     1       1.846   7.774  20.980  0.00  0.00    +0.000 A 
ATOM      5  C   UNL     1       1.849   8.436  19.758  0.00  0.00    +0.000 A 
ATOM      6  C   UNL     1       2.411   7.987  18.562  0.00  0.00    +0.000 A 
ATOM      7  N   UNL     1       2.884   6.660  18.472  0.00  0.00    +0.000 N 
ATOM      8  N   UNL     1       2.453   8.770  17.472  0.00  0.00    +0.000 NA
ATOM      9  C   UNL     1       1.888   9.972  17.590  0.00  0.00    +0.000 A 
ATOM     10  N   UNL     1       1.275  10.450  18.672  0.00  0.00    +0.000 NA
ATOM     11  C   UNL     1       1.254   9.681  19.755  0.00  0.00    +0.000 A 
ATOM     12  N   UNL     1       0.627  10.148  20.819  0.00  0.00    +0.000 NA
ATOM     13  H   UNL     1      -0.283   9.005  23.609  0.00  0.00    +0.000 HD
ATOM     14  H   UNL     1       2.117   5.992  18.508  0.00  0.00    +0.000 HD
ENDROOT
BRANCH   7  15
ATOM     15  C   UNL     1       3.945   6.196  17.658  0.00  0.00    +0.000 A 
ATOM     16  C   UNL     1       5.147   6.924  17.618  0.00  0.00    +0.000 A 
ATOM     17  C   UNL     1       6.310   6.391  17.055  0.00  0.00    +0.000 A 
ATOM     18  C   UNL     1       7.602   7.146  17.147  0.00  0.00    +0.000 C 
ATOM     19  C   UNL     1       6.261   5.114  16.493  0.00  0.00    +0.000 A 
ATOM     20  C   UNL     1       5.059   4.398  16.466  0.00  0.00    +0.000 A 
ATOM     21  C   UNL     1       3.893   4.932  17.036  0.00  0.00    +0.000 A 
BRANCH  21  22
ATOM     22  S   UNL     1       2.422   3.911  17.065  0.00  0.00    +0.000 S 
BRANCH  22  23
ATOM     23  C   UNL     1       2.213   3.368  18.759  0.00  0.00    +0.000 A 
ATOM     24  C   UNL     1       3.240   2.895  19.584  0.00  0.00    +0.000 A 
ATOM     25  C   UNL     1       2.980   2.531  20.916  0.00  0.00    +0.000 A 
ATOM     26  C   UNL     1       1.689   2.645  21.426  0.00  0.00    +0.000 A 
ATOM     27  C   UNL     1       0.659   3.113  20.626  0.00  0.00    +0.000 A 
ATOM     28  C   UNL     1       0.922   3.477  19.301  0.00  0.00    +0.000 A 
BRANCH  26  29
ATOM     29  O   UNL     1       1.394   2.318  22.714  0.00  0.00    +0.000 OA
ATOM     30  H   UNL     1       1.730   3.012  23.303  0.00  0.00    +0.000 HD
ENDBRANCH  26  29
ENDBRANCH  22  23
ENDBRANCH  21  22
ENDBRANCH   7  15
BRANCH   1  32
ATOM     31  C   UNL     1      -1.458  11.899  23.013  0.00  0.00    +0.000 C 
ATOM     32  C   UNL     1      -1.429  10.440  22.593  0.00  0.00    +0.000 C 
ENDBRANCH   1  32
TORSDOF 5
ENDMDL
MODEL 8
REMARK VINA RESULT:      -7.9      2.141      2.490
REMARK  Name = 
REMARK  7 active torsions:
REMARK  status: ('A' for Active; 'I' for Inactive)
REMARK    1  A    between atoms: C_1  and  C_2
REMARK    2  A    between atoms: C_2  and  N_3
REMARK    3  A    between atoms: N_9  and  C_10
REMARK    4  A    between atoms: C_12  and  C_13
REMARK    5  A    between atoms: C_16  and  S_17
REMARK    6  A    between atoms: S_17  and  C_18
REMARK    7  A    between atoms: C_21  and  O_22
REMARK                            x       y       z     vdW  Elec       q    Type
REMARK                         _______ _______ _______ _____ _____    ______ ____
ROOT
ATOM      1  N   UNL     1      -0.934  12.369  18.029  0.00  0.00    +0.000 N 
ATOM      2  C   UNL     1      -0.365  11.226  18.583  0.00  0.00    +0.000 A 
ATOM      3  N   UNL     1       0.129  10.338  17.718  0.00  0.00    +0.000 NA
ATOM      4  C   UNL     1       0.802   9.305  18.251  0.00  0.00    +0.000 A 
ATOM      5  C   UNL     1       1.010   9.151  19.617  0.00  0.00    +0.000 A 
ATOM      6  C   UNL     1       1.759   8.155  20.244  0.00  0.00    +0.000 A 
ATOM      7  N   UNL     1       2.555   7.288  19.463  0.00  0.00    +0.000 N 
ATOM      8  N   UNL     1       1.790   8.040  21.582  0.00  0.00    +0.000 NA
ATOM      9  C   UNL     1       1.107   8.959  22.265  0.00  0.00    +0.000 A 
ATOM     10  N   UNL     1       0.424   9.979  21.746  0.00  0.00    +0.000 NA
ATOM     11  C   UNL     1       0.377  10.075  20.423  0.00  0.00    +0.000 A 
ATOM     12  N   UNL     1      -0.284  11.099  19.912  0.00  0.00    +0.000 NA
ATOM     13  H   UNL     1      -0.638  12.382  17.058  0.00  0.00    +0.000 HD
ATOM     14  H   UNL     1       3.336   7.785  19.042  0.00  0.00    +0.000 HD
ENDROOT
BRANCH   7  15
ATOM     15  C   UNL     1       2.888   5.947  19.766  0.00  0.00    +0.000 A 
ATOM     16  C   UNL     1       1.920   5.115  20.355  0.00  0.00    +0.000 A 
ATOM     17  C   UNL     1       2.091   3.731  20.435  0.00  0.00    +0.000 A 
ATOM     18  C   UNL     1       0.980   2.867  20.954  0.00  0.00    +0.000 C 
ATOM     19  C   UNL     1       3.270   3.169  19.943  0.00  0.00    +0.000 A 
ATOM     20  C   UNL     1       4.274   3.986  19.410  0.00  0.00    +0.000 A 
ATOM     21  C   UNL     1       4.099   5.375  19.325  0.00  0.00    +0.000 A 
BRANCH  21  22
ATOM     22  S   UNL     1       5.379   6.341  18.527  0.00  0.00    +0.000 S 
BRANCH  22  23
ATOM     23  C   UNL     1       5.761   5.506  16.989  0.00  0.00    +0.000 A 
ATOM     24  C   UNL     1       7.024   5.471  16.386  0.00  0.00    +0.000 A 
ATOM     25  C   UNL     1       7.230   4.751  15.197  0.00  0.00    +0.000 A 
ATOM     26  C   UNL     1       6.171   4.060  14.612  0.00  0.00    +0.000 A 
ATOM     27  C   UNL     1       4.915   4.081  15.195  0.00  0.00    +0.000 A 
ATOM     28  C   UNL     1       4.713   4.796  16.380  0.00  0.00    +0.000 A 
BRANCH  26  29
ATOM     29  O   UNL     1       6.329   3.338  13.468  0.00  0.00    +0.000 OA
ATOM     30  H   UNL     1       5.715   2.587  13.479  0.00  0.00    +0.000 HD
ENDBRANCH  26  29
ENDBRANCH  22  23
ENDBRANCH  21  22
ENDBRANCH   7  15
BRANCH   1  32
ATOM     31  C   UNL     1       0.826  13.985  18.515  0.00  0.00    +0.000 C 
ATOM     32  C   UNL     1      -0.608  13.567  18.790  0.00  0.00    +0.000 C 
ENDBRANCH   1  32
TORSDOF 5
ENDMDL
MODEL 9
REMARK VINA RESULT:      -7.8      4.367      9.399
REMARK  Name = 
REMARK  7 active torsions:
REMARK  status: ('A' for Active; 'I' for Inactive)
REMARK    1  A    between atoms: C_1  and  C_2
REMARK    2  A    between atoms: C_2  and  N_3
REMARK    3  A    between atoms: N_9  and  C_10
REMARK    4  A    between atoms: C_12  and  C_13
REMARK    5  A    between atoms: C_16  and  S_17
REMARK    6  A    between atoms: S_17  and  C_18
REMARK    7  A    between atoms: C_21  and  O_22
REMARK                            x       y       z     vdW  Elec       q    Type
REMARK                         _______ _______ _______ _____ _____    ______ ____
ROOT
ATOM      1  N   UNL     1       3.209   5.455  17.786  0.00  0.00    +0.000 N 
ATOM      2  C   UNL     1       2.768   6.684  18.270  0.00  0.00    +0.000 A 
ATOM      3  N   UNL     1       2.775   7.696  17.401  0.00  0.00    +0.000 NA
ATOM      4  C   UNL     1       2.220   8.842  17.824  0.00  0.00    +0.000 A 
ATOM      5  C   UNL     1       1.643   8.995  19.079  0.00  0.00    +0.000 A 
ATOM      6  C   UNL     1       0.981  10.122  19.566  0.00  0.00    +0.000 A 
ATOM      7  N   UNL     1       0.678  11.185  18.687  0.00  0.00    +0.000 N 
ATOM      8  N   UNL     1       0.566  10.194  20.842  0.00  0.00    +0.000 NA
ATOM      9  C   UNL     1       0.782   9.112  21.591  0.00  0.00    +0.000 A 
ATOM     10  N   UNL     1       1.346   7.975  21.185  0.00  0.00    +0.000 NA
ATOM     11  C   UNL     1       1.774   7.916  19.930  0.00  0.00    +0.000 A 
ATOM     12  N   UNL     1       2.313   6.780  19.524  0.00  0.00    +0.000 NA
ATOM     13  H   UNL     1       3.231   5.550  16.775  0.00  0.00    +0.000 HD
ATOM     14  H   UNL     1      -0.027  10.910  18.006  0.00  0.00    +0.000 HD
ENDROOT
BRANCH   7  15
ATOM     15  C   UNL     1       0.576  12.555  19.023  0.00  0.00    +0.000 A 
ATOM     16  C   UNL     1       1.721  13.368  18.945  0.00  0.00    +0.000 A 
ATOM     17  C   UNL     1       1.638  14.761  19.004  0.00  0.00    +0.000 A 
ATOM     18  C   UNL     1       2.866  15.595  18.788  0.00  0.00    +0.000 C 
ATOM     19  C   UNL     1       0.386  15.355  19.174  0.00  0.00    +0.000 A 
ATOM     20  C   UNL     1      -0.759  14.562  19.316  0.00  0.00    +0.000 A 
ATOM     21  C   UNL     1      -0.675  13.163  19.252  0.00  0.00    +0.000 A 
BRANCH  21  22
ATOM     22  S   UNL     1      -2.196  12.221  19.329  0.00  0.00    +0.000 S 
BRANCH  22  23
ATOM     23  C   UNL     1      -2.888  12.506  20.957  0.00  0.00    +0.000 A 
ATOM     24  C   UNL     1      -4.199  12.925  21.212  0.00  0.00    +0.000 A 
ATOM     25  C   UNL     1      -4.659  13.081  22.531  0.00  0.00    +0.000 A 
ATOM     26  C   UNL     1      -3.805  12.811  23.599  0.00  0.00    +0.000 A 
ATOM     27  C   UNL     1      -2.505  12.394  23.367  0.00  0.00    +0.000 A 
ATOM     28  C   UNL     1      -2.051  12.237  22.053  0.00  0.00    +0.000 A 
BRANCH  26  29
ATOM     29  O   UNL     1      -4.212  12.934  24.892  0.00  0.00    +0.000 OA
ATOM     30  H   UNL     1      -3.432  12.978  25.468  0.00  0.00    +0.000 HD
ENDBRANCH  26  29
ENDBRANCH  22  23
ENDBRANCH  21  22
ENDBRANCH   7  15
BRANCH   1  32
ATOM     31  C   UNL     1       2.664   3.102  17.456  0.00  0.00    +0.000 C 
ATOM     32  C   UNL     1       2.406   4.348  18.285  0.00  0.00    +0.000 C 
ENDBRANCH   1  32
TORSDOF 5
ENDMDL
