MODEL 1
REMARK VINA RESULT:      -6.7      0.000      0.000
REMARK  Name = 
REMARK  6 active torsions:
REMARK  status: ('A' for Active; 'I' for Inactive)
REMARK    1  A    between atoms: C_2  and  C_3
REMARK    2  A    between atoms: C_3  and  C_4
REMARK    3  A    between atoms: C_5  and  C_6
REMARK    4  A    between atoms: C_19  and  N_20
REMARK    5  A    between atoms: C_24  and  O_25
REMARK    6  A    between atoms: O_25  and  C_26
REMARK                            x       y       z     vdW  Elec       q    Type
REMARK                         _______ _______ _______ _____ _____    ______ ____
ROOT
ATOM      1  C   UNL     1      -2.660  10.675  17.814  0.00  0.00    +0.000 A 
ATOM      2  C   UNL     1      -3.418  11.519  18.642  0.00  0.00    +0.000 A 
ATOM      3  N   UNL     1      -2.544  12.038  19.646  0.00  0.00    +0.000 N 
ATOM      4  C   UNL     1      -2.896  13.038  20.613  0.00  0.00    +0.000 C 
ATOM      5  N   UNL     1      -3.857  13.885  20.372  0.00  0.00    +0.000 NA
ATOM      6  N   UNL     1      -4.156  14.799  21.345  0.00  0.00    +0.000 N 
ATOM      7  C   UNL     1      -3.576  14.889  22.572  0.00  0.00    +0.000 C 
ATOM      8  S   UNL     1      -4.024  16.049  23.674  0.00  0.00    +0.000 S 
ATOM      9  N   UNL     1      -2.632  13.970  22.887  0.00  0.00    +0.000 N 
ATOM     10  C   UNL     1      -2.077  13.101  21.903  0.00  0.00    +0.000 C 
ATOM     11  C   UNL     1      -1.279  11.442  19.465  0.00  0.00    +0.000 A 
ATOM     12  C   UNL     1      -0.055  11.543  20.161  0.00  0.00    +0.000 A 
ATOM     13  C   UNL     1       1.093  10.881  19.714  0.00  0.00    +0.000 A 
ATOM     14  C   UNL     1       1.063  10.105  18.573  0.00  0.00    +0.000 A 
ATOM     15  C   UNL     1      -0.147   9.985  17.877  0.00  0.00    +0.000 A 
ATOM     16  C   UNL     1      -1.320  10.648  18.318  0.00  0.00    +0.000 A 
ATOM     17  H   UNL     1      -4.921  15.436  21.123  0.00  0.00    +0.000 HD
ATOM     18  H   UNL     1      -2.119  14.148  23.736  0.00  0.00    +0.000 HD
ENDROOT
BRANCH   2  19
ATOM     19  C   UNL     1      -4.880  11.809  18.528  0.00  0.00    +0.000 A 
ATOM     20  C   UNL     1      -5.814  11.337  19.463  0.00  0.00    +0.000 A 
ATOM     21  C   UNL     1      -7.170  11.685  19.380  0.00  0.00    +0.000 A 
ATOM     22  C   UNL     1      -7.640  12.430  18.303  0.00  0.00    +0.000 A 
ATOM     23  C   UNL     1      -6.748  12.844  17.324  0.00  0.00    +0.000 A 
ATOM     24  C   UNL     1      -5.383  12.563  17.457  0.00  0.00    +0.000 A 
ENDBRANCH   2  19
BRANCH  10  25
ATOM     25  N   UNL     1      -2.090  11.838  22.613  0.00  0.00    +0.000 NA
ATOM     26  H   UNL     1      -3.070  11.579  22.732  0.00  0.00    +0.000 HD
ATOM     27  H   UNL     1      -1.738  11.983  23.556  0.00  0.00    +0.000 HD
ENDBRANCH  10  25
BRANCH  14  28
ATOM     28  O   UNL     1       2.130   9.428  18.045  0.00  0.00    +0.000 OA
ATOM     29  C   UNL     1       2.198   8.037  18.341  0.00  0.00    +0.000 C 
ENDBRANCH  14  28
BRANCH   1  30
ATOM     30  C   UNL     1      -3.107   9.850  16.630  0.00  0.00    +0.000 C 
BRANCH  30  32
ATOM     31  C   UNL     1      -3.077  10.065  14.121  0.00  0.00    +0.000 C 
ATOM     32  C   UNL     1      -3.109  10.631  15.340  0.00  0.00    +0.000 C 
ENDBRANCH  30  32
ENDBRANCH   1  30
TORSDOF 5
ENDMDL
MODEL 2
REMARK VINA RESULT:      -6.6      3.702      7.263
REMARK  Name = 
REMARK  6 active torsions:
REMARK  status: ('A' for Active; 'I' for Inactive)
REMARK    1  A    between atoms: C_2  and  C_3
REMARK    2  A    between atoms: C_3  and  C_4
REMARK    3  A    between atoms: C_5  and  C_6
REMARK    4  A    between atoms: C_19  and  N_20
REMARK    5  A    between atoms: C_24  and  O_25
REMARK    6  A    between atoms: O_25  and  C_26
REMARK                            x       y       z     vdW  Elec       q    Type
REMARK                         _______ _______ _______ _____ _____    ______ ____
ROOT
ATOM      1  C   UNL     1      -2.292  12.655  21.093  0.00  0.00    +0.000 A 
ATOM      2  C   UNL     1      -2.012  12.011  19.877  0.00  0.00    +0.000 A 
ATOM      3  N   UNL     1      -3.213  12.006  19.103  0.00  0.00    +0.000 N 
ATOM      4  C   UNL     1      -3.321  11.556  17.745  0.00  0.00    +0.000 C 
ATOM      5  N   UNL     1      -2.280  11.560  16.960  0.00  0.00    +0.000 NA
ATOM      6  N   UNL     1      -2.446  11.097  15.683  0.00  0.00    +0.000 N 
ATOM      7  C   UNL     1      -3.590  10.585  15.153  0.00  0.00    +0.000 C 
ATOM      8  S   UNL     1      -3.671  10.056  13.581  0.00  0.00    +0.000 S 
ATOM      9  N   UNL     1      -4.668  10.488  15.969  0.00  0.00    +0.000 N 
ATOM     10  C   UNL     1      -4.699  11.121  17.246  0.00  0.00    +0.000 C 
ATOM     11  C   UNL     1      -4.234  12.579  19.889  0.00  0.00    +0.000 A 
ATOM     12  C   UNL     1      -5.610  12.808  19.669  0.00  0.00    +0.000 A 
ATOM     13  C   UNL     1      -6.396  13.476  20.613  0.00  0.00    +0.000 A 
ATOM     14  C   UNL     1      -5.847  13.935  21.793  0.00  0.00    +0.000 A 
ATOM     15  C   UNL     1      -4.485  13.707  22.032  0.00  0.00    +0.000 A 
ATOM     16  C   UNL     1      -3.675  13.029  21.087  0.00  0.00    +0.000 A 
ATOM     17  H   UNL     1      -1.606  11.106  15.105  0.00  0.00    +0.000 HD
ATOM     18  H   UNL     1      -5.535  10.247  15.515  0.00  0.00    +0.000 HD
ENDROOT
BRANCH   2  19
ATOM     19  C   UNL     1      -0.710  11.406  19.463  0.00  0.00    +0.000 A 
ATOM     20  C   UNL     1      -0.472  10.024  19.517  0.00  0.00    +0.000 A 
ATOM     21  C   UNL     1       0.729   9.470  19.052  0.00  0.00    +0.000 A 
ATOM     22  C   UNL     1       1.761  10.296  18.615  0.00  0.00    +0.000 A 
ATOM     23  C   UNL     1       1.580  11.671  18.624  0.00  0.00    +0.000 A 
ATOM     24  C   UNL     1       0.348  12.212  19.013  0.00  0.00    +0.000 A 
ENDBRANCH   2  19
BRANCH  10  25
ATOM     25  N   UNL     1      -5.260  10.063  18.062  0.00  0.00    +0.000 NA
ATOM     26  H   UNL     1      -4.485   9.453  18.324  0.00  0.00    +0.000 HD
ATOM     27  H   UNL     1      -5.867   9.485  17.487  0.00  0.00    +0.000 HD
ENDBRANCH  10  25
BRANCH  14  28
ATOM     28  O   UNL     1      -6.524  14.611  22.774  0.00  0.00    +0.000 OA
ATOM     29  C   UNL     1      -7.121  13.809  23.789  0.00  0.00    +0.000 C 
ENDBRANCH  14  28
BRANCH   1  30
ATOM     30  C   UNL     1      -1.384  12.893  22.277  0.00  0.00    +0.000 C 
BRANCH  30  32
ATOM     31  C   UNL     1      -0.814  10.593  23.132  0.00  0.00    +0.000 C 
ATOM     32  C   UNL     1      -1.438  11.774  23.288  0.00  0.00    +0.000 C 
ENDBRANCH  30  32
ENDBRANCH   1  30
TORSDOF 5
ENDMDL
MODEL 3
REMARK VINA RESULT:      -6.5      2.427      4.092
REMARK  Name = 
REMARK  6 active torsions:
REMARK  status: ('A' for Active; 'I' for Inactive)
REMARK    1  A    between atoms: C_2  and  C_3
REMARK    2  A    between atoms: C_3  and  C_4
REMARK    3  A    between atoms: C_5  and  C_6
REMARK    4  A    between atoms: C_19  and  N_20
REMARK    5  A    between atoms: C_24  and  O_25
REMARK    6  A    between atoms: O_25  and  C_26
REMARK                            x       y       z     vdW  Elec       q    Type
REMARK                         _______ _______ _______ _____ _____    ______ ____
ROOT
ATOM      1  C   UNL     1      -5.354  12.340  19.781  0.00  0.00    +0.000 A 
ATOM      2  C   UNL     1      -5.078  12.985  20.998  0.00  0.00    +0.000 A 
ATOM      3  N   UNL     1      -3.662  13.162  21.082  0.00  0.00    +0.000 N 
ATOM      4  C   UNL     1      -2.979  13.892  22.110  0.00  0.00    +0.000 C 
ATOM      5  N   UNL     1      -3.590  14.835  22.772  0.00  0.00    +0.000 NA
ATOM      6  N   UNL     1      -2.888  15.478  23.755  0.00  0.00    +0.000 N 
ATOM      7  C   UNL     1      -1.615  15.203  24.148  0.00  0.00    +0.000 C 
ATOM      8  S   UNL     1      -0.863  16.059  25.357  0.00  0.00    +0.000 S 
ATOM      9  N   UNL     1      -0.981  14.172  23.538  0.00  0.00    +0.000 N 
ATOM     10  C   UNL     1      -1.508  13.559  22.365  0.00  0.00    +0.000 C 
ATOM     11  C   UNL     1      -3.084  12.552  19.950  0.00  0.00    +0.000 A 
ATOM     12  C   UNL     1      -1.751  12.384  19.517  0.00  0.00    +0.000 A 
ATOM     13  C   UNL     1      -1.454  11.788  18.287  0.00  0.00    +0.000 A 
ATOM     14  C   UNL     1      -2.462  11.344  17.455  0.00  0.00    +0.000 A 
ATOM     15  C   UNL     1      -3.791  11.493  17.874  0.00  0.00    +0.000 A 
ATOM     16  C   UNL     1      -4.108  12.092  19.120  0.00  0.00    +0.000 A 
ATOM     17  H   UNL     1      -3.404  16.200  24.256  0.00  0.00    +0.000 HD
ATOM     18  H   UNL     1       0.002  14.087  23.743  0.00  0.00    +0.000 HD
ENDROOT
BRANCH   2  19
ATOM     19  C   UNL     1      -6.067  13.391  22.042  0.00  0.00    +0.000 A 
ATOM     20  C   UNL     1      -6.304  12.623  23.192  0.00  0.00    +0.000 A 
ATOM     21  C   UNL     1      -7.180  13.061  24.196  0.00  0.00    +0.000 A 
ATOM     22  C   UNL     1      -7.917  14.229  24.025  0.00  0.00    +0.000 A 
ATOM     23  C   UNL     1      -7.758  14.967  22.860  0.00  0.00    +0.000 A 
ATOM     24  C   UNL     1      -6.821  14.566  21.900  0.00  0.00    +0.000 A 
ENDBRANCH   2  19
BRANCH  10  25
ATOM     25  N   UNL     1      -1.319  12.157  22.680  0.00  0.00    +0.000 NA
ATOM     26  H   UNL     1      -0.315  12.016  22.795  0.00  0.00    +0.000 HD
ATOM     27  H   UNL     1      -1.574  11.597  21.870  0.00  0.00    +0.000 HD
ENDBRANCH  10  25
BRANCH  14  28
ATOM     28  O   UNL     1      -2.280  10.761  16.229  0.00  0.00    +0.000 OA
ATOM     29  C   UNL     1      -3.416  10.739  15.371  0.00  0.00    +0.000 C 
ENDBRANCH  14  28
BRANCH   1  30
ATOM     30  C   UNL     1      -6.683  11.888  19.223  0.00  0.00    +0.000 C 
BRANCH  30  32
ATOM     31  C   UNL     1      -7.542   9.774  20.290  0.00  0.00    +0.000 C 
ATOM     32  C   UNL     1      -6.872  10.394  19.302  0.00  0.00    +0.000 C 
ENDBRANCH  30  32
ENDBRANCH   1  30
TORSDOF 5
ENDMDL
MODEL 4
REMARK VINA RESULT:      -6.5      3.366      5.882
REMARK  Name = 
REMARK  6 active torsions:
REMARK  status: ('A' for Active; 'I' for Inactive)
REMARK    1  A    between atoms: C_2  and  C_3
REMARK    2  A    between atoms: C_3  and  C_4
REMARK    3  A    between atoms: C_5  and  C_6
REMARK    4  A    between atoms: C_19  and  N_20
REMARK    5  A    between atoms: C_24  and  O_25
REMARK    6  A    between atoms: O_25  and  C_26
REMARK                            x       y       z     vdW  Elec       q    Type
REMARK                         _______ _______ _______ _____ _____    ______ ____
ROOT
ATOM      1  C   UNL     1      -5.111  11.855  19.662  0.00  0.00    +0.000 A 
ATOM      2  C   UNL     1      -3.889  11.833  18.970  0.00  0.00    +0.000 A 
ATOM      3  N   UNL     1      -2.959  12.627  19.710  0.00  0.00    +0.000 N 
ATOM      4  C   UNL     1      -1.562  12.760  19.411  0.00  0.00    +0.000 C 
ATOM      5  N   UNL     1      -0.933  11.827  18.754  0.00  0.00    +0.000 NA
ATOM      6  N   UNL     1       0.394  12.026  18.482  0.00  0.00    +0.000 N 
ATOM      7  C   UNL     1       1.124  13.131  18.794  0.00  0.00    +0.000 C 
ATOM      8  S   UNL     1       2.736  13.256  18.414  0.00  0.00    +0.000 S 
ATOM      9  N   UNL     1       0.478  14.155  19.403  0.00  0.00    +0.000 N 
ATOM     10  C   UNL     1      -0.837  14.002  19.930  0.00  0.00    +0.000 C 
ATOM     11  C   UNL     1      -3.648  13.188  20.805  0.00  0.00    +0.000 A 
ATOM     12  C   UNL     1      -3.263  14.065  21.843  0.00  0.00    +0.000 A 
ATOM     13  C   UNL     1      -4.150  14.413  22.866  0.00  0.00    +0.000 A 
ATOM     14  C   UNL     1      -5.433  13.907  22.894  0.00  0.00    +0.000 A 
ATOM     15  C   UNL     1      -5.835  13.044  21.866  0.00  0.00    +0.000 A 
ATOM     16  C   UNL     1      -4.949  12.683  20.819  0.00  0.00    +0.000 A 
ATOM     17  H   UNL     1       0.846  11.278  17.956  0.00  0.00    +0.000 HD
ATOM     18  H   UNL     1       1.069  14.893  19.752  0.00  0.00    +0.000 HD
ENDROOT
BRANCH   2  19
ATOM     19  C   UNL     1      -3.602  11.139  17.678  0.00  0.00    +0.000 A 
ATOM     20  C   UNL     1      -3.976  11.677  16.437  0.00  0.00    +0.000 A 
ATOM     21  C   UNL     1      -3.629  11.047  15.233  0.00  0.00    +0.000 A 
ATOM     22  C   UNL     1      -2.989   9.811  15.246  0.00  0.00    +0.000 A 
ATOM     23  C   UNL     1      -2.677   9.221  16.462  0.00  0.00    +0.000 A 
ATOM     24  C   UNL     1      -2.953   9.895  17.658  0.00  0.00    +0.000 A 
ENDBRANCH   2  19
BRANCH  10  25
ATOM     25  N   UNL     1      -1.462  15.225  19.466  0.00  0.00    +0.000 NA
ATOM     26  H   UNL     1      -2.454  15.152  19.694  0.00  0.00    +0.000 HD
ATOM     27  H   UNL     1      -1.426  15.252  18.450  0.00  0.00    +0.000 HD
ENDBRANCH  10  25
BRANCH  14  28
ATOM     28  O   UNL     1      -6.371  14.174  23.856  0.00  0.00    +0.000 OA
ATOM     29  C   UNL     1      -7.309  13.135  24.122  0.00  0.00    +0.000 C 
ENDBRANCH  14  28
BRANCH   1  30
ATOM     30  C   UNL     1      -6.427  11.211  19.291  0.00  0.00    +0.000 C 
BRANCH  30  32
ATOM     31  C   UNL     1      -7.184  12.923  17.606  0.00  0.00    +0.000 C 
ATOM     32  C   UNL     1      -7.414  12.192  18.711  0.00  0.00    +0.000 C 
ENDBRANCH  30  32
ENDBRANCH   1  30
TORSDOF 5
ENDMDL
MODEL 5
REMARK VINA RESULT:      -6.4      3.412      5.887
REMARK  Name = 
REMARK  6 active torsions:
REMARK  status: ('A' for Active; 'I' for Inactive)
REMARK    1  A    between atoms: C_2  and  C_3
REMARK    2  A    between atoms: C_3  and  C_4
REMARK    3  A    between atoms: C_5  and  C_6
REMARK    4  A    between atoms: C_19  and  N_20
REMARK    5  A    between atoms: C_24  and  O_25
REMARK    6  A    between atoms: O_25  and  C_26
REMARK                            x       y       z     vdW  Elec       q    Type
REMARK                         _______ _______ _______ _____ _____    ______ ____
ROOT
ATOM      1  C   UNL     1      -5.326  11.825  19.594  0.00  0.00    +0.000 A 
ATOM      2  C   UNL     1      -4.081  11.791  18.946  0.00  0.00    +0.000 A 
ATOM      3  N   UNL     1      -3.162  12.549  19.736  0.00  0.00    +0.000 N 
ATOM      4  C   UNL     1      -1.753  12.656  19.490  0.00  0.00    +0.000 C 
ATOM      5  N   UNL     1      -1.120  11.723  18.837  0.00  0.00    +0.000 NA
ATOM      6  N   UNL     1       0.220  11.897  18.618  0.00  0.00    +0.000 N 
ATOM      7  C   UNL     1       0.961  12.979  18.978  0.00  0.00    +0.000 C 
ATOM      8  S   UNL     1       2.588  13.076  18.659  0.00  0.00    +0.000 S 
ATOM      9  N   UNL     1       0.317  14.005  19.585  0.00  0.00    +0.000 N 
ATOM     10  C   UNL     1      -1.020  13.871  20.061  0.00  0.00    +0.000 C 
ATOM     11  C   UNL     1      -3.878  13.103  20.817  0.00  0.00    +0.000 A 
ATOM     12  C   UNL     1      -3.513  13.950  21.886  0.00  0.00    +0.000 A 
ATOM     13  C   UNL     1      -4.428  14.297  22.884  0.00  0.00    +0.000 A 
ATOM     14  C   UNL     1      -5.722  13.819  22.855  0.00  0.00    +0.000 A 
ATOM     15  C   UNL     1      -6.105  12.986  21.795  0.00  0.00    +0.000 A 
ATOM     16  C   UNL     1      -5.190  12.626  20.773  0.00  0.00    +0.000 A 
ATOM     17  H   UNL     1       0.675  11.151  18.093  0.00  0.00    +0.000 HD
ATOM     18  H   UNL     1       0.910  14.723  19.971  0.00  0.00    +0.000 HD
ENDROOT
BRANCH   2  19
ATOM     19  C   UNL     1      -3.762  11.117  17.651  0.00  0.00    +0.000 A 
ATOM     20  C   UNL     1      -3.049   9.910  17.587  0.00  0.00    +0.000 A 
ATOM     21  C   UNL     1      -2.827   9.256  16.367  0.00  0.00    +0.000 A 
ATOM     22  C   UNL     1      -3.226   9.845  15.172  0.00  0.00    +0.000 A 
ATOM     23  C   UNL     1      -3.865  11.076  15.201  0.00  0.00    +0.000 A 
ATOM     24  C   UNL     1      -4.156  11.683  16.429  0.00  0.00    +0.000 A 
ENDBRANCH   2  19
BRANCH  10  25
ATOM     25  N   UNL     1      -1.601  15.117  19.600  0.00  0.00    +0.000 NA
ATOM     26  H   UNL     1      -0.842  15.658  19.184  0.00  0.00    +0.000 HD
ATOM     27  H   UNL     1      -1.903  15.660  20.404  0.00  0.00    +0.000 HD
ENDBRANCH  10  25
BRANCH  14  28
ATOM     28  O   UNL     1      -6.689  14.087  23.788  0.00  0.00    +0.000 OA
ATOM     29  C   UNL     1      -7.633  13.049  24.028  0.00  0.00    +0.000 C 
ENDBRANCH  14  28
BRANCH   1  30
ATOM     30  C   UNL     1      -6.642  11.219  19.163  0.00  0.00    +0.000 C 
BRANCH  30  32
ATOM     31  C   UNL     1      -7.401   9.069  20.233  0.00  0.00    +0.000 C 
ATOM     32  C   UNL     1      -6.669   9.718  19.310  0.00  0.00    +0.000 C 
ENDBRANCH  30  32
ENDBRANCH   1  30
TORSDOF 5
ENDMDL
MODEL 6
REMARK VINA RESULT:      -6.4      2.431      4.149
REMARK  Name = 
REMARK  6 active torsions:
REMARK  status: ('A' for Active; 'I' for Inactive)
REMARK    1  A    between atoms: C_2  and  C_3
REMARK    2  A    between atoms: C_3  and  C_4
REMARK    3  A    between atoms: C_5  and  C_6
REMARK    4  A    between atoms: C_19  and  N_20
REMARK    5  A    between atoms: C_24  and  O_25
REMARK    6  A    between atoms: O_25  and  C_26
REMARK                            x       y       z     vdW  Elec       q    Type
REMARK                         _______ _______ _______ _____ _____    ______ ____
ROOT
ATOM      1  C   UNL     1      -5.648  11.890  19.591  0.00  0.00    +0.000 A 
ATOM      2  C   UNL     1      -5.244  12.741  20.631  0.00  0.00    +0.000 A 
ATOM      3  N   UNL     1      -3.833  12.938  20.506  0.00  0.00    +0.000 N 
ATOM      4  C   UNL     1      -3.050  13.842  21.297  0.00  0.00    +0.000 C 
ATOM      5  N   UNL     1      -3.601  14.884  21.854  0.00  0.00    +0.000 NA
ATOM      6  N   UNL     1      -2.802  15.696  22.613  0.00  0.00    +0.000 N 
ATOM      7  C   UNL     1      -1.484  15.501  22.887  0.00  0.00    +0.000 C 
ATOM      8  S   UNL     1      -0.614  16.562  23.823  0.00  0.00    +0.000 S 
ATOM      9  N   UNL     1      -0.901  14.382  22.393  0.00  0.00    +0.000 N 
ATOM     10  C   UNL     1      -1.551  13.567  21.421  0.00  0.00    +0.000 C 
ATOM     11  C   UNL     1      -3.381  12.139  19.436  0.00  0.00    +0.000 A 
ATOM     12  C   UNL     1      -2.106  11.904  18.876  0.00  0.00    +0.000 A 
ATOM     13  C   UNL     1      -1.946  11.101  17.743  0.00  0.00    +0.000 A 
ATOM     14  C   UNL     1      -3.035  10.511  17.134  0.00  0.00    +0.000 A 
ATOM     15  C   UNL     1      -4.306  10.725  17.683  0.00  0.00    +0.000 A 
ATOM     16  C   UNL     1      -4.486  11.534  18.833  0.00  0.00    +0.000 A 
ATOM     17  H   UNL     1      -3.274  16.493  23.040  0.00  0.00    +0.000 HD
ATOM     18  H   UNL     1       0.101  14.339  22.486  0.00  0.00    +0.000 HD
ENDROOT
BRANCH   2  19
ATOM     19  C   UNL     1      -6.109  13.321  21.703  0.00  0.00    +0.000 A 
ATOM     20  C   UNL     1      -6.899  14.462  21.495  0.00  0.00    +0.000 A 
ATOM     21  C   UNL     1      -7.761  14.945  22.490  0.00  0.00    +0.000 A 
ATOM     22  C   UNL     1      -7.778  14.357  23.751  0.00  0.00    +0.000 A 
ATOM     23  C   UNL     1      -6.949  13.274  24.006  0.00  0.00    +0.000 A 
ATOM     24  C   UNL     1      -6.152  12.747  22.983  0.00  0.00    +0.000 A 
ENDBRANCH   2  19
BRANCH  10  25
ATOM     25  N   UNL     1      -1.287  12.245  21.951  0.00  0.00    +0.000 NA
ATOM     26  H   UNL     1      -0.602  12.360  22.699  0.00  0.00    +0.000 HD
ATOM     27  H   UNL     1      -0.814  11.691  21.242  0.00  0.00    +0.000 HD
ENDBRANCH  10  25
BRANCH  14  28
ATOM     28  O   UNL     1      -2.988   9.720  16.016  0.00  0.00    +0.000 OA
ATOM     29  C   UNL     1      -3.168  10.386  14.770  0.00  0.00    +0.000 C 
ENDBRANCH  14  28
BRANCH   1  30
ATOM     30  C   UNL     1      -7.022  11.338  19.290  0.00  0.00    +0.000 C 
BRANCH  30  32
ATOM     31  C   UNL     1      -7.140   8.885  19.847  0.00  0.00    +0.000 C 
ATOM     32  C   UNL     1      -7.387  10.167  20.168  0.00  0.00    +0.000 C 
ENDBRANCH  30  32
ENDBRANCH   1  30
TORSDOF 5
ENDMDL
MODEL 7
REMARK VINA RESULT:      -6.4      0.798      1.206
REMARK  Name = 
REMARK  6 active torsions:
REMARK  status: ('A' for Active; 'I' for Inactive)
REMARK    1  A    between atoms: C_2  and  C_3
REMARK    2  A    between atoms: C_3  and  C_4
REMARK    3  A    between atoms: C_5  and  C_6
REMARK    4  A    between atoms: C_19  and  N_20
REMARK    5  A    between atoms: C_24  and  O_25
REMARK    6  A    between atoms: O_25  and  C_26
REMARK                            x       y       z     vdW  Elec       q    Type
REMARK                         _______ _______ _______ _____ _____    ______ ____
ROOT
ATOM      1  C   UNL     1      -3.205  11.053  18.177  0.00  0.00    +0.000 A 
ATOM      2  C   UNL     1      -3.753  11.918  19.137  0.00  0.00    +0.000 A 
ATOM      3  N   UNL     1      -2.707  12.276  20.044  0.00  0.00    +0.000 N 
ATOM      4  C   UNL     1      -2.820  13.244  21.096  0.00  0.00    +0.000 C 
ATOM      5  N   UNL     1      -3.700  14.202  21.025  0.00  0.00    +0.000 NA
ATOM      6  N   UNL     1      -3.770  15.079  22.073  0.00  0.00    +0.000 N 
ATOM      7  C   UNL     1      -3.036  15.028  23.218  0.00  0.00    +0.000 C 
ATOM      8  S   UNL     1      -3.208  16.157  24.424  0.00  0.00    +0.000 S 
ATOM      9  N   UNL     1      -2.172  13.995  23.361  0.00  0.00    +0.000 N 
ATOM     10  C   UNL     1      -1.845  13.137  22.270  0.00  0.00    +0.000 C 
ATOM     11  C   UNL     1      -1.551  11.561  19.670  0.00  0.00    +0.000 A 
ATOM     12  C   UNL     1      -0.246  11.486  20.205  0.00  0.00    +0.000 A 
ATOM     13  C   UNL     1       0.754  10.734  19.580  0.00  0.00    +0.000 A 
ATOM     14  C   UNL     1       0.494  10.041  18.416  0.00  0.00    +0.000 A 
ATOM     15  C   UNL     1      -0.798  10.095  17.877  0.00  0.00    +0.000 A 
ATOM     16  C   UNL     1      -1.825  10.850  18.500  0.00  0.00    +0.000 A 
ATOM     17  H   UNL     1      -4.479  15.807  21.984  0.00  0.00    +0.000 HD
ATOM     18  H   UNL     1      -1.540  14.063  24.143  0.00  0.00    +0.000 HD
ENDROOT
BRANCH   2  19
ATOM     19  C   UNL     1      -5.174  12.370  19.230  0.00  0.00    +0.000 A 
ATOM     20  C   UNL     1      -5.726  13.305  18.341  0.00  0.00    +0.000 A 
ATOM     21  C   UNL     1      -7.082  13.657  18.398  0.00  0.00    +0.000 A 
ATOM     22  C   UNL     1      -7.895  13.158  19.411  0.00  0.00    +0.000 A 
ATOM     23  C   UNL     1      -7.354  12.291  20.350  0.00  0.00    +0.000 A 
ATOM     24  C   UNL     1      -6.020  11.880  20.237  0.00  0.00    +0.000 A 
ENDBRANCH   2  19
BRANCH  10  25
ATOM     25  N   UNL     1      -1.915  11.840  22.913  0.00  0.00    +0.000 NA
ATOM     26  H   UNL     1      -2.856  11.482  22.750  0.00  0.00    +0.000 HD
ATOM     27  H   UNL     1      -1.849  11.963  23.920  0.00  0.00    +0.000 HD
ENDBRANCH  10  25
BRANCH  14  28
ATOM     28  O   UNL     1       1.404   9.289  17.720  0.00  0.00    +0.000 OA
ATOM     29  C   UNL     1       2.144   8.339  18.481  0.00  0.00    +0.000 C 
ENDBRANCH  14  28
BRANCH   1  30
ATOM     30  C   UNL     1      -3.887  10.357  17.021  0.00  0.00    +0.000 C 
BRANCH  30  32
ATOM     31  C   UNL     1      -2.974  10.219  14.678  0.00  0.00    +0.000 C 
ATOM     32  C   UNL     1      -3.505  10.938  15.683  0.00  0.00    +0.000 C 
ENDBRANCH  30  32
ENDBRANCH   1  30
TORSDOF 5
ENDMDL
MODEL 8
REMARK VINA RESULT:      -6.3      3.416      5.990
REMARK  Name = 
REMARK  6 active torsions:
REMARK  status: ('A' for Active; 'I' for Inactive)
REMARK    1  A    between atoms: C_2  and  C_3
REMARK    2  A    between atoms: C_3  and  C_4
REMARK    3  A    between atoms: C_5  and  C_6
REMARK    4  A    between atoms: C_19  and  N_20
REMARK    5  A    between atoms: C_24  and  O_25
REMARK    6  A    between atoms: O_25  and  C_26
REMARK                            x       y       z     vdW  Elec       q    Type
REMARK                         _______ _______ _______ _____ _____    ______ ____
ROOT
ATOM      1  C   UNL     1      -5.348  11.678  19.578  0.00  0.00    +0.000 A 
ATOM      2  C   UNL     1      -4.100  11.691  18.936  0.00  0.00    +0.000 A 
ATOM      3  N   UNL     1      -3.203  12.450  19.749  0.00  0.00    +0.000 N 
ATOM      4  C   UNL     1      -1.796  12.599  19.513  0.00  0.00    +0.000 C 
ATOM      5  N   UNL     1      -1.138  11.699  18.838  0.00  0.00    +0.000 NA
ATOM      6  N   UNL     1       0.198  11.912  18.630  0.00  0.00    +0.000 N 
ATOM      7  C   UNL     1       0.911  13.002  19.022  0.00  0.00    +0.000 C 
ATOM      8  S   UNL     1       2.537  13.147  18.714  0.00  0.00    +0.000 S 
ATOM      9  N   UNL     1       0.239  13.995  19.652  0.00  0.00    +0.000 N 
ATOM     10  C   UNL     1      -1.096  13.816  20.119  0.00  0.00    +0.000 C 
ATOM     11  C   UNL     1      -3.937  12.958  20.841  0.00  0.00    +0.000 A 
ATOM     12  C   UNL     1      -3.597  13.785  21.933  0.00  0.00    +0.000 A 
ATOM     13  C   UNL     1      -4.525  14.084  22.936  0.00  0.00    +0.000 A 
ATOM     14  C   UNL     1      -5.807  13.575  22.888  0.00  0.00    +0.000 A 
ATOM     15  C   UNL     1      -6.164  12.761  21.806  0.00  0.00    +0.000 A 
ATOM     16  C   UNL     1      -5.236  12.451  20.779  0.00  0.00    +0.000 A 
ATOM     17  H   UNL     1       0.674  11.191  18.088  0.00  0.00    +0.000 HD
ATOM     18  H   UNL     1       0.813  14.717  20.060  0.00  0.00    +0.000 HD
ENDROOT
BRANCH   2  19
ATOM     19  C   UNL     1      -3.759  11.059  17.625  0.00  0.00    +0.000 A 
ATOM     20  C   UNL     1      -4.101  11.645  16.397  0.00  0.00    +0.000 A 
ATOM     21  C   UNL     1      -3.705  11.074  15.179  0.00  0.00    +0.000 A 
ATOM     22  C   UNL     1      -3.045   9.850  15.159  0.00  0.00    +0.000 A 
ATOM     23  C   UNL     1      -2.763   9.211  16.358  0.00  0.00    +0.000 A 
ATOM     24  C   UNL     1      -3.089   9.827  17.572  0.00  0.00    +0.000 A 
ENDBRANCH   2  19
BRANCH  10  25
ATOM     25  N   UNL     1      -1.705  15.058  19.688  0.00  0.00    +0.000 NA
ATOM     26  H   UNL     1      -2.673  14.842  19.445  0.00  0.00    +0.000 HD
ATOM     27  H   UNL     1      -1.275  15.356  18.816  0.00  0.00    +0.000 HD
ENDBRANCH  10  25
BRANCH  14  28
ATOM     28  O   UNL     1      -6.783  13.794  23.823  0.00  0.00    +0.000 OA
ATOM     29  C   UNL     1      -7.290  15.123  23.899  0.00  0.00    +0.000 C 
ENDBRANCH  14  28
BRANCH   1  30
ATOM     30  C   UNL     1      -6.646  11.051  19.125  0.00  0.00    +0.000 C 
BRANCH  30  32
ATOM     31  C   UNL     1      -7.156   8.694  19.854  0.00  0.00    +0.000 C 
ATOM     32  C   UNL     1      -7.165  10.017  20.094  0.00  0.00    +0.000 C 
ENDBRANCH  30  32
ENDBRANCH   1  30
TORSDOF 5
ENDMDL
MODEL 9
REMARK VINA RESULT:      -6.3      3.595      7.234
REMARK  Name = 
REMARK  6 active torsions:
REMARK  status: ('A' for Active; 'I' for Inactive)
REMARK    1  A    between atoms: C_2  and  C_3
REMARK    2  A    between atoms: C_3  and  C_4
REMARK    3  A    between atoms: C_5  and  C_6
REMARK    4  A    between atoms: C_19  and  N_20
REMARK    5  A    between atoms: C_24  and  O_25
REMARK    6  A    between atoms: O_25  and  C_26
REMARK                            x       y       z     vdW  Elec       q    Type
REMARK                         _______ _______ _______ _____ _____    ______ ____
ROOT
ATOM      1  C   UNL     1      -1.976  12.780  21.345  0.00  0.00    +0.000 A 
ATOM      2  C   UNL     1      -1.780  12.102  20.131  0.00  0.00    +0.000 A 
ATOM      3  N   UNL     1      -3.004  12.168  19.396  0.00  0.00    +0.000 N 
ATOM      4  C   UNL     1      -3.187  11.707  18.051  0.00  0.00    +0.000 C 
ATOM      5  N   UNL     1      -2.176  11.631  17.232  0.00  0.00    +0.000 NA
ATOM      6  N   UNL     1      -2.415  11.163  15.969  0.00  0.00    +0.000 N 
ATOM      7  C   UNL     1      -3.608  10.722  15.485  0.00  0.00    +0.000 C 
ATOM      8  S   UNL     1      -3.777  10.178  13.925  0.00  0.00    +0.000 S 
ATOM      9  N   UNL     1      -4.662  10.708  16.336  0.00  0.00    +0.000 N 
ATOM     10  C   UNL     1      -4.608  11.359  17.603  0.00  0.00    +0.000 C 
ATOM     11  C   UNL     1      -3.957  12.819  20.207  0.00  0.00    +0.000 A 
ATOM     12  C   UNL     1      -5.322  13.136  20.029  0.00  0.00    +0.000 A 
ATOM     13  C   UNL     1      -6.029  13.868  20.987  0.00  0.00    +0.000 A 
ATOM     14  C   UNL     1      -5.412  14.305  22.141  0.00  0.00    +0.000 A 
ATOM     15  C   UNL     1      -4.061  13.990  22.339  0.00  0.00    +0.000 A 
ATOM     16  C   UNL     1      -3.330  13.245  21.378  0.00  0.00    +0.000 A 
ATOM     17  H   UNL     1      -1.597  11.107  15.363  0.00  0.00    +0.000 HD
ATOM     18  H   UNL     1      -5.557  10.520  15.914  0.00  0.00    +0.000 HD
ENDROOT
BRANCH   2  19
ATOM     19  C   UNL     1      -0.536  11.405  19.684  0.00  0.00    +0.000 A 
ATOM     20  C   UNL     1      -0.336  10.029  19.872  0.00  0.00    +0.000 A 
ATOM     21  C   UNL     1       0.804   9.382  19.376  0.00  0.00    +0.000 A 
ATOM     22  C   UNL     1       1.821  10.114  18.771  0.00  0.00    +0.000 A 
ATOM     23  C   UNL     1       1.683  11.489  18.642  0.00  0.00    +0.000 A 
ATOM     24  C   UNL     1       0.504  12.116  19.065  0.00  0.00    +0.000 A 
ENDBRANCH   2  19
BRANCH  10  25
ATOM     25  N   UNL     1      -5.210  10.352  18.454  0.00  0.00    +0.000 NA
ATOM     26  H   UNL     1      -4.835  10.499  19.392  0.00  0.00    +0.000 HD
ATOM     27  H   UNL     1      -4.872   9.435  18.175  0.00  0.00    +0.000 HD
ENDBRANCH  10  25
BRANCH  14  28
ATOM     28  O   UNL     1      -6.009  15.038  23.133  0.00  0.00    +0.000 OA
ATOM     29  C   UNL     1      -6.992  14.358  23.908  0.00  0.00    +0.000 C 
ENDBRANCH  14  28
BRANCH   1  30
ATOM     30  C   UNL     1      -1.015  12.972  22.495  0.00  0.00    +0.000 C 
BRANCH  30  32
ATOM     31  C   UNL     1      -0.122  15.038  21.365  0.00  0.00    +0.000 C 
ATOM     32  C   UNL     1      -0.350  14.326  22.482  0.00  0.00    +0.000 C 
ENDBRANCH  30  32
ENDBRANCH   1  30
TORSDOF 5
ENDMDL
