MODEL 1
REMARK VINA RESULT:      -7.8      0.000      0.000
REMARK  Name = 
REMARK  7 active torsions:
REMARK  status: ('A' for Active; 'I' for Inactive)
REMARK    1  A    between atoms: C_2  and  C_3
REMARK    2  A    between atoms: C_6  and  C_7
REMARK    3  A    between atoms: C_10  and  C_11
REMARK    4  A    between atoms: C_11  and  C_12
REMARK    5  A    between atoms: C_12  and  C_13
REMARK    6  A    between atoms: C_12  and  N_15
REMARK    7  A    between atoms: C_16  and  C_18
REMARK                            x       y       z     vdW  Elec       q    Type
REMARK                         _______ _______ _______ _____ _____    ______ ____
ROOT
ATOM      1  C   UNL     1       4.378   5.923  18.073  0.00  0.00    +0.000 C 
ENDROOT
BRANCH   1   5
ATOM      2  C   UNL     1       1.404   8.987  18.970  0.00  0.00    +0.000 A 
ATOM      3  C   UNL     1       2.132   9.002  17.766  0.00  0.00    +0.000 A 
ATOM      4  C   UNL     1       3.085   8.017  17.469  0.00  0.00    +0.000 A 
ATOM      5  C   UNL     1       3.349   6.988  18.376  0.00  0.00    +0.000 A 
ATOM      6  C   UNL     1       2.654   6.970  19.588  0.00  0.00    +0.000 A 
ATOM      7  C   UNL     1       1.698   7.950  19.874  0.00  0.00    +0.000 A 
BRANCH   2  11
ATOM      8  C   UNL     1      -1.768  11.765  19.914  0.00  0.00    +0.000 A 
ATOM      9  C   UNL     1      -1.709  11.171  18.654  0.00  0.00    +0.000 A 
ATOM     10  C   UNL     1      -0.667  10.288  18.341  0.00  0.00    +0.000 A 
ATOM     11  C   UNL     1       0.346   9.983  19.271  0.00  0.00    +0.000 A 
ATOM     12  C   UNL     1       0.280  10.630  20.522  0.00  0.00    +0.000 A 
ATOM     13  C   UNL     1      -0.768  11.497  20.849  0.00  0.00    +0.000 A 
BRANCH   8  15
ATOM     14  N   UNL     1      -3.725  13.351  20.523  0.00  0.00    +0.000 NA
ATOM     15  C   UNL     1      -2.854  12.636  20.252  0.00  0.00    +0.000 C 
ENDBRANCH   8  15
ENDBRANCH   2  11
ENDBRANCH   1   5
BRANCH   1  16
ATOM     16  C   UNL     1       3.884   4.833  17.101  0.00  0.00    +0.000 C 
BRANCH  16  17
ATOM     17  N   UNL     1       3.242   3.745  17.839  0.00  0.00    +0.000 N 
ATOM     18  C   UNL     1       1.878   3.591  17.891  0.00  0.00    +0.000 C 
ATOM     19  O   UNL     1       1.120   4.360  17.304  0.00  0.00    +0.000 OA
ATOM     20  H   UNL     1       3.815   3.178  18.467  0.00  0.00    +0.000 HD
BRANCH  18  21
ATOM     21  C   UNL     1       1.344   2.490  18.840  0.00  0.00    +0.000 C 
ATOM     22  C   UNL     1       2.451   1.646  19.492  0.00  0.00    +0.000 C 
ATOM     23  O   UNL     1       3.213   2.435  20.430  0.00  0.00    +0.000 OA
ATOM     24  C   UNL     1       2.351   2.937  21.467  0.00  0.00    +0.000 C 
ATOM     25  C   UNL     1       1.230   3.810  20.881  0.00  0.00    +0.000 C 
ATOM     26  N   UNL     1       0.451   3.102  19.857  0.00  0.00    +0.000 NA
ATOM     27  H   UNL     1      -0.186   3.749  19.386  0.00  0.00    +0.000 HD
ENDBRANCH  18  21
ENDBRANCH  16  17
BRANCH  16  28
ATOM     28  C   UNL     1       5.001   4.285  16.301  0.00  0.00    +0.000 C 
ATOM     29  N   UNL     1       5.886   3.889  15.660  0.00  0.00    +0.000 NA
ENDBRANCH  16  28
ENDBRANCH   1  16
TORSDOF 7
ENDMDL
MODEL 2
REMARK VINA RESULT:      -7.8      1.452      2.100
REMARK  Name = 
REMARK  7 active torsions:
REMARK  status: ('A' for Active; 'I' for Inactive)
REMARK    1  A    between atoms: C_2  and  C_3
REMARK    2  A    between atoms: C_6  and  C_7
REMARK    3  A    between atoms: C_10  and  C_11
REMARK    4  A    between atoms: C_11  and  C_12
REMARK    5  A    between atoms: C_12  and  C_13
REMARK    6  A    between atoms: C_12  and  N_15
REMARK    7  A    between atoms: C_16  and  C_18
REMARK                            x       y       z     vdW  Elec       q    Type
REMARK                         _______ _______ _______ _____ _____    ______ ____
ROOT
ATOM      1  C   UNL     1       5.024   5.734  17.194  0.00  0.00    +0.000 C 
ENDROOT
BRANCH   1   5
ATOM      2  C   UNL     1       2.049   7.980  19.461  0.00  0.00    +0.000 A 
ATOM      3  C   UNL     1       2.572   6.765  19.940  0.00  0.00    +0.000 A 
ATOM      4  C   UNL     1       3.532   6.041  19.219  0.00  0.00    +0.000 A 
ATOM      5  C   UNL     1       3.995   6.507  17.985  0.00  0.00    +0.000 A 
ATOM      6  C   UNL     1       3.469   7.699  17.482  0.00  0.00    +0.000 A 
ATOM      7  C   UNL     1       2.518   8.421  18.210  0.00  0.00    +0.000 A 
BRANCH   2  11
ATOM      8  C   UNL     1      -0.642  10.433  21.787  0.00  0.00    +0.000 A 
ATOM      9  C   UNL     1      -0.151   9.238  22.313  0.00  0.00    +0.000 A 
ATOM     10  C   UNL     1       0.703   8.432  21.549  0.00  0.00    +0.000 A 
ATOM     11  C   UNL     1       1.081   8.791  20.240  0.00  0.00    +0.000 A 
ATOM     12  C   UNL     1       0.537   9.984  19.723  0.00  0.00    +0.000 A 
ATOM     13  C   UNL     1      -0.300  10.804  20.487  0.00  0.00    +0.000 A 
BRANCH   8  15
ATOM     14  N   UNL     1      -2.166  11.955  23.228  0.00  0.00    +0.000 NA
ATOM     15  C   UNL     1      -1.482  11.280  22.580  0.00  0.00    +0.000 C 
ENDBRANCH   8  15
ENDBRANCH   2  11
ENDBRANCH   1   5
BRANCH   1  16
ATOM     16  C   UNL     1       4.434   4.581  16.357  0.00  0.00    +0.000 C 
BRANCH  16  17
ATOM     17  N   UNL     1       4.232   3.397  17.193  0.00  0.00    +0.000 N 
ATOM     18  C   UNL     1       2.990   2.860  17.424  0.00  0.00    +0.000 C 
ATOM     19  O   UNL     1       1.975   3.344  16.926  0.00  0.00    +0.000 OA
ATOM     20  H   UNL     1       5.016   3.056  17.751  0.00  0.00    +0.000 HD
BRANCH  18  21
ATOM     21  C   UNL     1       2.918   1.706  18.455  0.00  0.00    +0.000 C 
ATOM     22  C   UNL     1       4.053   1.732  19.491  0.00  0.00    +0.000 C 
ATOM     23  O   UNL     1       3.916   2.865  20.375  0.00  0.00    +0.000 OA
ATOM     24  C   UNL     1       2.661   2.795  21.074  0.00  0.00    +0.000 C 
ATOM     25  C   UNL     1       1.478   2.787  20.092  0.00  0.00    +0.000 C 
ATOM     26  N   UNL     1       1.582   1.704  19.106  0.00  0.00    +0.000 NA
ATOM     27  H   UNL     1       0.866   1.813  18.383  0.00  0.00    +0.000 HD
ENDBRANCH  18  21
ENDBRANCH  16  17
BRANCH  16  28
ATOM     28  C   UNL     1       5.324   4.232  15.227  0.00  0.00    +0.000 C 
ATOM     29  N   UNL     1       6.052   3.962  14.363  0.00  0.00    +0.000 NA
ENDBRANCH  16  28
ENDBRANCH   1  16
TORSDOF 7
ENDMDL
MODEL 3
REMARK VINA RESULT:      -7.5      5.145      7.028
REMARK  Name = 
REMARK  7 active torsions:
REMARK  status: ('A' for Active; 'I' for Inactive)
REMARK    1  A    between atoms: C_2  and  C_3
REMARK    2  A    between atoms: C_6  and  C_7
REMARK    3  A    between atoms: C_10  and  C_11
REMARK    4  A    between atoms: C_11  and  C_12
REMARK    5  A    between atoms: C_12  and  C_13
REMARK    6  A    between atoms: C_12  and  N_15
REMARK    7  A    between atoms: C_16  and  C_18
REMARK                            x       y       z     vdW  Elec       q    Type
REMARK                         _______ _______ _______ _____ _____    ______ ____
ROOT
ATOM      1  C   UNL     1       6.689   4.708  17.419  0.00  0.00    +0.000 C 
ENDROOT
BRANCH   1   5
ATOM      2  C   UNL     1       8.316   8.622  18.448  0.00  0.00    +0.000 A 
ATOM      3  C   UNL     1       8.586   7.487  19.234  0.00  0.00    +0.000 A 
ATOM      4  C   UNL     1       8.071   6.225  18.905  0.00  0.00    +0.000 A 
ATOM      5  C   UNL     1       7.257   6.061  17.781  0.00  0.00    +0.000 A 
ATOM      6  C   UNL     1       6.958   7.181  17.003  0.00  0.00    +0.000 A 
ATOM      7  C   UNL     1       7.483   8.436  17.331  0.00  0.00    +0.000 A 
BRANCH   2  11
ATOM      8  C   UNL     1      10.181  12.436  19.256  0.00  0.00    +0.000 A 
ATOM      9  C   UNL     1      10.058  11.487  20.271  0.00  0.00    +0.000 A 
ATOM     10  C   UNL     1       9.432  10.260  20.013  0.00  0.00    +0.000 A 
ATOM     11  C   UNL     1       8.906   9.952  18.744  0.00  0.00    +0.000 A 
ATOM     12  C   UNL     1       9.011  10.947  17.751  0.00  0.00    +0.000 A 
ATOM     13  C   UNL     1       9.651  12.167  17.995  0.00  0.00    +0.000 A 
BRANCH   8  15
ATOM     14  N   UNL     1      11.395  14.679  19.715  0.00  0.00    +0.000 NA
ATOM     15  C   UNL     1      10.855  13.675  19.504  0.00  0.00    +0.000 C 
ENDBRANCH   8  15
ENDBRANCH   2  11
ENDBRANCH   1   5
BRANCH   1  16
ATOM     16  C   UNL     1       5.549   4.765  16.382  0.00  0.00    +0.000 C 
BRANCH  16  17
ATOM     17  N   UNL     1       4.382   4.025  16.865  0.00  0.00    +0.000 N 
ATOM     18  C   UNL     1       3.323   4.642  17.485  0.00  0.00    +0.000 C 
ATOM     19  O   UNL     1       3.294   5.859  17.654  0.00  0.00    +0.000 OA
ATOM     20  H   UNL     1       4.428   3.006  16.891  0.00  0.00    +0.000 HD
BRANCH  18  21
ATOM     21  C   UNL     1       2.237   3.712  18.083  0.00  0.00    +0.000 C 
ATOM     22  C   UNL     1       2.706   2.260  18.275  0.00  0.00    +0.000 C 
ATOM     23  O   UNL     1       3.706   2.176  19.312  0.00  0.00    +0.000 OA
ATOM     24  C   UNL     1       3.165   2.650  20.558  0.00  0.00    +0.000 C 
ATOM     25  C   UNL     1       2.696   4.109  20.440  0.00  0.00    +0.000 C 
ATOM     26  N   UNL     1       1.728   4.295  19.351  0.00  0.00    +0.000 NA
ATOM     27  H   UNL     1       1.548   5.292  19.203  0.00  0.00    +0.000 HD
ENDBRANCH  18  21
ENDBRANCH  16  17
BRANCH  16  28
ATOM     28  C   UNL     1       5.979   4.198  15.085  0.00  0.00    +0.000 C 
ATOM     29  N   UNL     1       6.282   3.757  14.053  0.00  0.00    +0.000 NA
ENDBRANCH  16  28
ENDBRANCH   1  16
TORSDOF 7
ENDMDL
MODEL 4
REMARK VINA RESULT:      -7.5      0.615      1.108
REMARK  Name = 
REMARK  7 active torsions:
REMARK  status: ('A' for Active; 'I' for Inactive)
REMARK    1  A    between atoms: C_2  and  C_3
REMARK    2  A    between atoms: C_6  and  C_7
REMARK    3  A    between atoms: C_10  and  C_11
REMARK    4  A    between atoms: C_11  and  C_12
REMARK    5  A    between atoms: C_12  and  C_13
REMARK    6  A    between atoms: C_12  and  N_15
REMARK    7  A    between atoms: C_16  and  C_18
REMARK                            x       y       z     vdW  Elec       q    Type
REMARK                         _______ _______ _______ _____ _____    ______ ____
ROOT
ATOM      1  C   UNL     1       3.980   6.425  18.412  0.00  0.00    +0.000 C 
ENDROOT
BRANCH   1   5
ATOM      2  C   UNL     1       0.802   9.304  19.215  0.00  0.00    +0.000 A 
ATOM      3  C   UNL     1       1.200   8.364  20.182  0.00  0.00    +0.000 A 
ATOM      4  C   UNL     1       2.225   7.439  19.933  0.00  0.00    +0.000 A 
ATOM      5  C   UNL     1       2.879   7.420  18.698  0.00  0.00    +0.000 A 
ATOM      6  C   UNL     1       2.480   8.330  17.716  0.00  0.00    +0.000 A 
ATOM      7  C   UNL     1       1.464   9.256  17.975  0.00  0.00    +0.000 A 
BRANCH   2  11
ATOM      8  C   UNL     1      -2.311  12.178  20.067  0.00  0.00    +0.000 A 
ATOM      9  C   UNL     1      -2.249  11.561  18.818  0.00  0.00    +0.000 A 
ATOM     10  C   UNL     1      -1.226  10.647  18.535  0.00  0.00    +0.000 A 
ATOM     11  C   UNL     1      -0.234  10.332  19.485  0.00  0.00    +0.000 A 
ATOM     12  C   UNL     1      -0.301  11.002  20.723  0.00  0.00    +0.000 A 
ATOM     13  C   UNL     1      -1.331  11.901  21.020  0.00  0.00    +0.000 A 
BRANCH   8  15
ATOM     14  N   UNL     1      -4.240  13.819  20.612  0.00  0.00    +0.000 NA
ATOM     15  C   UNL     1      -3.378  13.082  20.374  0.00  0.00    +0.000 C 
ENDBRANCH   8  15
ENDBRANCH   2  11
ENDBRANCH   1   5
BRANCH   1  16
ATOM     16  C   UNL     1       3.617   5.381  17.337  0.00  0.00    +0.000 C 
BRANCH  16  17
ATOM     17  N   UNL     1       3.147   4.145  17.964  0.00  0.00    +0.000 N 
ATOM     18  C   UNL     1       1.838   3.734  17.897  0.00  0.00    +0.000 C 
ATOM     19  O   UNL     1       0.989   4.384  17.290  0.00  0.00    +0.000 OA
ATOM     20  H   UNL     1       3.772   3.657  18.606  0.00  0.00    +0.000 HD
BRANCH  18  21
ATOM     21  C   UNL     1       1.461   2.492  18.742  0.00  0.00    +0.000 C 
ATOM     22  C   UNL     1       2.676   1.729  19.294  0.00  0.00    +0.000 C 
ATOM     23  O   UNL     1       3.363   2.511  20.293  0.00  0.00    +0.000 OA
ATOM     24  C   UNL     1       2.475   2.806  21.386  0.00  0.00    +0.000 C 
ATOM     25  C   UNL     1       1.243   3.590  20.903  0.00  0.00    +0.000 C 
ATOM     26  N   UNL     1       0.528   2.894  19.826  0.00  0.00    +0.000 NA
ATOM     27  H   UNL     1      -0.193   3.502  19.429  0.00  0.00    +0.000 HD
ENDBRANCH  18  21
ENDBRANCH  16  17
BRANCH  16  28
ATOM     28  C   UNL     1       4.779   5.076  16.475  0.00  0.00    +0.000 C 
ATOM     29  N   UNL     1       5.715   4.839  15.827  0.00  0.00    +0.000 NA
ENDBRANCH  16  28
ENDBRANCH   1  16
TORSDOF 7
ENDMDL
MODEL 5
REMARK VINA RESULT:      -7.4      4.991      6.832
REMARK  Name = 
REMARK  7 active torsions:
REMARK  status: ('A' for Active; 'I' for Inactive)
REMARK    1  A    between atoms: C_2  and  C_3
REMARK    2  A    between atoms: C_6  and  C_7
REMARK    3  A    between atoms: C_10  and  C_11
REMARK    4  A    between atoms: C_11  and  C_12
REMARK    5  A    between atoms: C_12  and  C_13
REMARK    6  A    between atoms: C_12  and  N_15
REMARK    7  A    between atoms: C_16  and  C_18
REMARK                            x       y       z     vdW  Elec       q    Type
REMARK                         _______ _______ _______ _____ _____    ______ ____
ROOT
ATOM      1  C   UNL     1       6.491   4.598  17.678  0.00  0.00    +0.000 C 
ENDROOT
BRANCH   1   5
ATOM      2  C   UNL     1       8.227   8.550  18.317  0.00  0.00    +0.000 A 
ATOM      3  C   UNL     1       7.341   8.302  17.252  0.00  0.00    +0.000 A 
ATOM      4  C   UNL     1       6.776   7.035  17.045  0.00  0.00    +0.000 A 
ATOM      5  C   UNL     1       7.088   5.970  17.894  0.00  0.00    +0.000 A 
ATOM      6  C   UNL     1       7.984   6.191  18.941  0.00  0.00    +0.000 A 
ATOM      7  C   UNL     1       8.538   7.459  19.149  0.00  0.00    +0.000 A 
BRANCH   2  11
ATOM      8  C   UNL     1       9.982  12.434  19.027  0.00  0.00    +0.000 A 
ATOM      9  C   UNL     1      10.136  11.413  19.964  0.00  0.00    +0.000 A 
ATOM     10  C   UNL     1       9.547  10.161  19.743  0.00  0.00    +0.000 A 
ATOM     11  C   UNL     1       8.783   9.898  18.590  0.00  0.00    +0.000 A 
ATOM     12  C   UNL     1       8.612  10.963  17.682  0.00  0.00    +0.000 A 
ATOM     13  C   UNL     1       9.213  12.209  17.885  0.00  0.00    +0.000 A 
BRANCH   8  15
ATOM     14  N   UNL     1      11.128  14.727  19.404  0.00  0.00    +0.000 NA
ATOM     15  C   UNL     1      10.616  13.702  19.229  0.00  0.00    +0.000 C 
ENDBRANCH   8  15
ENDBRANCH   2  11
ENDBRANCH   1   5
BRANCH   1  16
ATOM     16  C   UNL     1       5.334   4.572  16.659  0.00  0.00    +0.000 C 
BRANCH  16  17
ATOM     17  N   UNL     1       4.253   3.709  17.137  0.00  0.00    +0.000 N 
ATOM     18  C   UNL     1       3.067   4.209  17.615  0.00  0.00    +0.000 C 
ATOM     19  O   UNL     1       2.845   5.417  17.653  0.00  0.00    +0.000 OA
ATOM     20  H   UNL     1       4.447   2.716  17.273  0.00  0.00    +0.000 HD
BRANCH  18  21
ATOM     21  C   UNL     1       2.084   3.182  18.232  0.00  0.00    +0.000 C 
ATOM     22  C   UNL     1       2.773   1.924  18.786  0.00  0.00    +0.000 C 
ATOM     23  O   UNL     1       3.566   2.242  19.949  0.00  0.00    +0.000 OA
ATOM     24  C   UNL     1       2.728   2.794  20.980  0.00  0.00    +0.000 C 
ATOM     25  C   UNL     1       2.024   4.073  20.497  0.00  0.00    +0.000 C 
ATOM     26  N   UNL     1       1.253   3.851  19.267  0.00  0.00    +0.000 NA
ATOM     27  H   UNL     1       0.920   4.742  18.892  0.00  0.00    +0.000 HD
ENDBRANCH  18  21
ENDBRANCH  16  17
BRANCH  16  28
ATOM     28  C   UNL     1       5.796   4.085  15.340  0.00  0.00    +0.000 C 
ATOM     29  N   UNL     1       6.181   3.679  14.322  0.00  0.00    +0.000 NA
ENDBRANCH  16  28
ENDBRANCH   1  16
TORSDOF 7
ENDMDL
MODEL 6
REMARK VINA RESULT:      -7.4      2.457      4.146
REMARK  Name = 
REMARK  7 active torsions:
REMARK  status: ('A' for Active; 'I' for Inactive)
REMARK    1  A    between atoms: C_2  and  C_3
REMARK    2  A    between atoms: C_6  and  C_7
REMARK    3  A    between atoms: C_10  and  C_11
REMARK    4  A    between atoms: C_11  and  C_12
REMARK    5  A    between atoms: C_12  and  C_13
REMARK    6  A    between atoms: C_12  and  N_15
REMARK    7  A    between atoms: C_16  and  C_18
REMARK                            x       y       z     vdW  Elec       q    Type
REMARK                         _______ _______ _______ _____ _____    ______ ____
ROOT
ATOM      1  C   UNL     1       2.776   7.307  17.518  0.00  0.00    +0.000 C 
ENDROOT
BRANCH   1   5
ATOM      2  C   UNL     1       0.389   9.841  20.148  0.00  0.00    +0.000 A 
ATOM      3  C   UNL     1       0.474  10.093  18.766  0.00  0.00    +0.000 A 
ATOM      4  C   UNL     1       1.235   9.278  17.915  0.00  0.00    +0.000 A 
ATOM      5  C   UNL     1       1.946   8.188  18.423  0.00  0.00    +0.000 A 
ATOM      6  C   UNL     1       1.894   7.938  19.796  0.00  0.00    +0.000 A 
ATOM      7  C   UNL     1       1.126   8.748  20.638  0.00  0.00    +0.000 A 
BRANCH   2  11
ATOM      8  C   UNL     1      -2.215  12.094  22.758  0.00  0.00    +0.000 A 
ATOM      9  C   UNL     1      -2.107  12.436  21.410  0.00  0.00    +0.000 A 
ATOM     10  C   UNL     1      -1.245  11.719  20.570  0.00  0.00    +0.000 A 
ATOM     11  C   UNL     1      -0.463  10.652  21.052  0.00  0.00    +0.000 A 
ATOM     12  C   UNL     1      -0.564  10.358  22.427  0.00  0.00    +0.000 A 
ATOM     13  C   UNL     1      -1.437  11.055  23.268  0.00  0.00    +0.000 A 
BRANCH   8  15
ATOM     14  N   UNL     1      -3.871  13.366  24.292  0.00  0.00    +0.000 NA
ATOM     15  C   UNL     1      -3.125  12.798  23.611  0.00  0.00    +0.000 C 
ENDBRANCH   8  15
ENDBRANCH   2  11
ENDBRANCH   1   5
BRANCH   1  16
ATOM     16  C   UNL     1       3.183   5.962  18.155  0.00  0.00    +0.000 C 
BRANCH  16  17
ATOM     17  N   UNL     1       4.511   5.560  17.692  0.00  0.00    +0.000 N 
ATOM     18  C   UNL     1       5.320   4.716  18.414  0.00  0.00    +0.000 C 
ATOM     19  O   UNL     1       4.961   4.242  19.489  0.00  0.00    +0.000 OA
ATOM     20  H   UNL     1       4.915   6.046  16.891  0.00  0.00    +0.000 HD
BRANCH  18  21
ATOM     21  C   UNL     1       6.757   4.509  17.874  0.00  0.00    +0.000 C 
ATOM     22  C   UNL     1       6.984   5.110  16.477  0.00  0.00    +0.000 C 
ATOM     23  O   UNL     1       6.941   6.552  16.524  0.00  0.00    +0.000 OA
ATOM     24  C   UNL     1       7.964   7.047  17.405  0.00  0.00    +0.000 C 
ATOM     25  C   UNL     1       7.782   6.499  18.830  0.00  0.00    +0.000 C 
ATOM     26  N   UNL     1       7.738   5.031  18.860  0.00  0.00    +0.000 NA
ATOM     27  H   UNL     1       7.471   4.704  19.791  0.00  0.00    +0.000 HD
ENDBRANCH  18  21
ENDBRANCH  16  17
BRANCH  16  28
ATOM     28  C   UNL     1       2.210   4.899  17.823  0.00  0.00    +0.000 C 
ATOM     29  N   UNL     1       1.451   4.070  17.525  0.00  0.00    +0.000 NA
ENDBRANCH  16  28
ENDBRANCH   1  16
TORSDOF 7
ENDMDL
MODEL 7
REMARK VINA RESULT:      -7.4      5.712      7.040
REMARK  Name = 
REMARK  7 active torsions:
REMARK  status: ('A' for Active; 'I' for Inactive)
REMARK    1  A    between atoms: C_2  and  C_3
REMARK    2  A    between atoms: C_6  and  C_7
REMARK    3  A    between atoms: C_10  and  C_11
REMARK    4  A    between atoms: C_11  and  C_12
REMARK    5  A    between atoms: C_12  and  C_13
REMARK    6  A    between atoms: C_12  and  N_15
REMARK    7  A    between atoms: C_16  and  C_18
REMARK                            x       y       z     vdW  Elec       q    Type
REMARK                         _______ _______ _______ _____ _____    ______ ____
ROOT
ATOM      1  C   UNL     1       6.993   4.571  17.417  0.00  0.00    +0.000 C 
ENDROOT
BRANCH   1   5
ATOM      2  C   UNL     1       8.352   8.593  18.422  0.00  0.00    +0.000 A 
ATOM      3  C   UNL     1       8.565   7.509  19.293  0.00  0.00    +0.000 A 
ATOM      4  C   UNL     1       8.135   6.212  18.974  0.00  0.00    +0.000 A 
ATOM      5  C   UNL     1       7.468   5.961  17.772  0.00  0.00    +0.000 A 
ATOM      6  C   UNL     1       7.226   7.030  16.906  0.00  0.00    +0.000 A 
ATOM      7  C   UNL     1       7.665   8.319  17.226  0.00  0.00    +0.000 A 
BRANCH   2  11
ATOM      8  C   UNL     1       9.969  12.524  19.204  0.00  0.00    +0.000 A 
ATOM      9  C   UNL     1      10.024  11.535  20.186  0.00  0.00    +0.000 A 
ATOM     10  C   UNL     1       9.479  10.268  19.939  0.00  0.00    +0.000 A 
ATOM     11  C   UNL     1       8.857   9.957  18.714  0.00  0.00    +0.000 A 
ATOM     12  C   UNL     1       8.782  10.990  17.758  0.00  0.00    +0.000 A 
ATOM     13  C   UNL     1       9.341  12.251  17.989  0.00  0.00    +0.000 A 
BRANCH   8  15
ATOM     14  N   UNL     1      11.029  14.851  19.620  0.00  0.00    +0.000 NA
ATOM     15  C   UNL     1      10.560  13.807  19.437  0.00  0.00    +0.000 C 
ENDBRANCH   8  15
ENDBRANCH   2  11
ENDBRANCH   1   5
BRANCH   1  16
ATOM     16  C   UNL     1       5.553   4.522  16.867  0.00  0.00    +0.000 C 
BRANCH  16  17
ATOM     17  N   UNL     1       4.783   3.478  17.545  0.00  0.00    +0.000 N 
ATOM     18  C   UNL     1       4.267   3.643  18.806  0.00  0.00    +0.000 C 
ATOM     19  O   UNL     1       4.414   4.691  19.431  0.00  0.00    +0.000 OA
ATOM     20  H   UNL     1       4.768   2.542  17.136  0.00  0.00    +0.000 HD
BRANCH  18  21
ATOM     21  C   UNL     1       3.614   2.396  19.453  0.00  0.00    +0.000 C 
ATOM     22  C   UNL     1       2.971   2.675  20.821  0.00  0.00    +0.000 C 
ATOM     23  O   UNL     1       1.810   3.520  20.681  0.00  0.00    +0.000 OA
ATOM     24  C   UNL     1       0.834   2.880  19.841  0.00  0.00    +0.000 C 
ATOM     25  C   UNL     1       1.408   2.592  18.444  0.00  0.00    +0.000 C 
ATOM     26  N   UNL     1       2.641   1.796  18.503  0.00  0.00    +0.000 NA
ATOM     27  H   UNL     1       3.075   1.746  17.578  0.00  0.00    +0.000 HD
ENDBRANCH  18  21
ENDBRANCH  16  17
BRANCH  16  28
ATOM     28  C   UNL     1       5.547   4.263  15.411  0.00  0.00    +0.000 C 
ATOM     29  N   UNL     1       5.505   4.052  14.269  0.00  0.00    +0.000 NA
ENDBRANCH  16  28
ENDBRANCH   1  16
TORSDOF 7
ENDMDL
MODEL 8
REMARK VINA RESULT:      -7.3      1.041      1.246
REMARK  Name = 
REMARK  7 active torsions:
REMARK  status: ('A' for Active; 'I' for Inactive)
REMARK    1  A    between atoms: C_2  and  C_3
REMARK    2  A    between atoms: C_6  and  C_7
REMARK    3  A    between atoms: C_10  and  C_11
REMARK    4  A    between atoms: C_11  and  C_12
REMARK    5  A    between atoms: C_12  and  C_13
REMARK    6  A    between atoms: C_12  and  N_15
REMARK    7  A    between atoms: C_16  and  C_18
REMARK                            x       y       z     vdW  Elec       q    Type
REMARK                         _______ _______ _______ _____ _____    ______ ____
ROOT
ATOM      1  C   UNL     1       3.628   6.780  18.709  0.00  0.00    +0.000 C 
ENDROOT
BRANCH   1   5
ATOM      2  C   UNL     1       0.408   9.680  19.210  0.00  0.00    +0.000 A 
ATOM      3  C   UNL     1       1.051   9.506  17.972  0.00  0.00    +0.000 A 
ATOM      4  C   UNL     1       2.083   8.572  17.803  0.00  0.00    +0.000 A 
ATOM      5  C   UNL     1       2.512   7.786  18.875  0.00  0.00    +0.000 A 
ATOM      6  C   UNL     1       1.902   7.962  20.119  0.00  0.00    +0.000 A 
ATOM      7  C   UNL     1       0.867   8.889  20.279  0.00  0.00    +0.000 A 
BRANCH   2  11
ATOM      8  C   UNL     1      -2.983  12.288  19.821  0.00  0.00    +0.000 A 
ATOM      9  C   UNL     1      -2.885  11.528  18.657  0.00  0.00    +0.000 A 
ATOM     10  C   UNL     1      -1.773  10.700  18.449  0.00  0.00    +0.000 A 
ATOM     11  C   UNL     1      -0.729  10.616  19.391  0.00  0.00    +0.000 A 
ATOM     12  C   UNL     1      -0.839  11.428  20.539  0.00  0.00    +0.000 A 
ATOM     13  C   UNL     1      -1.954  12.242  20.762  0.00  0.00    +0.000 A 
BRANCH   8  15
ATOM     14  N   UNL     1      -5.075  13.760  20.236  0.00  0.00    +0.000 NA
ATOM     15  C   UNL     1      -4.136  13.105  20.056  0.00  0.00    +0.000 C 
ENDBRANCH   8  15
ENDBRANCH   2  11
ENDBRANCH   1   5
BRANCH   1  16
ATOM     16  C   UNL     1       3.513   5.921  17.433  0.00  0.00    +0.000 C 
BRANCH  16  17
ATOM     17  N   UNL     1       3.348   4.510  17.782  0.00  0.00    +0.000 N 
ATOM     18  C   UNL     1       2.145   3.857  17.670  0.00  0.00    +0.000 C 
ATOM     19  O   UNL     1       1.138   4.428  17.256  0.00  0.00    +0.000 OA
ATOM     20  H   UNL     1       4.108   4.038  18.275  0.00  0.00    +0.000 HD
BRANCH  18  21
ATOM     21  C   UNL     1       2.090   2.412  18.226  0.00  0.00    +0.000 C 
ATOM     22  C   UNL     1       3.381   1.974  18.935  0.00  0.00    +0.000 C 
ATOM     23  O   UNL     1       3.566   2.707  20.164  0.00  0.00    +0.000 OA
ATOM     24  C   UNL     1       2.457   2.473  21.050  0.00  0.00    +0.000 C 
ATOM     25  C   UNL     1       1.132   2.911  20.407  0.00  0.00    +0.000 C 
ATOM     26  N   UNL     1       0.903   2.265  19.108  0.00  0.00    +0.000 NA
ATOM     27  H   UNL     1       0.095   2.683  18.641  0.00  0.00    +0.000 HD
ENDBRANCH  18  21
ENDBRANCH  16  17
BRANCH  16  28
ATOM     28  C   UNL     1       4.710   6.074  16.577  0.00  0.00    +0.000 C 
ATOM     29  N   UNL     1       5.646   6.231  15.907  0.00  0.00    +0.000 NA
ENDBRANCH  16  28
ENDBRANCH   1  16
TORSDOF 7
ENDMDL
MODEL 9
REMARK VINA RESULT:      -7.2      2.464      4.346
REMARK  Name = 
REMARK  7 active torsions:
REMARK  status: ('A' for Active; 'I' for Inactive)
REMARK    1  A    between atoms: C_2  and  C_3
REMARK    2  A    between atoms: C_6  and  C_7
REMARK    3  A    between atoms: C_10  and  C_11
REMARK    4  A    between atoms: C_11  and  C_12
REMARK    5  A    between atoms: C_12  and  C_13
REMARK    6  A    between atoms: C_12  and  N_15
REMARK    7  A    between atoms: C_16  and  C_18
REMARK                            x       y       z     vdW  Elec       q    Type
REMARK                         _______ _______ _______ _____ _____    ______ ____
ROOT
ATOM      1  C   UNL     1       2.819   7.491  17.652  0.00  0.00    +0.000 C 
ENDROOT
BRANCH   1   5
ATOM      2  C   UNL     1       0.200   9.845  20.228  0.00  0.00    +0.000 A 
ATOM      3  C   UNL     1       0.972   8.787  20.740  0.00  0.00    +0.000 A 
ATOM      4  C   UNL     1       1.821   8.030  19.918  0.00  0.00    +0.000 A 
ATOM      5  C   UNL     1       1.915   8.303  18.551  0.00  0.00    +0.000 A 
ATOM      6  C   UNL     1       1.136   9.334  18.020  0.00  0.00    +0.000 A 
ATOM      7  C   UNL     1       0.299  10.091  18.846  0.00  0.00    +0.000 A 
BRANCH   2  11
ATOM      8  C   UNL     1      -2.154  12.433  22.765  0.00  0.00    +0.000 A 
ATOM      9  C   UNL     1      -1.476  11.343  23.311  0.00  0.00    +0.000 A 
ATOM     10  C   UNL     1      -0.732  10.491  22.484  0.00  0.00    +0.000 A 
ATOM     11  C   UNL     1      -0.652  10.698  21.093  0.00  0.00    +0.000 A 
ATOM     12  C   UNL     1      -1.381  11.784  20.567  0.00  0.00    +0.000 A 
ATOM     13  C   UNL     1      -2.110  12.650  21.388  0.00  0.00    +0.000 A 
BRANCH   8  15
ATOM     14  N   UNL     1      -3.479  14.045  24.301  0.00  0.00    +0.000 NA
ATOM     15  C   UNL     1      -2.882  13.329  23.612  0.00  0.00    +0.000 C 
ENDBRANCH   8  15
ENDBRANCH   2  11
ENDBRANCH   1   5
BRANCH   1  16
ATOM     16  C   UNL     1       3.170   6.097  18.212  0.00  0.00    +0.000 C 
BRANCH  16  17
ATOM     17  N   UNL     1       4.477   5.663  17.717  0.00  0.00    +0.000 N 
ATOM     18  C   UNL     1       5.273   4.783  18.407  0.00  0.00    +0.000 C 
ATOM     19  O   UNL     1       4.920   4.300  19.481  0.00  0.00    +0.000 OA
ATOM     20  H   UNL     1       4.881   6.152  16.916  0.00  0.00    +0.000 HD
BRANCH  18  21
ATOM     21  C   UNL     1       6.693   4.542  17.836  0.00  0.00    +0.000 C 
ATOM     22  C   UNL     1       6.908   5.152  16.441  0.00  0.00    +0.000 C 
ATOM     23  O   UNL     1       6.906   6.594  16.505  0.00  0.00    +0.000 OA
ATOM     24  C   UNL     1       7.960   7.051  17.370  0.00  0.00    +0.000 C 
ATOM     25  C   UNL     1       7.791   6.492  18.793  0.00  0.00    +0.000 C 
ATOM     26  N   UNL     1       7.707   5.026  18.807  0.00  0.00    +0.000 NA
ATOM     27  H   UNL     1       7.450   4.695  19.741  0.00  0.00    +0.000 HD
ENDBRANCH  18  21
ENDBRANCH  16  17
BRANCH  16  28
ATOM     28  C   UNL     1       2.150   5.096  17.831  0.00  0.00    +0.000 C 
ATOM     29  N   UNL     1       1.369   4.301  17.502  0.00  0.00    +0.000 NA
ENDBRANCH  16  28
ENDBRANCH   1  16
TORSDOF 7
ENDMDL
