MODEL 1
REMARK VINA RESULT:      -7.2      0.000      0.000
REMARK  Name = 
REMARK  5 active torsions:
REMARK  status: ('A' for Active; 'I' for Inactive)
REMARK    1  A    between atoms: C_1  and  O_2
REMARK    2  A    between atoms: O_2  and  C_3
REMARK    3  A    between atoms: C_6  and  N_7
REMARK    4  A    between atoms: C_11  and  C_13
REMARK    5  A    between atoms: C_22  and  N_23
REMARK                            x       y       z     vdW  Elec       q    Type
REMARK                         _______ _______ _______ _____ _____    ______ ____
ROOT
ATOM      1  N   UNL     1       1.150   9.036  19.337  0.00  0.00    +0.000 N 
ATOM      2  C   UNL     1       1.519   8.276  20.554  0.00  0.00    +0.000 C 
ATOM      3  C   UNL     1       1.879   6.812  20.191  0.00  0.00    +0.000 C 
ATOM      4  N   UNL     1       2.813   6.728  19.056  0.00  0.00    +0.000 N 
ATOM      5  C   UNL     1       3.788   5.736  19.059  0.00  0.00    +0.000 C 
ATOM      6  O   UNL     1       3.874   4.894  19.949  0.00  0.00    +0.000 OA
ATOM      7  C   UNL     1       2.361   7.492  17.880  0.00  0.00    +0.000 C 
ATOM      8  C   UNL     1       2.161   8.966  18.269  0.00  0.00    +0.000 C 
ENDROOT
BRANCH   5   9
ATOM      9  C   UNL     1       4.799   5.687  17.967  0.00  0.00    +0.000 A 
ATOM     10  C   UNL     1       4.591   4.810  16.893  0.00  0.00    +0.000 A 
ATOM     11  C   UNL     1       5.515   4.745  15.846  0.00  0.00    +0.000 A 
ATOM     12  C   UNL     1       6.643   5.564  15.864  0.00  0.00    +0.000 A 
ATOM     13  C   UNL     1       6.860   6.406  16.948  0.00  0.00    +0.000 A 
ATOM     14  F   UNL     1       7.939   7.200  16.965  0.00  0.00    +0.000 F 
ATOM     15  C   UNL     1       5.974   6.445  18.016  0.00  0.00    +0.000 A 
ENDBRANCH   5   9
BRANCH   1  19
ATOM     16  C   UNL     1      -2.211  11.639  19.103  0.00  0.00    +0.000 A 
ATOM     17  C   UNL     1      -1.991  10.636  18.163  0.00  0.00    +0.000 A 
ATOM     18  C   UNL     1      -0.878   9.782  18.265  0.00  0.00    +0.000 A 
ATOM     19  C   UNL     1       0.066   9.890  19.298  0.00  0.00    +0.000 A 
ATOM     20  C   UNL     1      -0.209  10.909  20.239  0.00  0.00    +0.000 A 
ATOM     21  C   UNL     1      -1.315  11.773  20.151  0.00  0.00    +0.000 A 
BRANCH  20  22
ATOM     22  N   UNL     1       0.686  11.201  21.338  0.00  0.00    +0.000 N 
ATOM     23  O   UNL     1       1.655  11.939  21.117  0.00  0.00    +0.000 OA
ATOM     24  O   UNL     1       0.389  10.722  22.444  0.00  0.00    +0.000 OA
ENDBRANCH  20  22
BRANCH  16  26
ATOM     25  C   UNL     1      -4.414  11.788  18.239  0.00  0.00    +0.000 C 
ATOM     26  O   UNL     1      -3.315  12.414  18.898  0.00  0.00    +0.000 OA
ENDBRANCH  16  26
ENDBRANCH   1  19
TORSDOF 4
ENDMDL
MODEL 2
REMARK VINA RESULT:      -7.2      2.878      8.378
REMARK  Name = 
REMARK  5 active torsions:
REMARK  status: ('A' for Active; 'I' for Inactive)
REMARK    1  A    between atoms: C_1  and  O_2
REMARK    2  A    between atoms: O_2  and  C_3
REMARK    3  A    between atoms: C_6  and  N_7
REMARK    4  A    between atoms: C_11  and  C_13
REMARK    5  A    between atoms: C_22  and  N_23
REMARK                            x       y       z     vdW  Elec       q    Type
REMARK                         _______ _______ _______ _____ _____    ______ ____
ROOT
ATOM      1  N   UNL     1       2.559   6.760  18.488  0.00  0.00    +0.000 N 
ATOM      2  C   UNL     1       2.052   6.324  19.809  0.00  0.00    +0.000 C 
ATOM      3  C   UNL     1       1.967   7.528  20.783  0.00  0.00    +0.000 C 
ATOM      4  N   UNL     1       1.303   8.693  20.178  0.00  0.00    +0.000 N 
ATOM      5  C   UNL     1       0.485   9.490  20.972  0.00  0.00    +0.000 C 
ATOM      6  O   UNL     1       0.330   9.288  22.175  0.00  0.00    +0.000 OA
ATOM      7  C   UNL     1       1.881   9.076  18.878  0.00  0.00    +0.000 C 
ATOM      8  C   UNL     1       1.804   7.885  17.909  0.00  0.00    +0.000 C 
ENDROOT
BRANCH   5   9
ATOM      9  C   UNL     1      -0.267  10.621  20.364  0.00  0.00    +0.000 A 
ATOM     10  C   UNL     1      -0.145  11.898  20.931  0.00  0.00    +0.000 A 
ATOM     11  C   UNL     1      -0.829  12.984  20.379  0.00  0.00    +0.000 A 
ATOM     12  C   UNL     1      -1.629  12.800  19.251  0.00  0.00    +0.000 A 
ATOM     13  C   UNL     1      -1.773  11.526  18.715  0.00  0.00    +0.000 A 
ATOM     14  F   UNL     1      -2.534  11.347  17.628  0.00  0.00    +0.000 F 
ATOM     15  C   UNL     1      -1.136  10.432  19.283  0.00  0.00    +0.000 A 
ENDBRANCH   5   9
BRANCH   1  19
ATOM     16  C   UNL     1       5.530   4.655  16.282  0.00  0.00    +0.000 A 
ATOM     17  C   UNL     1       5.648   6.013  16.564  0.00  0.00    +0.000 A 
ATOM     18  C   UNL     1       4.658   6.687  17.302  0.00  0.00    +0.000 A 
ATOM     19  C   UNL     1       3.508   6.045  17.785  0.00  0.00    +0.000 A 
ATOM     20  C   UNL     1       3.440   4.663  17.491  0.00  0.00    +0.000 A 
ATOM     21  C   UNL     1       4.419   3.975  16.752  0.00  0.00    +0.000 A 
BRANCH  20  22
ATOM     22  N   UNL     1       2.299   3.854  17.861  0.00  0.00    +0.000 N 
ATOM     23  O   UNL     1       1.240   4.026  17.243  0.00  0.00    +0.000 OA
ATOM     24  O   UNL     1       2.478   3.006  18.751  0.00  0.00    +0.000 OA
ENDBRANCH  20  22
BRANCH  16  26
ATOM     25  C   UNL     1       6.303   3.949  14.153  0.00  0.00    +0.000 C 
ATOM     26  O   UNL     1       6.544   4.110  15.550  0.00  0.00    +0.000 OA
ENDBRANCH  16  26
ENDBRANCH   1  19
TORSDOF 4
ENDMDL
MODEL 3
REMARK VINA RESULT:      -7.1      0.932      1.326
REMARK  Name = 
REMARK  5 active torsions:
REMARK  status: ('A' for Active; 'I' for Inactive)
REMARK    1  A    between atoms: C_1  and  O_2
REMARK    2  A    between atoms: O_2  and  C_3
REMARK    3  A    between atoms: C_6  and  N_7
REMARK    4  A    between atoms: C_11  and  C_13
REMARK    5  A    between atoms: C_22  and  N_23
REMARK                            x       y       z     vdW  Elec       q    Type
REMARK                         _______ _______ _______ _____ _____    ______ ____
ROOT
ATOM      1  N   UNL     1       1.281   8.973  19.228  0.00  0.00    +0.000 N 
ATOM      2  C   UNL     1       1.650   8.224  20.451  0.00  0.00    +0.000 C 
ATOM      3  C   UNL     1       1.999   6.753  20.103  0.00  0.00    +0.000 C 
ATOM      4  N   UNL     1       2.927   6.651  18.966  0.00  0.00    +0.000 N 
ATOM      5  C   UNL     1       3.896   5.653  18.975  0.00  0.00    +0.000 C 
ATOM      6  O   UNL     1       3.980   4.820  19.874  0.00  0.00    +0.000 OA
ATOM      7  C   UNL     1       2.476   7.405  17.783  0.00  0.00    +0.000 C 
ATOM      8  C   UNL     1       2.287   8.885  18.157  0.00  0.00    +0.000 C 
ENDROOT
BRANCH   5   9
ATOM      9  C   UNL     1       4.902   5.585  17.880  0.00  0.00    +0.000 A 
ATOM     10  C   UNL     1       6.093   6.313  18.011  0.00  0.00    +0.000 A 
ATOM     11  C   UNL     1       7.064   6.264  17.006  0.00  0.00    +0.000 A 
ATOM     12  C   UNL     1       6.852   5.478  15.874  0.00  0.00    +0.000 A 
ATOM     13  C   UNL     1       5.655   4.786  15.736  0.00  0.00    +0.000 A 
ATOM     14  F   UNL     1       5.452   4.024  14.653  0.00  0.00    +0.000 F 
ATOM     15  C   UNL     1       4.664   4.864  16.704  0.00  0.00    +0.000 A 
ENDBRANCH   5   9
BRANCH   1  19
ATOM     16  C   UNL     1      -2.060  11.601  18.978  0.00  0.00    +0.000 A 
ATOM     17  C   UNL     1      -1.819  10.624  18.016  0.00  0.00    +0.000 A 
ATOM     18  C   UNL     1      -0.713   9.761  18.123  0.00  0.00    +0.000 A 
ATOM     19  C   UNL     1       0.203   9.834  19.184  0.00  0.00    +0.000 A 
ATOM     20  C   UNL     1      -0.093  10.828  20.146  0.00  0.00    +0.000 A 
ATOM     21  C   UNL     1      -1.192  11.700  20.053  0.00  0.00    +0.000 A 
BRANCH  20  22
ATOM     22  N   UNL     1       0.774  11.083  21.276  0.00  0.00    +0.000 N 
ATOM     23  O   UNL     1       1.739  11.840  21.109  0.00  0.00    +0.000 OA
ATOM     24  O   UNL     1       0.456  10.556  22.355  0.00  0.00    +0.000 OA
ENDBRANCH  20  22
BRANCH  16  26
ATOM     25  C   UNL     1      -4.390  11.708  18.551  0.00  0.00    +0.000 C 
ATOM     26  O   UNL     1      -3.154  12.387  18.765  0.00  0.00    +0.000 OA
ENDBRANCH  16  26
ENDBRANCH   1  19
TORSDOF 4
ENDMDL
MODEL 4
REMARK VINA RESULT:      -7.1      2.889      8.355
REMARK  Name = 
REMARK  5 active torsions:
REMARK  status: ('A' for Active; 'I' for Inactive)
REMARK    1  A    between atoms: C_1  and  O_2
REMARK    2  A    between atoms: O_2  and  C_3
REMARK    3  A    between atoms: C_6  and  N_7
REMARK    4  A    between atoms: C_11  and  C_13
REMARK    5  A    between atoms: C_22  and  N_23
REMARK                            x       y       z     vdW  Elec       q    Type
REMARK                         _______ _______ _______ _____ _____    ______ ____
ROOT
ATOM      1  N   UNL     1       2.586   6.753  18.415  0.00  0.00    +0.000 N 
ATOM      2  C   UNL     1       2.077   6.382  19.755  0.00  0.00    +0.000 C 
ATOM      3  C   UNL     1       1.958   7.637  20.658  0.00  0.00    +0.000 C 
ATOM      4  N   UNL     1       1.275   8.752  19.982  0.00  0.00    +0.000 N 
ATOM      5  C   UNL     1       0.433   9.575  20.723  0.00  0.00    +0.000 C 
ATOM      6  O   UNL     1       0.271   9.439  21.934  0.00  0.00    +0.000 OA
ATOM      7  C   UNL     1       1.857   9.073  18.667  0.00  0.00    +0.000 C 
ATOM      8  C   UNL     1       1.814   7.827  17.768  0.00  0.00    +0.000 C 
ENDROOT
BRANCH   5   9
ATOM      9  C   UNL     1      -0.337  10.653  20.045  0.00  0.00    +0.000 A 
ATOM     10  C   UNL     1      -1.245  10.302  19.035  0.00  0.00    +0.000 A 
ATOM     11  C   UNL     1      -1.992  11.288  18.384  0.00  0.00    +0.000 A 
ATOM     12  C   UNL     1      -1.843  12.626  18.749  0.00  0.00    +0.000 A 
ATOM     13  C   UNL     1      -0.917  12.969  19.726  0.00  0.00    +0.000 A 
ATOM     14  F   UNL     1      -0.777  14.253  20.085  0.00  0.00    +0.000 F 
ATOM     15  C   UNL     1      -0.136  12.005  20.347  0.00  0.00    +0.000 A 
ENDBRANCH   5   9
BRANCH   1  19
ATOM     16  C   UNL     1       5.624   4.591  16.360  0.00  0.00    +0.000 A 
ATOM     17  C   UNL     1       5.729   5.958  16.599  0.00  0.00    +0.000 A 
ATOM     18  C   UNL     1       4.716   6.651  17.287  0.00  0.00    +0.000 A 
ATOM     19  C   UNL     1       3.557   6.020  17.762  0.00  0.00    +0.000 A 
ATOM     20  C   UNL     1       3.503   4.628  17.514  0.00  0.00    +0.000 A 
ATOM     21  C   UNL     1       4.504   3.921  16.824  0.00  0.00    +0.000 A 
BRANCH  20  22
ATOM     22  N   UNL     1       2.356   3.827  17.881  0.00  0.00    +0.000 N 
ATOM     23  O   UNL     1       1.308   3.984  17.242  0.00  0.00    +0.000 OA
ATOM     24  O   UNL     1       2.521   2.997  18.791  0.00  0.00    +0.000 OA
ENDBRANCH  20  22
BRANCH  16  26
ATOM     25  C   UNL     1       6.955   4.589  14.397  0.00  0.00    +0.000 C 
ATOM     26  O   UNL     1       6.659   4.027  15.674  0.00  0.00    +0.000 OA
ENDBRANCH  16  26
ENDBRANCH   1  19
TORSDOF 4
ENDMDL
MODEL 5
REMARK VINA RESULT:      -7.0      2.479      3.287
REMARK  Name = 
REMARK  5 active torsions:
REMARK  status: ('A' for Active; 'I' for Inactive)
REMARK    1  A    between atoms: C_1  and  O_2
REMARK    2  A    between atoms: O_2  and  C_3
REMARK    3  A    between atoms: C_6  and  N_7
REMARK    4  A    between atoms: C_11  and  C_13
REMARK    5  A    between atoms: C_22  and  N_23
REMARK                            x       y       z     vdW  Elec       q    Type
REMARK                         _______ _______ _______ _____ _____    ______ ____
ROOT
ATOM      1  N   UNL     1       2.153   7.180  19.908  0.00  0.00    +0.000 N 
ATOM      2  C   UNL     1       1.954   5.787  20.368  0.00  0.00    +0.000 C 
ATOM      3  C   UNL     1       1.949   4.811  19.163  0.00  0.00    +0.000 C 
ATOM      4  N   UNL     1       3.077   5.046  18.247  0.00  0.00    +0.000 N 
ATOM      5  C   UNL     1       3.683   3.955  17.631  0.00  0.00    +0.000 C 
ATOM      6  O   UNL     1       3.284   2.803  17.784  0.00  0.00    +0.000 OA
ATOM      7  C   UNL     1       3.190   6.451  17.818  0.00  0.00    +0.000 C 
ATOM      8  C   UNL     1       3.338   7.355  19.053  0.00  0.00    +0.000 C 
ENDROOT
BRANCH   5   9
ATOM      9  C   UNL     1       4.881   4.159  16.772  0.00  0.00    +0.000 A 
ATOM     10  C   UNL     1       6.085   4.553  17.372  0.00  0.00    +0.000 A 
ATOM     11  C   UNL     1       7.232   4.743  16.596  0.00  0.00    +0.000 A 
ATOM     12  C   UNL     1       7.181   4.528  15.219  0.00  0.00    +0.000 A 
ATOM     13  C   UNL     1       5.976   4.172  14.626  0.00  0.00    +0.000 A 
ATOM     14  F   UNL     1       5.926   3.957  13.305  0.00  0.00    +0.000 F 
ATOM     15  C   UNL     1       4.820   4.025  15.380  0.00  0.00    +0.000 A 
ENDBRANCH   5   9
BRANCH   1  19
ATOM     16  C   UNL     1      -0.152  10.371  21.532  0.00  0.00    +0.000 A 
ATOM     17  C   UNL     1       0.235   9.277  22.302  0.00  0.00    +0.000 A 
ATOM     18  C   UNL     1       1.003   8.238  21.746  0.00  0.00    +0.000 A 
ATOM     19  C   UNL     1       1.416   8.236  20.405  0.00  0.00    +0.000 A 
ATOM     20  C   UNL     1       1.016   9.376  19.668  0.00  0.00    +0.000 A 
ATOM     21  C   UNL     1       0.246  10.422  20.207  0.00  0.00    +0.000 A 
BRANCH  20  22
ATOM     22  N   UNL     1       1.303   9.516  18.257  0.00  0.00    +0.000 N 
ATOM     23  O   UNL     1       0.605   8.882  17.456  0.00  0.00    +0.000 OA
ATOM     24  O   UNL     1       2.209  10.307  17.946  0.00  0.00    +0.000 OA
ENDBRANCH  20  22
BRANCH  16  26
ATOM     25  C   UNL     1      -0.562  12.673  21.925  0.00  0.00    +0.000 C 
ATOM     26  O   UNL     1      -0.904  11.311  22.173  0.00  0.00    +0.000 OA
ENDBRANCH  16  26
ENDBRANCH   1  19
TORSDOF 4
ENDMDL
MODEL 6
REMARK VINA RESULT:      -6.9      2.186      2.824
REMARK  Name = 
REMARK  5 active torsions:
REMARK  status: ('A' for Active; 'I' for Inactive)
REMARK    1  A    between atoms: C_1  and  O_2
REMARK    2  A    between atoms: O_2  and  C_3
REMARK    3  A    between atoms: C_6  and  N_7
REMARK    4  A    between atoms: C_11  and  C_13
REMARK    5  A    between atoms: C_22  and  N_23
REMARK                            x       y       z     vdW  Elec       q    Type
REMARK                         _______ _______ _______ _____ _____    ______ ____
ROOT
ATOM      1  N   UNL     1       1.812   7.454  20.173  0.00  0.00    +0.000 N 
ATOM      2  C   UNL     1       1.577   6.110  20.750  0.00  0.00    +0.000 C 
ATOM      3  C   UNL     1       1.638   5.025  19.644  0.00  0.00    +0.000 C 
ATOM      4  N   UNL     1       2.821   5.171  18.780  0.00  0.00    +0.000 N 
ATOM      5  C   UNL     1       3.456   4.027  18.308  0.00  0.00    +0.000 C 
ATOM      6  O   UNL     1       3.041   2.894  18.545  0.00  0.00    +0.000 OA
ATOM      7  C   UNL     1       2.969   6.530  18.228  0.00  0.00    +0.000 C 
ATOM      8  C   UNL     1       3.048   7.546  19.379  0.00  0.00    +0.000 C 
ENDROOT
BRANCH   5   9
ATOM      9  C   UNL     1       4.704   4.147  17.507  0.00  0.00    +0.000 A 
ATOM     10  C   UNL     1       4.632   3.997  16.115  0.00  0.00    +0.000 A 
ATOM     11  C   UNL     1       5.783   4.114  15.331  0.00  0.00    +0.000 A 
ATOM     12  C   UNL     1       7.009   4.392  15.936  0.00  0.00    +0.000 A 
ATOM     13  C   UNL     1       7.079   4.505  17.319  0.00  0.00    +0.000 A 
ATOM     14  F   UNL     1       8.254   4.780  17.902  0.00  0.00    +0.000 F 
ATOM     15  C   UNL     1       5.951   4.345  18.111  0.00  0.00    +0.000 A 
ENDBRANCH   5   9
BRANCH   1  19
ATOM     16  C   UNL     1      -0.569  10.784  21.344  0.00  0.00    +0.000 A 
ATOM     17  C   UNL     1      -0.275   9.745  22.223  0.00  0.00    +0.000 A 
ATOM     18  C   UNL     1       0.521   8.659  21.817  0.00  0.00    +0.000 A 
ATOM     19  C   UNL     1       1.053   8.553  20.523  0.00  0.00    +0.000 A 
ATOM     20  C   UNL     1       0.744   9.640  19.671  0.00  0.00    +0.000 A 
ATOM     21  C   UNL     1      -0.052  10.732  20.061  0.00  0.00    +0.000 A 
BRANCH  20  22
ATOM     22  N   UNL     1       1.160   9.672  18.286  0.00  0.00    +0.000 N 
ATOM     23  O   UNL     1       0.502   9.020  17.466  0.00  0.00    +0.000 OA
ATOM     24  O   UNL     1       2.131  10.396  18.011  0.00  0.00    +0.000 OA
ENDBRANCH  20  22
BRANCH  16  26
ATOM     25  C   UNL     1      -1.849  11.592  23.169  0.00  0.00    +0.000 C 
ATOM     26  O   UNL     1      -1.358  11.778  21.843  0.00  0.00    +0.000 OA
ENDBRANCH  16  26
ENDBRANCH   1  19
TORSDOF 4
ENDMDL
MODEL 7
REMARK VINA RESULT:      -6.8      1.480      1.777
REMARK  Name = 
REMARK  5 active torsions:
REMARK  status: ('A' for Active; 'I' for Inactive)
REMARK    1  A    between atoms: C_1  and  O_2
REMARK    2  A    between atoms: O_2  and  C_3
REMARK    3  A    between atoms: C_6  and  N_7
REMARK    4  A    between atoms: C_11  and  C_13
REMARK    5  A    between atoms: C_22  and  N_23
REMARK                            x       y       z     vdW  Elec       q    Type
REMARK                         _______ _______ _______ _____ _____    ______ ____
ROOT
ATOM      1  N   UNL     1       1.594   8.228  19.632  0.00  0.00    +0.000 N 
ATOM      2  C   UNL     1       1.672   7.252  20.743  0.00  0.00    +0.000 C 
ATOM      3  C   UNL     1       1.920   5.823  20.194  0.00  0.00    +0.000 C 
ATOM      4  N   UNL     1       3.011   5.782  19.207  0.00  0.00    +0.000 N 
ATOM      5  C   UNL     1       3.855   4.677  19.181  0.00  0.00    +0.000 C 
ATOM      6  O   UNL     1       3.700   3.708  19.920  0.00  0.00    +0.000 OA
ATOM      7  C   UNL     1       2.845   6.768  18.123  0.00  0.00    +0.000 C 
ATOM      8  C   UNL     1       2.751   8.180  18.723  0.00  0.00    +0.000 C 
ENDROOT
BRANCH   5   9
ATOM      9  C   UNL     1       5.018   4.653  18.253  0.00  0.00    +0.000 A 
ATOM     10  C   UNL     1       6.222   5.245  18.662  0.00  0.00    +0.000 A 
ATOM     11  C   UNL     1       7.337   5.231  17.819  0.00  0.00    +0.000 A 
ATOM     12  C   UNL     1       7.256   4.617  16.570  0.00  0.00    +0.000 A 
ATOM     13  C   UNL     1       6.050   4.063  16.157  0.00  0.00    +0.000 A 
ATOM     14  F   UNL     1       5.970   3.465  14.961  0.00  0.00    +0.000 F 
ATOM     15  C   UNL     1       4.923   4.112  16.965  0.00  0.00    +0.000 A 
ENDBRANCH   5   9
BRANCH   1  19
ATOM     16  C   UNL     1      -1.345  11.297  19.367  0.00  0.00    +0.000 A 
ATOM     17  C   UNL     1      -0.834  10.668  18.235  0.00  0.00    +0.000 A 
ATOM     18  C   UNL     1       0.130   9.651  18.347  0.00  0.00    +0.000 A 
ATOM     19  C   UNL     1       0.633   9.218  19.583  0.00  0.00    +0.000 A 
ATOM     20  C   UNL     1       0.072   9.872  20.705  0.00  0.00    +0.000 A 
ATOM     21  C   UNL     1      -0.891  10.893  20.611  0.00  0.00    +0.000 A 
BRANCH  20  22
ATOM     22  N   UNL     1       0.513   9.594  22.055  0.00  0.00    +0.000 N 
ATOM     23  O   UNL     1       1.650   9.958  22.381  0.00  0.00    +0.000 OA
ATOM     24  O   UNL     1      -0.307   9.046  22.810  0.00  0.00    +0.000 OA
ENDBRANCH  20  22
BRANCH  16  26
ATOM     25  C   UNL     1      -3.541  11.848  18.662  0.00  0.00    +0.000 C 
ATOM     26  O   UNL     1      -2.266  12.276  19.138  0.00  0.00    +0.000 OA
ENDBRANCH  16  26
ENDBRANCH   1  19
TORSDOF 4
ENDMDL
MODEL 8
REMARK VINA RESULT:      -6.7      3.216      4.570
REMARK  Name = 
REMARK  5 active torsions:
REMARK  status: ('A' for Active; 'I' for Inactive)
REMARK    1  A    between atoms: C_1  and  O_2
REMARK    2  A    between atoms: O_2  and  C_3
REMARK    3  A    between atoms: C_6  and  N_7
REMARK    4  A    between atoms: C_11  and  C_13
REMARK    5  A    between atoms: C_22  and  N_23
REMARK                            x       y       z     vdW  Elec       q    Type
REMARK                         _______ _______ _______ _____ _____    ______ ____
ROOT
ATOM      1  N   UNL     1       0.912  10.198  19.248  0.00  0.00    +0.000 N 
ATOM      2  C   UNL     1       1.505   9.901  17.923  0.00  0.00    +0.000 C 
ATOM      3  C   UNL     1       2.627   8.839  18.056  0.00  0.00    +0.000 C 
ATOM      4  N   UNL     1       2.211   7.680  18.863  0.00  0.00    +0.000 N 
ATOM      5  C   UNL     1       2.661   6.414  18.505  0.00  0.00    +0.000 C 
ATOM      6  O   UNL     1       3.432   6.225  17.567  0.00  0.00    +0.000 OA
ATOM      7  C   UNL     1       1.655   8.061  20.174  0.00  0.00    +0.000 C 
ATOM      8  C   UNL     1       0.455   8.999  19.971  0.00  0.00    +0.000 C 
ENDROOT
BRANCH   5   9
ATOM      9  C   UNL     1       2.183   5.218  19.252  0.00  0.00    +0.000 A 
ATOM     10  C   UNL     1       2.517   5.090  20.608  0.00  0.00    +0.000 A 
ATOM     11  C   UNL     1       2.077   3.984  21.342  0.00  0.00    +0.000 A 
ATOM     12  C   UNL     1       1.292   3.011  20.725  0.00  0.00    +0.000 A 
ATOM     13  C   UNL     1       0.994   3.127  19.373  0.00  0.00    +0.000 A 
ATOM     14  F   UNL     1       0.233   2.197  18.780  0.00  0.00    +0.000 F 
ATOM     15  C   UNL     1       1.464   4.195  18.623  0.00  0.00    +0.000 A 
ENDBRANCH   5   9
BRANCH   1  19
ATOM     16  C   UNL     1       0.128  14.154  20.612  0.00  0.00    +0.000 A 
ATOM     17  C   UNL     1       1.280  13.464  20.981  0.00  0.00    +0.000 A 
ATOM     18  C   UNL     1       1.522  12.160  20.511  0.00  0.00    +0.000 A 
ATOM     19  C   UNL     1       0.632  11.484  19.662  0.00  0.00    +0.000 A 
ATOM     20  C   UNL     1      -0.513  12.231  19.299  0.00  0.00    +0.000 A 
ATOM     21  C   UNL     1      -0.772  13.534  19.762  0.00  0.00    +0.000 A 
BRANCH  20  22
ATOM     22  N   UNL     1      -1.565  11.672  18.478  0.00  0.00    +0.000 N 
ATOM     23  O   UNL     1      -1.541  11.907  17.263  0.00  0.00    +0.000 OA
ATOM     24  O   UNL     1      -2.399  10.953  19.051  0.00  0.00    +0.000 OA
ENDBRANCH  20  22
BRANCH  16  26
ATOM     25  C   UNL     1       0.684  15.660  22.357  0.00  0.00    +0.000 C 
ATOM     26  O   UNL     1      -0.007  15.406  21.136  0.00  0.00    +0.000 OA
ENDBRANCH  16  26
ENDBRANCH   1  19
TORSDOF 4
ENDMDL
MODEL 9
REMARK VINA RESULT:      -6.7      1.493      1.537
REMARK  Name = 
REMARK  5 active torsions:
REMARK  status: ('A' for Active; 'I' for Inactive)
REMARK    1  A    between atoms: C_1  and  O_2
REMARK    2  A    between atoms: O_2  and  C_3
REMARK    3  A    between atoms: C_6  and  N_7
REMARK    4  A    between atoms: C_11  and  C_13
REMARK    5  A    between atoms: C_22  and  N_23
REMARK                            x       y       z     vdW  Elec       q    Type
REMARK                         _______ _______ _______ _____ _____    ______ ____
ROOT
ATOM      1  N   UNL     1       1.501   8.201  19.814  0.00  0.00    +0.000 N 
ATOM      2  C   UNL     1       1.471   7.134  20.841  0.00  0.00    +0.000 C 
ATOM      3  C   UNL     1       1.590   5.737  20.177  0.00  0.00    +0.000 C 
ATOM      4  N   UNL     1       2.686   5.674  19.196  0.00  0.00    +0.000 N 
ATOM      5  C   UNL     1       3.423   4.499  19.085  0.00  0.00    +0.000 C 
ATOM      6  O   UNL     1       3.166   3.492  19.740  0.00  0.00    +0.000 OA
ATOM      7  C   UNL     1       2.630   6.756  18.197  0.00  0.00    +0.000 C 
ATOM      8  C   UNL     1       2.661   8.117  18.911  0.00  0.00    +0.000 C 
ENDROOT
BRANCH   5   9
ATOM      9  C   UNL     1       4.591   4.440  18.165  0.00  0.00    +0.000 A 
ATOM     10  C   UNL     1       4.390   4.017  16.843  0.00  0.00    +0.000 A 
ATOM     11  C   UNL     1       5.464   3.960  15.949  0.00  0.00    +0.000 A 
ATOM     12  C   UNL     1       6.738   4.336  16.371  0.00  0.00    +0.000 A 
ATOM     13  C   UNL     1       6.936   4.721  17.691  0.00  0.00    +0.000 A 
ATOM     14  F   UNL     1       8.158   5.091  18.097  0.00  0.00    +0.000 F 
ATOM     15  C   UNL     1       5.888   4.737  18.600  0.00  0.00    +0.000 A 
ENDBRANCH   5   9
BRANCH   1  19
ATOM     16  C   UNL     1      -1.138  11.542  19.783  0.00  0.00    +0.000 A 
ATOM     17  C   UNL     1      -0.748  10.901  18.609  0.00  0.00    +0.000 A 
ATOM     18  C   UNL     1       0.118   9.794  18.644  0.00  0.00    +0.000 A 
ATOM     19  C   UNL     1       0.639   9.278  19.841  0.00  0.00    +0.000 A 
ATOM     20  C   UNL     1       0.201   9.948  21.008  0.00  0.00    +0.000 A 
ATOM     21  C   UNL     1      -0.663  11.058  20.990  0.00  0.00    +0.000 A 
BRANCH  20  22
ATOM     22  N   UNL     1       0.681   9.590  22.324  0.00  0.00    +0.000 N 
ATOM     23  O   UNL     1       1.889   9.722  22.559  0.00  0.00    +0.000 OA
ATOM     24  O   UNL     1      -0.171   9.215  23.147  0.00  0.00    +0.000 OA
ENDBRANCH  20  22
BRANCH  16  26
ATOM     25  C   UNL     1      -3.038  12.724  20.567  0.00  0.00    +0.000 C 
ATOM     26  O   UNL     1      -1.971  12.610  19.627  0.00  0.00    +0.000 OA
ENDBRANCH  16  26
ENDBRANCH   1  19
TORSDOF 4
ENDMDL
