MODEL 1
REMARK VINA RESULT:      -9.0      0.000      0.000
REMARK  Name = 
REMARK  8 active torsions:
REMARK  status: ('A' for Active; 'I' for Inactive)
REMARK    1  A    between atoms: C_1  and  O_2
REMARK    2  A    between atoms: O_2  and  C_3
REMARK    3  A    between atoms: C_7  and  N_8
REMARK    4  A    between atoms: N_8  and  C_9
REMARK    5  A    between atoms: C_9  and  N_11
REMARK    6  A    between atoms: N_14  and  C_15
REMARK    7  A    between atoms: N_25  and  C_26
REMARK    8  A    between atoms: C_26  and  C_27
REMARK                            x       y       z     vdW  Elec       q    Type
REMARK                         _______ _______ _______ _____ _____    ______ ____
ROOT
ATOM      1  C   UNL     1       2.075   7.906  19.692  0.00  0.00    +0.000 A 
ATOM      2  C   UNL     1       2.255   8.458  18.401  0.00  0.00    +0.000 A 
ATOM      3  C   UNL     1       1.645   9.688  18.022  0.00  0.00    +0.000 A 
ATOM      4  C   UNL     1       0.854  10.340  18.957  0.00  0.00    +0.000 A 
ATOM      5  C   UNL     1       0.782   9.782  20.239  0.00  0.00    +0.000 A 
ATOM      6  C   UNL     1       1.372   8.606  20.651  0.00  0.00    +0.000 A 
ATOM      7  C   UNL     1      -0.268  10.475  20.938  0.00  0.00    +0.000 C 
ATOM      8  O   UNL     1      -0.362  10.657  22.125  0.00  0.00    +0.000 OA
ATOM      9  C   UNL     1      -1.094  11.096  19.815  0.00  0.00    +0.000 C 
ATOM     10  O   UNL     1      -2.250  11.442  19.932  0.00  0.00    +0.000 OA
ATOM     11  N   UNL     1      -0.209  11.278  18.715  0.00  0.00    +0.000 N 
ENDROOT
BRANCH   1  15
ATOM     12  N   UNL     1       3.028   4.391  19.762  0.00  0.00    +0.000 N 
ATOM     13  C   UNL     1       2.641   5.566  19.153  0.00  0.00    +0.000 C 
ATOM     14  O   UNL     1       2.490   5.661  17.925  0.00  0.00    +0.000 OA
ATOM     15  N   UNL     1       2.473   6.593  20.044  0.00  0.00    +0.000 N 
ATOM     16  H   UNL     1       2.795   4.251  20.736  0.00  0.00    +0.000 HD
ATOM     17  H   UNL     1       2.974   6.492  20.918  0.00  0.00    +0.000 HD
BRANCH  12  18
ATOM     18  C   UNL     1       3.756   3.363  19.189  0.00  0.00    +0.000 C 
ATOM     19  S   UNL     1       2.907   2.060  18.576  0.00  0.00    +0.000 S 
BRANCH  18  20
ATOM     20  N   UNL     1       5.116   3.560  19.190  0.00  0.00    +0.000 N 
ATOM     21  H   UNL     1       5.623   2.957  19.840  0.00  0.00    +0.000 HD
BRANCH  20  26
ATOM     22  C   UNL     1       6.421   5.614  16.423  0.00  0.00    +0.000 A 
ATOM     23  C   UNL     1       7.289   6.473  17.097  0.00  0.00    +0.000 A 
ATOM     24  C   UNL     1       7.466   6.355  18.475  0.00  0.00    +0.000 A 
ATOM     25  C   UNL     1       6.782   5.366  19.182  0.00  0.00    +0.000 A 
ATOM     26  C   UNL     1       5.900   4.515  18.518  0.00  0.00    +0.000 A 
ATOM     27  C   UNL     1       5.691   4.669  17.141  0.00  0.00    +0.000 A 
BRANCH  22  29
ATOM     28  C   UNL     1       6.933   4.786  14.276  0.00  0.00    +0.000 C 
ATOM     29  O   UNL     1       6.335   5.808  15.070  0.00  0.00    +0.000 OA
ENDBRANCH  22  29
ENDBRANCH  20  26
ENDBRANCH  18  20
ENDBRANCH  12  18
ENDBRANCH   1  15
BRANCH  11  30
ATOM     30  C   UNL     1       0.088  12.716  18.689  0.00  0.00    +0.000 C 
BRANCH  30  31
ATOM     31  C   UNL     1       1.458  13.276  18.964  0.00  0.00    +0.000 A 
ATOM     32  C   UNL     1       2.466  13.375  17.999  0.00  0.00    +0.000 A 
ATOM     33  C   UNL     1       3.624  14.120  18.261  0.00  0.00    +0.000 A 
ATOM     34  C   UNL     1       3.789  14.785  19.479  0.00  0.00    +0.000 A 
ATOM     35  C   UNL     1       2.810  14.682  20.457  0.00  0.00    +0.000 A 
ATOM     36  C   UNL     1       1.663  13.931  20.208  0.00  0.00    +0.000 A 
ATOM     37 CL   UNL     1       0.463  13.913  21.461  0.00  0.00    +0.000 Cl
ENDBRANCH  30  31
ENDBRANCH  11  30
TORSDOF 7
ENDMDL
MODEL 2
REMARK VINA RESULT:      -8.9      0.837      1.425
REMARK  Name = 
REMARK  8 active torsions:
REMARK  status: ('A' for Active; 'I' for Inactive)
REMARK    1  A    between atoms: C_1  and  O_2
REMARK    2  A    between atoms: O_2  and  C_3
REMARK    3  A    between atoms: C_7  and  N_8
REMARK    4  A    between atoms: N_8  and  C_9
REMARK    5  A    between atoms: C_9  and  N_11
REMARK    6  A    between atoms: N_14  and  C_15
REMARK    7  A    between atoms: N_25  and  C_26
REMARK    8  A    between atoms: C_26  and  C_27
REMARK                            x       y       z     vdW  Elec       q    Type
REMARK                         _______ _______ _______ _____ _____    ______ ____
ROOT
ATOM      1  C   UNL     1       2.069   7.872  19.698  0.00  0.00    +0.000 A 
ATOM      2  C   UNL     1       2.312   8.432  18.420  0.00  0.00    +0.000 A 
ATOM      3  C   UNL     1       1.713   9.658  18.016  0.00  0.00    +0.000 A 
ATOM      4  C   UNL     1       0.867  10.298  18.910  0.00  0.00    +0.000 A 
ATOM      5  C   UNL     1       0.732   9.733  20.183  0.00  0.00    +0.000 A 
ATOM      6  C   UNL     1       1.309   8.561  20.621  0.00  0.00    +0.000 A 
ATOM      7  C   UNL     1      -0.361  10.414  20.828  0.00  0.00    +0.000 C 
ATOM      8  O   UNL     1      -0.520  10.588  22.009  0.00  0.00    +0.000 OA
ATOM      9  C   UNL     1      -1.131  11.033  19.666  0.00  0.00    +0.000 C 
ATOM     10  O   UNL     1      -2.295  11.369  19.721  0.00  0.00    +0.000 OA
ATOM     11  N   UNL     1      -0.190  11.229  18.615  0.00  0.00    +0.000 N 
ENDROOT
BRANCH   1  15
ATOM     12  N   UNL     1       2.988   4.349  19.809  0.00  0.00    +0.000 N 
ATOM     13  C   UNL     1       2.604   5.518  19.187  0.00  0.00    +0.000 C 
ATOM     14  O   UNL     1       2.437   5.596  17.960  0.00  0.00    +0.000 OA
ATOM     15  N   UNL     1       2.459   6.560  20.064  0.00  0.00    +0.000 N 
ATOM     16  H   UNL     1       2.768   4.226  20.788  0.00  0.00    +0.000 HD
ATOM     17  H   UNL     1       2.971   6.467  20.933  0.00  0.00    +0.000 HD
BRANCH  12  18
ATOM     18  C   UNL     1       3.698   3.305  19.242  0.00  0.00    +0.000 C 
ATOM     19  S   UNL     1       2.842   1.945  18.783  0.00  0.00    +0.000 S 
BRANCH  18  20
ATOM     20  N   UNL     1       5.048   3.536  19.118  0.00  0.00    +0.000 N 
ATOM     21  H   UNL     1       5.617   3.062  19.821  0.00  0.00    +0.000 HD
BRANCH  20  26
ATOM     22  C   UNL     1       7.328   6.213  18.016  0.00  0.00    +0.000 A 
ATOM     23  C   UNL     1       7.308   6.046  16.632  0.00  0.00    +0.000 A 
ATOM     24  C   UNL     1       6.513   5.057  16.054  0.00  0.00    +0.000 A 
ATOM     25  C   UNL     1       5.723   4.239  16.862  0.00  0.00    +0.000 A 
ATOM     26  C   UNL     1       5.751   4.388  18.249  0.00  0.00    +0.000 A 
ATOM     27  C   UNL     1       6.588   5.353  18.825  0.00  0.00    +0.000 A 
BRANCH  22  29
ATOM     28  C   UNL     1       7.947   8.480  17.829  0.00  0.00    +0.000 C 
ATOM     29  O   UNL     1       8.131   7.224  18.475  0.00  0.00    +0.000 OA
ENDBRANCH  22  29
ENDBRANCH  20  26
ENDBRANCH  18  20
ENDBRANCH  12  18
ENDBRANCH   1  15
BRANCH  11  30
ATOM     30  C   UNL     1       0.095  12.669  18.611  0.00  0.00    +0.000 C 
BRANCH  30  31
ATOM     31  C   UNL     1       1.449  13.238  18.941  0.00  0.00    +0.000 A 
ATOM     32  C   UNL     1       2.491  13.354  18.015  0.00  0.00    +0.000 A 
ATOM     33  C   UNL     1       3.632  14.107  18.325  0.00  0.00    +0.000 A 
ATOM     34  C   UNL     1       3.747  14.763  19.554  0.00  0.00    +0.000 A 
ATOM     35  C   UNL     1       2.733  14.644  20.494  0.00  0.00    +0.000 A 
ATOM     36  C   UNL     1       1.602  13.885  20.197  0.00  0.00    +0.000 A 
ATOM     37 CL   UNL     1       0.357  13.847  21.405  0.00  0.00    +0.000 Cl
ENDBRANCH  30  31
ENDBRANCH  11  30
TORSDOF 7
ENDMDL
MODEL 3
REMARK VINA RESULT:      -8.7      2.209      3.777
REMARK  Name = 
REMARK  8 active torsions:
REMARK  status: ('A' for Active; 'I' for Inactive)
REMARK    1  A    between atoms: C_1  and  O_2
REMARK    2  A    between atoms: O_2  and  C_3
REMARK    3  A    between atoms: C_7  and  N_8
REMARK    4  A    between atoms: N_8  and  C_9
REMARK    5  A    between atoms: C_9  and  N_11
REMARK    6  A    between atoms: N_14  and  C_15
REMARK    7  A    between atoms: N_25  and  C_26
REMARK    8  A    between atoms: C_26  and  C_27
REMARK                            x       y       z     vdW  Elec       q    Type
REMARK                         _______ _______ _______ _____ _____    ______ ____
ROOT
ATOM      1  C   UNL     1       1.753   7.293  20.363  0.00  0.00    +0.000 A 
ATOM      2  C   UNL     1       0.779   7.723  21.296  0.00  0.00    +0.000 A 
ATOM      3  C   UNL     1       0.136   8.988  21.176  0.00  0.00    +0.000 A 
ATOM      4  C   UNL     1       0.496   9.806  20.114  0.00  0.00    +0.000 A 
ATOM      5  C   UNL     1       1.406   9.289  19.185  0.00  0.00    +0.000 A 
ATOM      6  C   UNL     1       2.035   8.064  19.253  0.00  0.00    +0.000 A 
ATOM      7  C   UNL     1       1.805  10.383  18.339  0.00  0.00    +0.000 C 
ATOM      8  O   UNL     1       2.171  10.327  17.193  0.00  0.00    +0.000 OA
ATOM      9  C   UNL     1       1.451  11.618  19.162  0.00  0.00    +0.000 C 
ATOM     10  O   UNL     1       1.946  12.712  18.996  0.00  0.00    +0.000 OA
ATOM     11  N   UNL     1       0.384  11.237  20.024  0.00  0.00    +0.000 N 
ENDROOT
BRANCH   1  15
ATOM     12  N   UNL     1       3.470   4.087  20.158  0.00  0.00    +0.000 N 
ATOM     13  C   UNL     1       2.581   5.055  19.739  0.00  0.00    +0.000 C 
ATOM     14  O   UNL     1       1.892   4.927  18.715  0.00  0.00    +0.000 OA
ATOM     15  N   UNL     1       2.572   6.154  20.556  0.00  0.00    +0.000 N 
ATOM     16  H   UNL     1       3.727   4.057  21.135  0.00  0.00    +0.000 HD
ATOM     17  H   UNL     1       3.412   6.290  21.105  0.00  0.00    +0.000 HD
BRANCH  12  18
ATOM     18  C   UNL     1       4.102   3.146  19.365  0.00  0.00    +0.000 C 
ATOM     19  S   UNL     1       3.328   1.683  19.131  0.00  0.00    +0.000 S 
BRANCH  18  20
ATOM     20  N   UNL     1       5.311   3.553  18.852  0.00  0.00    +0.000 N 
ATOM     21  H   UNL     1       6.105   3.376  19.468  0.00  0.00    +0.000 HD
BRANCH  20  26
ATOM     22  C   UNL     1       6.952   5.964  16.598  0.00  0.00    +0.000 A 
ATOM     23  C   UNL     1       6.394   5.620  15.367  0.00  0.00    +0.000 A 
ATOM     24  C   UNL     1       5.447   4.601  15.284  0.00  0.00    +0.000 A 
ATOM     25  C   UNL     1       5.044   3.929  16.438  0.00  0.00    +0.000 A 
ATOM     26  C   UNL     1       5.609   4.255  17.670  0.00  0.00    +0.000 A 
ATOM     27  C   UNL     1       6.595   5.249  17.740  0.00  0.00    +0.000 A 
BRANCH  22  29
ATOM     28  C   UNL     1       7.705   7.961  17.598  0.00  0.00    +0.000 C 
ATOM     29  O   UNL     1       7.859   6.990  16.568  0.00  0.00    +0.000 OA
ENDBRANCH  22  29
ENDBRANCH  20  26
ENDBRANCH  18  20
ENDBRANCH  12  18
ENDBRANCH   1  15
BRANCH  11  30
ATOM     30  C   UNL     1      -0.823  11.832  19.434  0.00  0.00    +0.000 C 
BRANCH  30  31
ATOM     31  C   UNL     1      -2.094  12.049  20.211  0.00  0.00    +0.000 A 
ATOM     32  C   UNL     1      -2.127  12.415  21.561  0.00  0.00    +0.000 A 
ATOM     33  C   UNL     1      -3.329  12.832  22.151  0.00  0.00    +0.000 A 
ATOM     34  C   UNL     1      -4.508  12.902  21.404  0.00  0.00    +0.000 A 
ATOM     35  C   UNL     1      -4.500  12.524  20.069  0.00  0.00    +0.000 A 
ATOM     36  C   UNL     1      -3.311  12.095  19.481  0.00  0.00    +0.000 A 
ATOM     37 CL   UNL     1      -3.381  11.707  17.791  0.00  0.00    +0.000 Cl
ENDBRANCH  30  31
ENDBRANCH  11  30
TORSDOF 7
ENDMDL
MODEL 4
REMARK VINA RESULT:      -8.6      0.979      1.368
REMARK  Name = 
REMARK  8 active torsions:
REMARK  status: ('A' for Active; 'I' for Inactive)
REMARK    1  A    between atoms: C_1  and  O_2
REMARK    2  A    between atoms: O_2  and  C_3
REMARK    3  A    between atoms: C_7  and  N_8
REMARK    4  A    between atoms: N_8  and  C_9
REMARK    5  A    between atoms: C_9  and  N_11
REMARK    6  A    between atoms: N_14  and  C_15
REMARK    7  A    between atoms: N_25  and  C_26
REMARK    8  A    between atoms: C_26  and  C_27
REMARK                            x       y       z     vdW  Elec       q    Type
REMARK                         _______ _______ _______ _____ _____    ______ ____
ROOT
ATOM      1  C   UNL     1       2.143   7.884  19.580  0.00  0.00    +0.000 A 
ATOM      2  C   UNL     1       2.371   8.422  18.290  0.00  0.00    +0.000 A 
ATOM      3  C   UNL     1       1.709   9.601  17.844  0.00  0.00    +0.000 A 
ATOM      4  C   UNL     1       0.816  10.216  18.710  0.00  0.00    +0.000 A 
ATOM      5  C   UNL     1       0.696   9.680  19.997  0.00  0.00    +0.000 A 
ATOM      6  C   UNL     1       1.333   8.554  20.475  0.00  0.00    +0.000 A 
ATOM      7  C   UNL     1      -0.441  10.315  20.609  0.00  0.00    +0.000 C 
ATOM      8  O   UNL     1      -0.626  10.512  21.783  0.00  0.00    +0.000 OA
ATOM      9  C   UNL     1      -1.230  10.856  19.421  0.00  0.00    +0.000 C 
ATOM     10  O   UNL     1      -2.411  11.127  19.454  0.00  0.00    +0.000 OA
ATOM     11  N   UNL     1      -0.288  11.076  18.376  0.00  0.00    +0.000 N 
ENDROOT
BRANCH   1  15
ATOM     12  N   UNL     1       3.167   4.397  19.820  0.00  0.00    +0.000 N 
ATOM     13  C   UNL     1       2.694   5.515  19.167  0.00  0.00    +0.000 C 
ATOM     14  O   UNL     1       2.412   5.511  17.959  0.00  0.00    +0.000 OA
ATOM     15  N   UNL     1       2.602   6.608  19.988  0.00  0.00    +0.000 N 
ATOM     16  H   UNL     1       3.042   4.332  20.821  0.00  0.00    +0.000 HD
ATOM     17  H   UNL     1       3.195   6.582  20.808  0.00  0.00    +0.000 HD
BRANCH  12  18
ATOM     18  C   UNL     1       3.850   3.335  19.254  0.00  0.00    +0.000 C 
ATOM     19  S   UNL     1       2.954   2.016  18.752  0.00  0.00    +0.000 S 
BRANCH  18  20
ATOM     20  N   UNL     1       5.210   3.515  19.167  0.00  0.00    +0.000 N 
ATOM     21  H   UNL     1       5.752   2.874  19.749  0.00  0.00    +0.000 HD
BRANCH  20  26
ATOM     22  C   UNL     1       6.435   5.599  16.385  0.00  0.00    +0.000 A 
ATOM     23  C   UNL     1       7.276   6.489  17.052  0.00  0.00    +0.000 A 
ATOM     24  C   UNL     1       7.462   6.383  18.429  0.00  0.00    +0.000 A 
ATOM     25  C   UNL     1       6.815   5.376  19.144  0.00  0.00    +0.000 A 
ATOM     26  C   UNL     1       5.959   4.492  18.487  0.00  0.00    +0.000 A 
ATOM     27  C   UNL     1       5.740   4.633  17.110  0.00  0.00    +0.000 A 
BRANCH  22  29
ATOM     28  C   UNL     1       6.737   4.667  14.241  0.00  0.00    +0.000 C 
ATOM     29  O   UNL     1       6.338   5.783  15.031  0.00  0.00    +0.000 OA
ENDBRANCH  22  29
ENDBRANCH  20  26
ENDBRANCH  18  20
ENDBRANCH  12  18
ENDBRANCH   1  15
BRANCH  11  30
ATOM     30  C   UNL     1      -0.085  12.530  18.336  0.00  0.00    +0.000 C 
BRANCH  30  31
ATOM     31  C   UNL     1       0.641  13.287  19.415  0.00  0.00    +0.000 A 
ATOM     32  C   UNL     1       0.042  13.711  20.606  0.00  0.00    +0.000 A 
ATOM     33  C   UNL     1       0.830  14.193  21.661  0.00  0.00    +0.000 A 
ATOM     34  C   UNL     1       2.222  14.249  21.550  0.00  0.00    +0.000 A 
ATOM     35  C   UNL     1       2.834  13.853  20.369  0.00  0.00    +0.000 A 
ATOM     36  C   UNL     1       2.055  13.386  19.311  0.00  0.00    +0.000 A 
ATOM     37 CL   UNL     1       2.909  12.849  17.900  0.00  0.00    +0.000 Cl
ENDBRANCH  30  31
ENDBRANCH  11  30
TORSDOF 7
ENDMDL
MODEL 5
REMARK VINA RESULT:      -8.6      1.976      3.427
REMARK  Name = 
REMARK  8 active torsions:
REMARK  status: ('A' for Active; 'I' for Inactive)
REMARK    1  A    between atoms: C_1  and  O_2
REMARK    2  A    between atoms: O_2  and  C_3
REMARK    3  A    between atoms: C_7  and  N_8
REMARK    4  A    between atoms: N_8  and  C_9
REMARK    5  A    between atoms: C_9  and  N_11
REMARK    6  A    between atoms: N_14  and  C_15
REMARK    7  A    between atoms: N_25  and  C_26
REMARK    8  A    between atoms: C_26  and  C_27
REMARK                            x       y       z     vdW  Elec       q    Type
REMARK                         _______ _______ _______ _____ _____    ______ ____
ROOT
ATOM      1  C   UNL     1       1.351   7.684  20.399  0.00  0.00    +0.000 A 
ATOM      2  C   UNL     1       0.301   8.176  21.211  0.00  0.00    +0.000 A 
ATOM      3  C   UNL     1      -0.216   9.493  21.048  0.00  0.00    +0.000 A 
ATOM      4  C   UNL     1       0.346  10.299  20.069  0.00  0.00    +0.000 A 
ATOM      5  C   UNL     1       1.326   9.726  19.249  0.00  0.00    +0.000 A 
ATOM      6  C   UNL     1       1.838   8.451  19.359  0.00  0.00    +0.000 A 
ATOM      7  C   UNL     1       1.920  10.799  18.497  0.00  0.00    +0.000 C 
ATOM      8  O   UNL     1       2.428  10.736  17.406  0.00  0.00    +0.000 OA
ATOM      9  C   UNL     1       1.562  12.042  19.305  0.00  0.00    +0.000 C 
ATOM     10  O   UNL     1       2.162  13.094  19.239  0.00  0.00    +0.000 OA
ATOM     11  N   UNL     1       0.363  11.736  20.009  0.00  0.00    +0.000 N 
ENDROOT
BRANCH   1  15
ATOM     12  N   UNL     1       3.024   4.452  20.239  0.00  0.00    +0.000 N 
ATOM     13  C   UNL     1       2.351   5.535  19.714  0.00  0.00    +0.000 C 
ATOM     14  O   UNL     1       2.085   5.632  18.506  0.00  0.00    +0.000 OA
ATOM     15  N   UNL     1       2.043   6.476  20.661  0.00  0.00    +0.000 N 
ATOM     16  H   UNL     1       2.905   4.237  21.220  0.00  0.00    +0.000 HD
ATOM     17  H   UNL     1       2.622   6.458  21.491  0.00  0.00    +0.000 HD
BRANCH  12  18
ATOM     18  C   UNL     1       3.903   3.621  19.569  0.00  0.00    +0.000 C 
ATOM     19  S   UNL     1       3.263   2.300  18.769  0.00  0.00    +0.000 S 
BRANCH  18  20
ATOM     20  N   UNL     1       5.220   4.007  19.642  0.00  0.00    +0.000 N 
ATOM     21  H   UNL     1       5.702   3.686  20.484  0.00  0.00    +0.000 HD
BRANCH  20  26
ATOM     22  C   UNL     1       6.240   5.809  16.593  0.00  0.00    +0.000 A 
ATOM     23  C   UNL     1       7.296   6.587  17.069  0.00  0.00    +0.000 A 
ATOM     24  C   UNL     1       7.692   6.497  18.402  0.00  0.00    +0.000 A 
ATOM     25  C   UNL     1       7.040   5.614  19.264  0.00  0.00    +0.000 A 
ATOM     26  C   UNL     1       5.973   4.845  18.801  0.00  0.00    +0.000 A 
ATOM     27  C   UNL     1       5.549   4.976  17.471  0.00  0.00    +0.000 A 
BRANCH  22  29
ATOM     28  C   UNL     1       5.585   4.767  14.583  0.00  0.00    +0.000 C 
ATOM     29  O   UNL     1       5.945   5.965  15.265  0.00  0.00    +0.000 OA
ENDBRANCH  22  29
ENDBRANCH  20  26
ENDBRANCH  18  20
ENDBRANCH  12  18
ENDBRANCH   1  15
BRANCH  11  30
ATOM     30  C   UNL     1      -0.703  12.442  19.287  0.00  0.00    +0.000 C 
BRANCH  30  31
ATOM     31  C   UNL     1      -1.764  11.731  18.491  0.00  0.00    +0.000 A 
ATOM     32  C   UNL     1      -1.488  10.804  17.480  0.00  0.00    +0.000 A 
ATOM     33  C   UNL     1      -2.514  10.009  16.951  0.00  0.00    +0.000 A 
ATOM     34  C   UNL     1      -3.824  10.116  17.427  0.00  0.00    +0.000 A 
ATOM     35  C   UNL     1      -4.122  11.044  18.415  0.00  0.00    +0.000 A 
ATOM     36  C   UNL     1      -3.108  11.848  18.935  0.00  0.00    +0.000 A 
ATOM     37 CL   UNL     1      -3.560  12.932  20.213  0.00  0.00    +0.000 Cl
ENDBRANCH  30  31
ENDBRANCH  11  30
TORSDOF 7
ENDMDL
MODEL 6
REMARK VINA RESULT:      -8.6      2.132      3.712
REMARK  Name = 
REMARK  8 active torsions:
REMARK  status: ('A' for Active; 'I' for Inactive)
REMARK    1  A    between atoms: C_1  and  O_2
REMARK    2  A    between atoms: O_2  and  C_3
REMARK    3  A    between atoms: C_7  and  N_8
REMARK    4  A    between atoms: N_8  and  C_9
REMARK    5  A    between atoms: C_9  and  N_11
REMARK    6  A    between atoms: N_14  and  C_15
REMARK    7  A    between atoms: N_25  and  C_26
REMARK    8  A    between atoms: C_26  and  C_27
REMARK                            x       y       z     vdW  Elec       q    Type
REMARK                         _______ _______ _______ _____ _____    ______ ____
ROOT
ATOM      1  C   UNL     1       1.437   7.715  20.407  0.00  0.00    +0.000 A 
ATOM      2  C   UNL     1       0.375   8.197  21.210  0.00  0.00    +0.000 A 
ATOM      3  C   UNL     1      -0.163   9.503  21.032  0.00  0.00    +0.000 A 
ATOM      4  C   UNL     1       0.389  10.309  20.046  0.00  0.00    +0.000 A 
ATOM      5  C   UNL     1       1.382   9.744  19.237  0.00  0.00    +0.000 A 
ATOM      6  C   UNL     1       1.916   8.480  19.362  0.00  0.00    +0.000 A 
ATOM      7  C   UNL     1       1.961  10.821  18.476  0.00  0.00    +0.000 C 
ATOM      8  O   UNL     1       2.474  10.755  17.388  0.00  0.00    +0.000 OA
ATOM      9  C   UNL     1       1.578  12.065  19.270  0.00  0.00    +0.000 C 
ATOM     10  O   UNL     1       2.159  13.127  19.196  0.00  0.00    +0.000 OA
ATOM     11  N   UNL     1       0.381  11.746  19.973  0.00  0.00    +0.000 N 
ENDROOT
BRANCH   1  15
ATOM     12  N   UNL     1       3.015   4.433  20.337  0.00  0.00    +0.000 N 
ATOM     13  C   UNL     1       2.274   5.471  19.814  0.00  0.00    +0.000 C 
ATOM     14  O   UNL     1       1.802   5.441  18.667  0.00  0.00    +0.000 OA
ATOM     15  N   UNL     1       2.149   6.522  20.684  0.00  0.00    +0.000 N 
ATOM     16  H   UNL     1       3.067   4.333  21.342  0.00  0.00    +0.000 HD
ATOM     17  H   UNL     1       2.865   6.578  21.397  0.00  0.00    +0.000 HD
BRANCH  12  18
ATOM     18  C   UNL     1       3.752   3.503  19.626  0.00  0.00    +0.000 C 
ATOM     19  S   UNL     1       2.945   2.166  19.029  0.00  0.00    +0.000 S 
BRANCH  18  20
ATOM     20  N   UNL     1       5.084   3.815  19.491  0.00  0.00    +0.000 N 
ATOM     21  H   UNL     1       5.671   3.472  20.253  0.00  0.00    +0.000 HD
BRANCH  20  26
ATOM     22  C   UNL     1       7.357   6.359  18.097  0.00  0.00    +0.000 A 
ATOM     23  C   UNL     1       7.218   6.138  16.727  0.00  0.00    +0.000 A 
ATOM     24  C   UNL     1       6.346   5.158  16.258  0.00  0.00    +0.000 A 
ATOM     25  C   UNL     1       5.597   4.402  17.161  0.00  0.00    +0.000 A 
ATOM     26  C   UNL     1       5.743   4.605  18.532  0.00  0.00    +0.000 A 
ATOM     27  C   UNL     1       6.656   5.560  18.999  0.00  0.00    +0.000 A 
BRANCH  22  29
ATOM     28  C   UNL     1       7.970   8.621  17.844  0.00  0.00    +0.000 C 
ATOM     29  O   UNL     1       8.228   7.356  18.447  0.00  0.00    +0.000 OA
ENDBRANCH  22  29
ENDBRANCH  20  26
ENDBRANCH  18  20
ENDBRANCH  12  18
ENDBRANCH   1  15
BRANCH  11  30
ATOM     30  C   UNL     1      -0.694  12.426  19.239  0.00  0.00    +0.000 C 
BRANCH  30  31
ATOM     31  C   UNL     1      -1.752  11.688  18.464  0.00  0.00    +0.000 A 
ATOM     32  C   UNL     1      -1.473  10.746  17.468  0.00  0.00    +0.000 A 
ATOM     33  C   UNL     1      -2.493   9.929  16.961  0.00  0.00    +0.000 A 
ATOM     34  C   UNL     1      -3.800  10.029  17.446  0.00  0.00    +0.000 A 
ATOM     35  C   UNL     1      -4.102  10.971  18.420  0.00  0.00    +0.000 A 
ATOM     36  C   UNL     1      -3.094  11.796  18.917  0.00  0.00    +0.000 A 
ATOM     37 CL   UNL     1      -3.549  12.897  20.179  0.00  0.00    +0.000 Cl
ENDBRANCH  30  31
ENDBRANCH  11  30
TORSDOF 7
ENDMDL
MODEL 7
REMARK VINA RESULT:      -8.5      2.796      4.386
REMARK  Name = 
REMARK  8 active torsions:
REMARK  status: ('A' for Active; 'I' for Inactive)
REMARK    1  A    between atoms: C_1  and  O_2
REMARK    2  A    between atoms: O_2  and  C_3
REMARK    3  A    between atoms: C_7  and  N_8
REMARK    4  A    between atoms: N_8  and  C_9
REMARK    5  A    between atoms: C_9  and  N_11
REMARK    6  A    between atoms: N_14  and  C_15
REMARK    7  A    between atoms: N_25  and  C_26
REMARK    8  A    between atoms: C_26  and  C_27
REMARK                            x       y       z     vdW  Elec       q    Type
REMARK                         _______ _______ _______ _____ _____    ______ ____
ROOT
ATOM      1  C   UNL     1       1.309   8.292  20.803  0.00  0.00    +0.000 A 
ATOM      2  C   UNL     1       0.373   8.270  21.865  0.00  0.00    +0.000 A 
ATOM      3  C   UNL     1      -0.494   9.371  22.120  0.00  0.00    +0.000 A 
ATOM      4  C   UNL     1      -0.395  10.484  21.298  0.00  0.00    +0.000 A 
ATOM      5  C   UNL     1       0.495  10.410  20.220  0.00  0.00    +0.000 A 
ATOM      6  C   UNL     1       1.335   9.358  19.926  0.00  0.00    +0.000 A 
ATOM      7  C   UNL     1       0.605  11.739  19.678  0.00  0.00    +0.000 C 
ATOM      8  O   UNL     1       0.857  12.048  18.541  0.00  0.00    +0.000 OA
ATOM      9  C   UNL     1       0.120  12.630  20.817  0.00  0.00    +0.000 C 
ATOM     10  O   UNL     1       0.392  13.807  20.924  0.00  0.00    +0.000 OA
ATOM     11  N   UNL     1      -0.770  11.840  21.599  0.00  0.00    +0.000 N 
ENDROOT
BRANCH   1  15
ATOM     12  N   UNL     1       3.307   5.325  20.115  0.00  0.00    +0.000 N 
ATOM     13  C   UNL     1       2.141   6.059  20.164  0.00  0.00    +0.000 C 
ATOM     14  O   UNL     1       1.050   5.602  19.787  0.00  0.00    +0.000 OA
ATOM     15  N   UNL     1       2.334   7.328  20.643  0.00  0.00    +0.000 N 
ATOM     16  H   UNL     1       4.064   5.576  20.736  0.00  0.00    +0.000 HD
ATOM     17  H   UNL     1       3.278   7.682  20.555  0.00  0.00    +0.000 HD
BRANCH  12  18
ATOM     18  C   UNL     1       3.588   4.275  19.259  0.00  0.00    +0.000 C 
ATOM     19  S   UNL     1       3.844   2.769  19.937  0.00  0.00    +0.000 S 
BRANCH  18  20
ATOM     20  N   UNL     1       3.609   4.616  17.927  0.00  0.00    +0.000 N 
ATOM     21  H   UNL     1       2.683   4.745  17.516  0.00  0.00    +0.000 HD
BRANCH  20  26
ATOM     22  C   UNL     1       6.778   5.804  16.469  0.00  0.00    +0.000 A 
ATOM     23  C   UNL     1       6.945   4.919  15.404  0.00  0.00    +0.000 A 
ATOM     24  C   UNL     1       5.989   3.938  15.148  0.00  0.00    +0.000 A 
ATOM     25  C   UNL     1       4.852   3.847  15.952  0.00  0.00    +0.000 A 
ATOM     26  C   UNL     1       4.686   4.717  17.029  0.00  0.00    +0.000 A 
ATOM     27  C   UNL     1       5.674   5.670  17.309  0.00  0.00    +0.000 A 
BRANCH  22  29
ATOM     28  C   UNL     1       7.472   7.789  17.534  0.00  0.00    +0.000 C 
ATOM     29  O   UNL     1       7.769   6.737  16.620  0.00  0.00    +0.000 OA
ENDBRANCH  22  29
ENDBRANCH  20  26
ENDBRANCH  18  20
ENDBRANCH  12  18
ENDBRANCH   1  15
BRANCH  11  30
ATOM     30  C   UNL     1      -2.116  12.312  21.251  0.00  0.00    +0.000 C 
BRANCH  30  31
ATOM     31  C   UNL     1      -3.252  12.350  22.238  0.00  0.00    +0.000 A 
ATOM     32  C   UNL     1      -3.086  12.218  23.621  0.00  0.00    +0.000 A 
ATOM     33  C   UNL     1      -4.149  12.502  24.490  0.00  0.00    +0.000 A 
ATOM     34  C   UNL     1      -5.385  12.930  23.997  0.00  0.00    +0.000 A 
ATOM     35  C   UNL     1      -5.575  13.047  22.628  0.00  0.00    +0.000 A 
ATOM     36  C   UNL     1      -4.527  12.753  21.758  0.00  0.00    +0.000 A 
ATOM     37 CL   UNL     1      -4.835  12.991  20.067  0.00  0.00    +0.000 Cl
ENDBRANCH  30  31
ENDBRANCH  11  30
TORSDOF 7
ENDMDL
MODEL 8
REMARK VINA RESULT:      -8.5      0.902      1.053
REMARK  Name = 
REMARK  8 active torsions:
REMARK  status: ('A' for Active; 'I' for Inactive)
REMARK    1  A    between atoms: C_1  and  O_2
REMARK    2  A    between atoms: O_2  and  C_3
REMARK    3  A    between atoms: C_7  and  N_8
REMARK    4  A    between atoms: N_8  and  C_9
REMARK    5  A    between atoms: C_9  and  N_11
REMARK    6  A    between atoms: N_14  and  C_15
REMARK    7  A    between atoms: N_25  and  C_26
REMARK    8  A    between atoms: C_26  and  C_27
REMARK                            x       y       z     vdW  Elec       q    Type
REMARK                         _______ _______ _______ _____ _____    ______ ____
ROOT
ATOM      1  C   UNL     1       2.022   7.783  19.816  0.00  0.00    +0.000 A 
ATOM      2  C   UNL     1       2.016   8.349  18.519  0.00  0.00    +0.000 A 
ATOM      3  C   UNL     1       1.435   9.624  18.262  0.00  0.00    +0.000 A 
ATOM      4  C   UNL     1       0.861  10.306  19.324  0.00  0.00    +0.000 A 
ATOM      5  C   UNL     1       0.970   9.728  20.594  0.00  0.00    +0.000 A 
ATOM      6  C   UNL     1       1.540   8.508  20.889  0.00  0.00    +0.000 A 
ATOM      7  C   UNL     1       0.103  10.474  21.468  0.00  0.00    +0.000 C 
ATOM      8  O   UNL     1       0.225  10.636  22.656  0.00  0.00    +0.000 OA
ATOM      9  C   UNL     1      -0.857  11.169  20.510  0.00  0.00    +0.000 C 
ATOM     10  O   UNL     1      -1.951  11.588  20.825  0.00  0.00    +0.000 OA
ATOM     11  N   UNL     1      -0.163  11.317  19.276  0.00  0.00    +0.000 N 
ENDROOT
BRANCH   1  15
ATOM     12  N   UNL     1       3.042   4.290  19.659  0.00  0.00    +0.000 N 
ATOM     13  C   UNL     1       2.742   5.527  19.127  0.00  0.00    +0.000 C 
ATOM     14  O   UNL     1       2.818   5.765  17.912  0.00  0.00    +0.000 OA
ATOM     15  N   UNL     1       2.383   6.440  20.083  0.00  0.00    +0.000 N 
ATOM     16  H   UNL     1       2.637   4.035  20.549  0.00  0.00    +0.000 HD
ATOM     17  H   UNL     1       2.717   6.239  21.018  0.00  0.00    +0.000 HD
BRANCH  12  18
ATOM     18  C   UNL     1       3.892   3.342  19.118  0.00  0.00    +0.000 C 
ATOM     19  S   UNL     1       3.200   1.996  18.407  0.00  0.00    +0.000 S 
BRANCH  18  20
ATOM     20  N   UNL     1       5.228   3.645  19.229  0.00  0.00    +0.000 N 
ATOM     21  H   UNL     1       5.698   3.176  20.006  0.00  0.00    +0.000 HD
BRANCH  20  26
ATOM     22  C   UNL     1       6.668   5.438  16.349  0.00  0.00    +0.000 A 
ATOM     23  C   UNL     1       7.424   6.423  16.983  0.00  0.00    +0.000 A 
ATOM     24  C   UNL     1       7.482   6.480  18.374  0.00  0.00    +0.000 A 
ATOM     25  C   UNL     1       6.790   5.540  19.138  0.00  0.00    +0.000 A 
ATOM     26  C   UNL     1       6.018   4.562  18.513  0.00  0.00    +0.000 A 
ATOM     27  C   UNL     1       5.927   4.539  17.114  0.00  0.00    +0.000 A 
BRANCH  22  29
ATOM     28  C   UNL     1       6.091   4.342  14.343  0.00  0.00    +0.000 C 
ATOM     29  O   UNL     1       6.695   5.464  14.980  0.00  0.00    +0.000 OA
ENDBRANCH  22  29
ENDBRANCH  20  26
ENDBRANCH  18  20
ENDBRANCH  12  18
ENDBRANCH   1  15
BRANCH  11  30
ATOM     30  C   UNL     1       0.222  12.732  19.213  0.00  0.00    +0.000 C 
BRANCH  30  31
ATOM     31  C   UNL     1       1.115  13.385  20.233  0.00  0.00    +0.000 A 
ATOM     32  C   UNL     1       2.498  13.185  20.300  0.00  0.00    +0.000 A 
ATOM     33  C   UNL     1       3.293  14.003  21.114  0.00  0.00    +0.000 A 
ATOM     34  C   UNL     1       2.726  15.038  21.862  0.00  0.00    +0.000 A 
ATOM     35  C   UNL     1       1.354  15.241  21.826  0.00  0.00    +0.000 A 
ATOM     36  C   UNL     1       0.556  14.421  21.030  0.00  0.00    +0.000 A 
ATOM     37 CL   UNL     1      -1.140  14.789  20.994  0.00  0.00    +0.000 Cl
ENDBRANCH  30  31
ENDBRANCH  11  30
TORSDOF 7
ENDMDL
MODEL 9
REMARK VINA RESULT:      -8.4      1.255      1.959
REMARK  Name = 
REMARK  8 active torsions:
REMARK  status: ('A' for Active; 'I' for Inactive)
REMARK    1  A    between atoms: C_1  and  O_2
REMARK    2  A    between atoms: O_2  and  C_3
REMARK    3  A    between atoms: C_7  and  N_8
REMARK    4  A    between atoms: N_8  and  C_9
REMARK    5  A    between atoms: C_9  and  N_11
REMARK    6  A    between atoms: N_14  and  C_15
REMARK    7  A    between atoms: N_25  and  C_26
REMARK    8  A    between atoms: C_26  and  C_27
REMARK                            x       y       z     vdW  Elec       q    Type
REMARK                         _______ _______ _______ _____ _____    ______ ____
ROOT
ATOM      1  C   UNL     1       2.039   7.956  19.661  0.00  0.00    +0.000 A 
ATOM      2  C   UNL     1       2.255   8.468  18.359  0.00  0.00    +0.000 A 
ATOM      3  C   UNL     1       1.617   9.659  17.909  0.00  0.00    +0.000 A 
ATOM      4  C   UNL     1       0.761  10.312  18.784  0.00  0.00    +0.000 A 
ATOM      5  C   UNL     1       0.653   9.797  20.081  0.00  0.00    +0.000 A 
ATOM      6  C   UNL     1       1.267   8.661  20.562  0.00  0.00    +0.000 A 
ATOM      7  C   UNL     1      -0.453  10.473  20.707  0.00  0.00    +0.000 C 
ATOM      8  O   UNL     1      -0.607  10.693  21.882  0.00  0.00    +0.000 OA
ATOM      9  C   UNL     1      -1.251  11.020  19.528  0.00  0.00    +0.000 C 
ATOM     10  O   UNL     1      -2.423  11.325  19.581  0.00  0.00    +0.000 OA
ATOM     11  N   UNL     1      -0.326  11.198  18.460  0.00  0.00    +0.000 N 
ENDROOT
BRANCH   1  15
ATOM     12  N   UNL     1       2.984   4.448  19.927  0.00  0.00    +0.000 N 
ATOM     13  C   UNL     1       2.535   5.571  19.266  0.00  0.00    +0.000 C 
ATOM     14  O   UNL     1       2.248   5.563  18.059  0.00  0.00    +0.000 OA
ATOM     15  N   UNL     1       2.470   6.673  20.078  0.00  0.00    +0.000 N 
ATOM     16  H   UNL     1       2.861   4.394  20.929  0.00  0.00    +0.000 HD
ATOM     17  H   UNL     1       3.065   6.640  20.896  0.00  0.00    +0.000 HD
BRANCH  12  18
ATOM     18  C   UNL     1       3.641   3.366  19.368  0.00  0.00    +0.000 C 
ATOM     19  S   UNL     1       2.728   2.019  18.984  0.00  0.00    +0.000 S 
BRANCH  18  20
ATOM     20  N   UNL     1       4.991   3.551  19.187  0.00  0.00    +0.000 N 
ATOM     21  H   UNL     1       5.574   3.036  19.849  0.00  0.00    +0.000 HD
BRANCH  20  26
ATOM     22  C   UNL     1       7.292   6.199  18.057  0.00  0.00    +0.000 A 
ATOM     23  C   UNL     1       7.226   6.055  16.672  0.00  0.00    +0.000 A 
ATOM     24  C   UNL     1       6.393   5.092  16.104  0.00  0.00    +0.000 A 
ATOM     25  C   UNL     1       5.611   4.277  16.923  0.00  0.00    +0.000 A 
ATOM     26  C   UNL     1       5.685   4.403  18.310  0.00  0.00    +0.000 A 
ATOM     27  C   UNL     1       6.559   5.341  18.875  0.00  0.00    +0.000 A 
BRANCH  22  29
ATOM     28  C   UNL     1       8.005   8.435  17.834  0.00  0.00    +0.000 C 
ATOM     29  O   UNL     1       8.129   7.185  18.507  0.00  0.00    +0.000 OA
ENDBRANCH  22  29
ENDBRANCH  20  26
ENDBRANCH  18  20
ENDBRANCH  12  18
ENDBRANCH   1  15
BRANCH  11  30
ATOM     30  C   UNL     1      -0.083  12.645  18.394  0.00  0.00    +0.000 C 
BRANCH  30  31
ATOM     31  C   UNL     1       0.680  13.398  19.452  0.00  0.00    +0.000 A 
ATOM     32  C   UNL     1       0.108  13.861  20.642  0.00  0.00    +0.000 A 
ATOM     33  C   UNL     1       0.923  14.337  21.678  0.00  0.00    +0.000 A 
ATOM     34  C   UNL     1       2.314  14.348  21.550  0.00  0.00    +0.000 A 
ATOM     35  C   UNL     1       2.900  13.912  20.370  0.00  0.00    +0.000 A 
ATOM     36  C   UNL     1       2.094  13.451  19.330  0.00  0.00    +0.000 A 
ATOM     37 CL   UNL     1       2.915  12.863  17.918  0.00  0.00    +0.000 Cl
ENDBRANCH  30  31
ENDBRANCH  11  30
TORSDOF 7
ENDMDL
