MODEL 1
REMARK VINA RESULT:      -8.2      0.000      0.000
REMARK  Name = 
REMARK  7 active torsions:
REMARK  status: ('A' for Active; 'I' for Inactive)
REMARK    1  A    between atoms: C_1  and  O_2
REMARK    2  A    between atoms: O_2  and  C_3
REMARK    3  A    between atoms: C_6  and  C_7
REMARK    4  A    between atoms: N_13  and  C_14
REMARK    5  A    between atoms: N_17  and  C_18
REMARK    6  A    between atoms: C_19  and  C_20
REMARK    7  A    between atoms: C_19  and  C_24
REMARK                            x       y       z     vdW  Elec       q    Type
REMARK                         _______ _______ _______ _____ _____    ______ ____
ROOT
ATOM      1  C   UNL     1       2.429   6.853  19.413  0.00  0.00    +0.000 C 
ATOM      2  N   UNL     1       3.283   7.140  18.480  0.00  0.00    +0.000 NA
ATOM      3  C   UNL     1       3.900   6.102  17.825  0.00  0.00    +0.000 A 
ATOM      4  C   UNL     1       3.604   4.820  18.049  0.00  0.00    +0.000 A 
ATOM      5  C   UNL     1       4.257   3.774  17.247  0.00  0.00    +0.000 A 
ATOM      6  O   UNL     1       3.891   2.614  17.423  0.00  0.00    +0.000 OA
ATOM      7  N   UNL     1       5.223   4.178  16.362  0.00  0.00    +0.000 N 
ATOM      8  C   UNL     1       5.905   3.178  15.559  0.00  0.00    +0.000 C 
ATOM      9  C   UNL     1       5.567   5.504  16.143  0.00  0.00    +0.000 A 
ATOM     10  O   UNL     1       6.431   5.816  15.321  0.00  0.00    +0.000 OA
ATOM     11  N   UNL     1       4.869   6.447  16.896  0.00  0.00    +0.000 N 
ATOM     12  C   UNL     1       5.199   7.856  16.704  0.00  0.00    +0.000 C 
ATOM     13  C   UNL     1       2.578   4.356  19.055  0.00  0.00    +0.000 C 
ATOM     14  N   UNL     1       2.110   5.579  19.789  0.00  0.00    +0.000 N 
ATOM     15  H   UNL     1       1.243   5.442  20.307  0.00  0.00    +0.000 HD
ENDROOT
BRANCH   1  19
ATOM     16  C   UNL     1       0.552  10.141  21.459  0.00  0.00    +0.000 A 
ATOM     17  C   UNL     1       0.902   8.984  22.162  0.00  0.00    +0.000 A 
ATOM     18  C   UNL     1       1.498   7.900  21.507  0.00  0.00    +0.000 A 
ATOM     19  C   UNL     1       1.734   7.970  20.133  0.00  0.00    +0.000 A 
ATOM     20  C   UNL     1       1.344   9.113  19.421  0.00  0.00    +0.000 A 
ATOM     21  C   UNL     1       0.759  10.196  20.082  0.00  0.00    +0.000 A 
BRANCH  16  23
ATOM     22  C   UNL     1      -1.062  10.724  23.088  0.00  0.00    +0.000 C 
ATOM     23  O   UNL     1      -0.023  11.134  22.204  0.00  0.00    +0.000 OA
ENDBRANCH  16  23
ENDBRANCH   1  19
BRANCH  13  24
ATOM     24  C   UNL     1       1.358   3.705  18.349  0.00  0.00    +0.000 C 
ATOM     25  F   UNL     1       0.923   4.437  17.290  0.00  0.00    +0.000 F 
ATOM     26  F   UNL     1       1.514   2.443  17.916  0.00  0.00    +0.000 F 
ATOM     27  F   UNL     1       0.298   3.666  19.213  0.00  0.00    +0.000 F 
ENDBRANCH  13  24
BRANCH  13  28
ATOM     28  C   UNL     1       3.182   3.377  20.102  0.00  0.00    +0.000 C 
ATOM     29  F   UNL     1       4.537   3.447  20.154  0.00  0.00    +0.000 F 
ATOM     30  F   UNL     1       2.766   3.717  21.360  0.00  0.00    +0.000 F 
ATOM     31  F   UNL     1       2.857   2.080  19.964  0.00  0.00    +0.000 F 
ENDBRANCH  13  28
TORSDOF 4
ENDMDL
MODEL 2
REMARK VINA RESULT:      -7.9      0.226      1.128
REMARK  Name = 
REMARK  7 active torsions:
REMARK  status: ('A' for Active; 'I' for Inactive)
REMARK    1  A    between atoms: C_1  and  O_2
REMARK    2  A    between atoms: O_2  and  C_3
REMARK    3  A    between atoms: C_6  and  C_7
REMARK    4  A    between atoms: N_13  and  C_14
REMARK    5  A    between atoms: N_17  and  C_18
REMARK    6  A    between atoms: C_19  and  C_20
REMARK    7  A    between atoms: C_19  and  C_24
REMARK                            x       y       z     vdW  Elec       q    Type
REMARK                         _______ _______ _______ _____ _____    ______ ____
ROOT
ATOM      1  C   UNL     1       2.351   6.845  19.329  0.00  0.00    +0.000 C 
ATOM      2  N   UNL     1       3.215   7.136  18.406  0.00  0.00    +0.000 NA
ATOM      3  C   UNL     1       3.871   6.101  17.785  0.00  0.00    +0.000 A 
ATOM      4  C   UNL     1       3.604   4.817  18.030  0.00  0.00    +0.000 A 
ATOM      5  C   UNL     1       4.299   3.771  17.264  0.00  0.00    +0.000 A 
ATOM      6  O   UNL     1       3.959   2.606  17.457  0.00  0.00    +0.000 OA
ATOM      7  N   UNL     1       5.271   4.182  16.388  0.00  0.00    +0.000 N 
ATOM      8  C   UNL     1       5.993   3.184  15.619  0.00  0.00    +0.000 C 
ATOM      9  C   UNL     1       5.585   5.512  16.147  0.00  0.00    +0.000 A 
ATOM     10  O   UNL     1       6.456   5.829  15.335  0.00  0.00    +0.000 OA
ATOM     11  N   UNL     1       4.848   6.451  16.867  0.00  0.00    +0.000 N 
ATOM     12  C   UNL     1       5.145   7.865  16.652  0.00  0.00    +0.000 C 
ATOM     13  C   UNL     1       2.571   4.346  19.027  0.00  0.00    +0.000 C 
ATOM     14  N   UNL     1       2.058   5.572  19.726  0.00  0.00    +0.000 N 
ATOM     15  H   UNL     1       1.185   5.422  20.230  0.00  0.00    +0.000 HD
ENDROOT
BRANCH   1  19
ATOM     16  C   UNL     1       0.113   9.961  21.280  0.00  0.00    +0.000 A 
ATOM     17  C   UNL     1       0.637  10.169  19.999  0.00  0.00    +0.000 A 
ATOM     18  C   UNL     1       1.381   9.171  19.360  0.00  0.00    +0.000 A 
ATOM     19  C   UNL     1       1.613   7.958  20.012  0.00  0.00    +0.000 A 
ATOM     20  C   UNL     1       1.125   7.768  21.312  0.00  0.00    +0.000 A 
ATOM     21  C   UNL     1       0.374   8.763  21.942  0.00  0.00    +0.000 A 
BRANCH  16  23
ATOM     22  C   UNL     1      -1.119  10.807  23.115  0.00  0.00    +0.000 C 
ATOM     23  O   UNL     1      -0.596  11.007  21.805  0.00  0.00    +0.000 OA
ENDBRANCH  16  23
ENDBRANCH   1  19
BRANCH  13  24
ATOM     24  C   UNL     1       1.382   3.649  18.313  0.00  0.00    +0.000 C 
ATOM     25  F   UNL     1       0.916   4.373  17.261  0.00  0.00    +0.000 F 
ATOM     26  F   UNL     1       1.595   2.400  17.866  0.00  0.00    +0.000 F 
ATOM     27  F   UNL     1       0.325   3.553  19.175  0.00  0.00    +0.000 F 
ENDBRANCH  13  24
BRANCH  13  28
ATOM     28  C   UNL     1       3.180   3.405  20.106  0.00  0.00    +0.000 C 
ATOM     29  F   UNL     1       2.751   3.709  21.359  0.00  0.00    +0.000 F 
ATOM     30  F   UNL     1       2.767   2.119  19.898  0.00  0.00    +0.000 F 
ATOM     31  F   UNL     1       4.522   3.340  20.152  0.00  0.00    +0.000 F 
ENDBRANCH  13  28
TORSDOF 4
ENDMDL
MODEL 3
REMARK VINA RESULT:      -7.3      0.961      1.205
REMARK  Name = 
REMARK  7 active torsions:
REMARK  status: ('A' for Active; 'I' for Inactive)
REMARK    1  A    between atoms: C_1  and  O_2
REMARK    2  A    between atoms: O_2  and  C_3
REMARK    3  A    between atoms: C_6  and  C_7
REMARK    4  A    between atoms: N_13  and  C_14
REMARK    5  A    between atoms: N_17  and  C_18
REMARK    6  A    between atoms: C_19  and  C_20
REMARK    7  A    between atoms: C_19  and  C_24
REMARK                            x       y       z     vdW  Elec       q    Type
REMARK                         _______ _______ _______ _____ _____    ______ ____
ROOT
ATOM      1  C   UNL     1       2.078   6.599  20.069  0.00  0.00    +0.000 C 
ATOM      2  N   UNL     1       2.791   7.077  19.097  0.00  0.00    +0.000 NA
ATOM      3  C   UNL     1       3.439   6.190  18.273  0.00  0.00    +0.000 A 
ATOM      4  C   UNL     1       3.306   4.866  18.378  0.00  0.00    +0.000 A 
ATOM      5  C   UNL     1       3.976   3.990  17.404  0.00  0.00    +0.000 A 
ATOM      6  O   UNL     1       3.755   2.783  17.482  0.00  0.00    +0.000 OA
ATOM      7  N   UNL     1       4.792   4.591  16.481  0.00  0.00    +0.000 N 
ATOM      8  C   UNL     1       5.485   3.765  15.509  0.00  0.00    +0.000 C 
ATOM      9  C   UNL     1       4.968   5.964  16.381  0.00  0.00    +0.000 A 
ATOM     10  O   UNL     1       5.701   6.457  15.520  0.00  0.00    +0.000 OA
ATOM     11  N   UNL     1       4.261   6.738  17.299  0.00  0.00    +0.000 N 
ATOM     12  C   UNL     1       4.417   8.188  17.238  0.00  0.00    +0.000 C 
ATOM     13  C   UNL     1       2.450   4.185  19.419  0.00  0.00    +0.000 C 
ATOM     14  N   UNL     1       1.938   5.265  20.328  0.00  0.00    +0.000 N 
ATOM     15  H   UNL     1       1.151   4.975  20.908  0.00  0.00    +0.000 HD
ENDROOT
BRANCH   1  19
ATOM     16  C   UNL     1      -0.058   9.393  22.549  0.00  0.00    +0.000 A 
ATOM     17  C   UNL     1       1.341   9.394  22.533  0.00  0.00    +0.000 A 
ATOM     18  C   UNL     1       2.049   8.481  21.744  0.00  0.00    +0.000 A 
ATOM     19  C   UNL     1       1.351   7.548  20.975  0.00  0.00    +0.000 A 
ATOM     20  C   UNL     1      -0.050   7.519  21.025  0.00  0.00    +0.000 A 
ATOM     21  C   UNL     1      -0.752   8.440  21.805  0.00  0.00    +0.000 A 
BRANCH  16  23
ATOM     22  C   UNL     1      -0.949  11.577  22.742  0.00  0.00    +0.000 C 
ATOM     23  O   UNL     1      -0.641  10.330  23.358  0.00  0.00    +0.000 OA
ENDBRANCH  16  23
ENDBRANCH   1  19
BRANCH  13  24
ATOM     24  C   UNL     1       1.237   3.472  18.765  0.00  0.00    +0.000 C 
ATOM     25  F   UNL     1       0.780   4.131  17.668  0.00  0.00    +0.000 F 
ATOM     26  F   UNL     1       1.412   2.189  18.408  0.00  0.00    +0.000 F 
ATOM     27  F   UNL     1       0.185   3.466  19.640  0.00  0.00    +0.000 F 
ENDBRANCH  13  24
BRANCH  13  28
ATOM     28  C   UNL     1       3.264   3.182  20.286  0.00  0.00    +0.000 C 
ATOM     29  F   UNL     1       3.193   1.911  19.812  0.00  0.00    +0.000 F 
ATOM     30  F   UNL     1       4.595   3.496  20.247  0.00  0.00    +0.000 F 
ATOM     31  F   UNL     1       2.953   3.135  21.594  0.00  0.00    +0.000 F 
ENDBRANCH  13  28
TORSDOF 4
ENDMDL
MODEL 4
REMARK VINA RESULT:      -7.0      0.944      1.407
REMARK  Name = 
REMARK  7 active torsions:
REMARK  status: ('A' for Active; 'I' for Inactive)
REMARK    1  A    between atoms: C_1  and  O_2
REMARK    2  A    between atoms: O_2  and  C_3
REMARK    3  A    between atoms: C_6  and  C_7
REMARK    4  A    between atoms: N_13  and  C_14
REMARK    5  A    between atoms: N_17  and  C_18
REMARK    6  A    between atoms: C_19  and  C_20
REMARK    7  A    between atoms: C_19  and  C_24
REMARK                            x       y       z     vdW  Elec       q    Type
REMARK                         _______ _______ _______ _____ _____    ______ ____
ROOT
ATOM      1  C   UNL     1       2.077   6.594  20.028  0.00  0.00    +0.000 C 
ATOM      2  N   UNL     1       2.820   7.041  19.063  0.00  0.00    +0.000 NA
ATOM      3  C   UNL     1       3.464   6.127  18.266  0.00  0.00    +0.000 A 
ATOM      4  C   UNL     1       3.300   4.809  18.388  0.00  0.00    +0.000 A 
ATOM      5  C   UNL     1       3.969   3.903  17.442  0.00  0.00    +0.000 A 
ATOM      6  O   UNL     1       3.720   2.702  17.534  0.00  0.00    +0.000 OA
ATOM      7  N   UNL     1       4.816   4.471  16.526  0.00  0.00    +0.000 N 
ATOM      8  C   UNL     1       5.509   3.614  15.581  0.00  0.00    +0.000 C 
ATOM      9  C   UNL     1       5.025   5.838  16.409  0.00  0.00    +0.000 A 
ATOM     10  O   UNL     1       5.785   6.300  15.555  0.00  0.00    +0.000 OA
ATOM     11  N   UNL     1       4.316   6.641  17.300  0.00  0.00    +0.000 N 
ATOM     12  C   UNL     1       4.506   8.087  17.219  0.00  0.00    +0.000 C 
ATOM     13  C   UNL     1       2.408   4.163  19.422  0.00  0.00    +0.000 C 
ATOM     14  N   UNL     1       1.903   5.268  20.305  0.00  0.00    +0.000 N 
ATOM     15  H   UNL     1       1.098   5.005  20.873  0.00  0.00    +0.000 HD
ENDROOT
BRANCH   1  19
ATOM     16  C   UNL     1       0.049   9.333  22.657  0.00  0.00    +0.000 A 
ATOM     17  C   UNL     1      -0.686   8.468  21.839  0.00  0.00    +0.000 A 
ATOM     18  C   UNL     1      -0.041   7.584  20.967  0.00  0.00    +0.000 A 
ATOM     19  C   UNL     1       1.354   7.574  20.904  0.00  0.00    +0.000 A 
ATOM     20  C   UNL     1       2.089   8.470  21.692  0.00  0.00    +0.000 A 
ATOM     21  C   UNL     1       1.440   9.343  22.568  0.00  0.00    +0.000 A 
BRANCH  16  23
ATOM     22  C   UNL     1      -1.222  11.319  22.850  0.00  0.00    +0.000 C 
ATOM     23  O   UNL     1      -0.689  10.152  23.467  0.00  0.00    +0.000 OA
ENDBRANCH  16  23
ENDBRANCH   1  19
BRANCH  13  24
ATOM     24  C   UNL     1       1.193   3.466  18.756  0.00  0.00    +0.000 C 
ATOM     25  F   UNL     1       1.500   2.229  18.286  0.00  0.00    +0.000 F 
ATOM     26  F   UNL     1       0.085   3.339  19.505  0.00  0.00    +0.000 F 
ATOM     27  F   UNL     1       0.807   4.178  17.653  0.00  0.00    +0.000 F 
ENDBRANCH  13  24
BRANCH  13  28
ATOM     28  C   UNL     1       3.183   3.157  20.321  0.00  0.00    +0.000 C 
ATOM     29  F   UNL     1       3.054   1.875  19.892  0.00  0.00    +0.000 F 
ATOM     30  F   UNL     1       4.525   3.411  20.266  0.00  0.00    +0.000 F 
ATOM     31  F   UNL     1       2.877   3.169  21.631  0.00  0.00    +0.000 F 
ENDBRANCH  13  28
TORSDOF 4
ENDMDL
MODEL 5
REMARK VINA RESULT:      -7.0      2.542      4.378
REMARK  Name = 
REMARK  7 active torsions:
REMARK  status: ('A' for Active; 'I' for Inactive)
REMARK    1  A    between atoms: C_1  and  O_2
REMARK    2  A    between atoms: O_2  and  C_3
REMARK    3  A    between atoms: C_6  and  C_7
REMARK    4  A    between atoms: N_13  and  C_14
REMARK    5  A    between atoms: N_17  and  C_18
REMARK    6  A    between atoms: C_19  and  C_20
REMARK    7  A    between atoms: C_19  and  C_24
REMARK                            x       y       z     vdW  Elec       q    Type
REMARK                         _______ _______ _______ _____ _____    ______ ____
ROOT
ATOM      1  C   UNL     1       2.758   7.131  18.500  0.00  0.00    +0.000 C 
ATOM      2  N   UNL     1       2.166   6.079  18.977  0.00  0.00    +0.000 NA
ATOM      3  C   UNL     1       2.730   4.852  18.730  0.00  0.00    +0.000 A 
ATOM      4  C   UNL     1       3.893   4.698  18.094  0.00  0.00    +0.000 A 
ATOM      5  C   UNL     1       4.464   3.351  17.940  0.00  0.00    +0.000 A 
ATOM      6  O   UNL     1       5.578   3.263  17.428  0.00  0.00    +0.000 OA
ATOM      7  N   UNL     1       3.708   2.298  18.385  0.00  0.00    +0.000 N 
ATOM      8  C   UNL     1       4.225   0.949  18.242  0.00  0.00    +0.000 C 
ATOM      9  C   UNL     1       2.481   2.439  19.018  0.00  0.00    +0.000 A 
ATOM     10  O   UNL     1       1.848   1.459  19.417  0.00  0.00    +0.000 OA
ATOM     11  N   UNL     1       2.026   3.746  19.181  0.00  0.00    +0.000 N 
ATOM     12  C   UNL     1       0.737   3.946  19.837  0.00  0.00    +0.000 C 
ATOM     13  C   UNL     1       4.716   5.844  17.554  0.00  0.00    +0.000 C 
ATOM     14  N   UNL     1       3.905   7.091  17.760  0.00  0.00    +0.000 N 
ATOM     15  H   UNL     1       4.445   7.951  17.678  0.00  0.00    +0.000 HD
ENDROOT
BRANCH   1  19
ATOM     16  C   UNL     1       0.929  10.953  19.253  0.00  0.00    +0.000 A 
ATOM     17  C   UNL     1       1.676  10.749  18.087  0.00  0.00    +0.000 A 
ATOM     18  C   UNL     1       2.290   9.516  17.838  0.00  0.00    +0.000 A 
ATOM     19  C   UNL     1       2.167   8.483  18.768  0.00  0.00    +0.000 A 
ATOM     20  C   UNL     1       1.454   8.702  19.956  0.00  0.00    +0.000 A 
ATOM     21  C   UNL     1       0.834   9.931  20.195  0.00  0.00    +0.000 A 
BRANCH  16  23
ATOM     22  C   UNL     1      -0.611  12.548  18.424  0.00  0.00    +0.000 C 
ATOM     23  O   UNL     1       0.376  12.197  19.390  0.00  0.00    +0.000 OA
ENDBRANCH  16  23
ENDBRANCH   1  19
BRANCH  13  24
ATOM     24  C   UNL     1       6.051   5.987  18.330  0.00  0.00    +0.000 C 
ATOM     25  F   UNL     1       5.895   5.799  19.666  0.00  0.00    +0.000 F 
ATOM     26  F   UNL     1       7.065   5.198  17.938  0.00  0.00    +0.000 F 
ATOM     27  F   UNL     1       6.517   7.268  18.204  0.00  0.00    +0.000 F 
ENDBRANCH  13  24
BRANCH  13  28
ATOM     28  C   UNL     1       4.989   5.704  16.028  0.00  0.00    +0.000 C 
ATOM     29  F   UNL     1       4.218   4.746  15.450  0.00  0.00    +0.000 F 
ATOM     30  F   UNL     1       4.653   6.861  15.381  0.00  0.00    +0.000 F 
ATOM     31  F   UNL     1       6.261   5.458  15.670  0.00  0.00    +0.000 F 
ENDBRANCH  13  28
TORSDOF 4
ENDMDL
MODEL 6
REMARK VINA RESULT:      -7.0      2.062      6.924
REMARK  Name = 
REMARK  7 active torsions:
REMARK  status: ('A' for Active; 'I' for Inactive)
REMARK    1  A    between atoms: C_1  and  O_2
REMARK    2  A    between atoms: O_2  and  C_3
REMARK    3  A    between atoms: C_6  and  C_7
REMARK    4  A    between atoms: N_13  and  C_14
REMARK    5  A    between atoms: N_17  and  C_18
REMARK    6  A    between atoms: C_19  and  C_20
REMARK    7  A    between atoms: C_19  and  C_24
REMARK                            x       y       z     vdW  Elec       q    Type
REMARK                         _______ _______ _______ _____ _____    ______ ____
ROOT
ATOM      1  C   UNL     1       4.345   4.695  16.581  0.00  0.00    +0.000 C 
ATOM      2  N   UNL     1       4.037   5.908  16.923  0.00  0.00    +0.000 NA
ATOM      3  C   UNL     1       3.254   6.088  18.037  0.00  0.00    +0.000 A 
ATOM      4  C   UNL     1       2.864   5.083  18.824  0.00  0.00    +0.000 A 
ATOM      5  C   UNL     1       2.091   5.373  20.041  0.00  0.00    +0.000 A 
ATOM      6  O   UNL     1       1.828   4.429  20.784  0.00  0.00    +0.000 OA
ATOM      7  N   UNL     1       1.727   6.677  20.254  0.00  0.00    +0.000 N 
ATOM      8  C   UNL     1       0.952   7.008  21.436  0.00  0.00    +0.000 C 
ATOM      9  C   UNL     1       2.096   7.729  19.427  0.00  0.00    +0.000 A 
ATOM     10  O   UNL     1       1.757   8.888  19.673  0.00  0.00    +0.000 OA
ATOM     11  N   UNL     1       2.874   7.390  18.322  0.00  0.00    +0.000 N 
ATOM     12  C   UNL     1       3.284   8.462  17.418  0.00  0.00    +0.000 C 
ATOM     13  C   UNL     1       3.214   3.635  18.577  0.00  0.00    +0.000 C 
ATOM     14  N   UNL     1       3.930   3.583  17.258  0.00  0.00    +0.000 N 
ATOM     15  H   UNL     1       4.442   2.716  17.101  0.00  0.00    +0.000 HD
ENDROOT
BRANCH   1  19
ATOM     16  C   UNL     1       6.817   4.207  13.092  0.00  0.00    +0.000 A 
ATOM     17  C   UNL     1       5.527   3.666  13.121  0.00  0.00    +0.000 A 
ATOM     18  C   UNL     1       4.718   3.802  14.255  0.00  0.00    +0.000 A 
ATOM     19  C   UNL     1       5.209   4.475  15.375  0.00  0.00    +0.000 A 
ATOM     20  C   UNL     1       6.517   4.980  15.362  0.00  0.00    +0.000 A 
ATOM     21  C   UNL     1       7.316   4.850  14.223  0.00  0.00    +0.000 A 
BRANCH  16  23
ATOM     22  C   UNL     1       7.403   2.714  11.351  0.00  0.00    +0.000 C 
ATOM     23  O   UNL     1       7.515   4.010  11.932  0.00  0.00    +0.000 OA
ENDBRANCH  16  23
ENDBRANCH   1  19
BRANCH  13  24
ATOM     24  C   UNL     1       4.165   3.095  19.678  0.00  0.00    +0.000 C 
ATOM     25  F   UNL     1       5.205   3.936  19.920  0.00  0.00    +0.000 F 
ATOM     26  F   UNL     1       3.610   2.805  20.866  0.00  0.00    +0.000 F 
ATOM     27  F   UNL     1       4.743   1.930  19.252  0.00  0.00    +0.000 F 
ENDBRANCH  13  24
BRANCH  13  28
ATOM     28  C   UNL     1       1.951   2.734  18.465  0.00  0.00    +0.000 C 
ATOM     29  F   UNL     1       0.849   3.433  18.088  0.00  0.00    +0.000 F 
ATOM     30  F   UNL     1       2.124   1.799  17.483  0.00  0.00    +0.000 F 
ATOM     31  F   UNL     1       1.618   2.033  19.563  0.00  0.00    +0.000 F 
ENDBRANCH  13  28
TORSDOF 4
ENDMDL
MODEL 7
REMARK VINA RESULT:      -7.0      9.215     10.938
REMARK  Name = 
REMARK  7 active torsions:
REMARK  status: ('A' for Active; 'I' for Inactive)
REMARK    1  A    between atoms: C_1  and  O_2
REMARK    2  A    between atoms: O_2  and  C_3
REMARK    3  A    between atoms: C_6  and  C_7
REMARK    4  A    between atoms: N_13  and  C_14
REMARK    5  A    between atoms: N_17  and  C_18
REMARK    6  A    between atoms: C_19  and  C_20
REMARK    7  A    between atoms: C_19  and  C_24
REMARK                            x       y       z     vdW  Elec       q    Type
REMARK                         _______ _______ _______ _____ _____    ______ ____
ROOT
ATOM      1  C   UNL     1       8.686  13.249  21.636  0.00  0.00    +0.000 C 
ATOM      2  N   UNL     1       8.447  14.467  21.261  0.00  0.00    +0.000 NA
ATOM      3  C   UNL     1       9.027  14.913  20.098  0.00  0.00    +0.000 A 
ATOM      4  C   UNL     1       9.757  14.129  19.301  0.00  0.00    +0.000 A 
ATOM      5  C   UNL     1      10.278  14.666  18.035  0.00  0.00    +0.000 A 
ATOM      6  O   UNL     1      10.868  13.887  17.289  0.00  0.00    +0.000 OA
ATOM      7  N   UNL     1      10.059  15.996  17.783  0.00  0.00    +0.000 N 
ATOM      8  C   UNL     1      10.567  16.573  16.552  0.00  0.00    +0.000 C 
ATOM      9  C   UNL     1       9.332  16.832  18.619  0.00  0.00    +0.000 A 
ATOM     10  O   UNL     1       9.148  18.019  18.338  0.00  0.00    +0.000 OA
ATOM     11  N   UNL     1       8.820  16.245  19.774  0.00  0.00    +0.000 N 
ATOM     12  C   UNL     1       8.052  17.085  20.688  0.00  0.00    +0.000 C 
ATOM     13  C   UNL     1      10.049  12.675  19.587  0.00  0.00    +0.000 C 
ATOM     14  N   UNL     1       9.486  12.383  20.948  0.00  0.00    +0.000 N 
ATOM     15  H   UNL     1       9.388  11.388  21.147  0.00  0.00    +0.000 HD
ENDROOT
BRANCH   1  19
ATOM     16  C   UNL     1       6.970  11.679  25.257  0.00  0.00    +0.000 A 
ATOM     17  C   UNL     1       6.275  11.575  24.047  0.00  0.00    +0.000 A 
ATOM     18  C   UNL     1       6.813  12.096  22.865  0.00  0.00    +0.000 A 
ATOM     19  C   UNL     1       8.052  12.738  22.895  0.00  0.00    +0.000 A 
ATOM     20  C   UNL     1       8.728  12.879  24.115  0.00  0.00    +0.000 A 
ATOM     21  C   UNL     1       8.192  12.348  25.290  0.00  0.00    +0.000 A 
BRANCH  16  23
ATOM     22  C   UNL     1       6.882  11.497  27.615  0.00  0.00    +0.000 C 
ATOM     23  O   UNL     1       6.346  11.134  26.346  0.00  0.00    +0.000 OA
ENDBRANCH  16  23
ENDBRANCH   1  19
BRANCH  13  24
ATOM     24  C   UNL     1       9.351  11.752  18.553  0.00  0.00    +0.000 C 
ATOM     25  F   UNL     1       8.915  10.591  19.109  0.00  0.00    +0.000 F 
ATOM     26  F   UNL     1       8.315  12.277  17.879  0.00  0.00    +0.000 F 
ATOM     27  F   UNL     1      10.253  11.372  17.598  0.00  0.00    +0.000 F 
ENDBRANCH  13  24
BRANCH  13  28
ATOM     28  C   UNL     1      11.576  12.379  19.632  0.00  0.00    +0.000 C 
ATOM     29  F   UNL     1      12.311  13.491  19.896  0.00  0.00    +0.000 F 
ATOM     30  F   UNL     1      11.859  11.521  20.658  0.00  0.00    +0.000 F 
ATOM     31  F   UNL     1      12.105  11.805  18.537  0.00  0.00    +0.000 F 
ENDBRANCH  13  28
TORSDOF 4
ENDMDL
MODEL 8
REMARK VINA RESULT:      -7.0      9.131     10.828
REMARK  Name = 
REMARK  7 active torsions:
REMARK  status: ('A' for Active; 'I' for Inactive)
REMARK    1  A    between atoms: C_1  and  O_2
REMARK    2  A    between atoms: O_2  and  C_3
REMARK    3  A    between atoms: C_6  and  C_7
REMARK    4  A    between atoms: N_13  and  C_14
REMARK    5  A    between atoms: N_17  and  C_18
REMARK    6  A    between atoms: C_19  and  C_20
REMARK    7  A    between atoms: C_19  and  C_24
REMARK                            x       y       z     vdW  Elec       q    Type
REMARK                         _______ _______ _______ _____ _____    ______ ____
ROOT
ATOM      1  C   UNL     1       8.727  13.054  21.461  0.00  0.00    +0.000 C 
ATOM      2  N   UNL     1       8.412  14.252  21.077  0.00  0.00    +0.000 NA
ATOM      3  C   UNL     1       8.996  14.740  19.934  0.00  0.00    +0.000 A 
ATOM      4  C   UNL     1       9.807  14.014  19.162  0.00  0.00    +0.000 A 
ATOM      5  C   UNL     1      10.329  14.589  17.913  0.00  0.00    +0.000 A 
ATOM      6  O   UNL     1      10.998  13.857  17.187  0.00  0.00    +0.000 OA
ATOM      7  N   UNL     1      10.021  15.900  17.653  0.00  0.00    +0.000 N 
ATOM      8  C   UNL     1      10.526  16.515  16.438  0.00  0.00    +0.000 C 
ATOM      9  C   UNL     1       9.208  16.680  18.464  0.00  0.00    +0.000 A 
ATOM     10  O   UNL     1       8.947  17.850  18.176  0.00  0.00    +0.000 OA
ATOM     11  N   UNL     1       8.703  16.054  19.602  0.00  0.00    +0.000 N 
ATOM     12  C   UNL     1       7.846  16.835  20.489  0.00  0.00    +0.000 C 
ATOM     13  C   UNL     1      10.195  12.584  19.458  0.00  0.00    +0.000 C 
ATOM     14  N   UNL     1       9.611  12.249  20.800  0.00  0.00    +0.000 N 
ATOM     15  H   UNL     1       9.579  11.249  20.996  0.00  0.00    +0.000 HD
ENDROOT
BRANCH   1  19
ATOM     16  C   UNL     1       6.838  11.580  25.036  0.00  0.00    +0.000 A 
ATOM     17  C   UNL     1       8.224  11.769  25.000  0.00  0.00    +0.000 A 
ATOM     18  C   UNL     1       8.854  12.231  23.839  0.00  0.00    +0.000 A 
ATOM     19  C   UNL     1       8.092  12.496  22.699  0.00  0.00    +0.000 A 
ATOM     20  C   UNL     1       6.709  12.265  22.722  0.00  0.00    +0.000 A 
ATOM     21  C   UNL     1       6.084  11.813  23.887  0.00  0.00    +0.000 A 
BRANCH  16  23
ATOM     22  C   UNL     1       6.246  12.084  27.271  0.00  0.00    +0.000 C 
ATOM     23  O   UNL     1       6.334  11.123  26.223  0.00  0.00    +0.000 OA
ENDBRANCH  16  23
ENDBRANCH   1  19
BRANCH  13  24
ATOM     24  C   UNL     1       9.600  11.614  18.403  0.00  0.00    +0.000 C 
ATOM     25  F   UNL     1       8.520  12.140  17.768  0.00  0.00    +0.000 F 
ATOM     26  F   UNL     1      10.438  11.171  17.451  0.00  0.00    +0.000 F 
ATOM     27  F   UNL     1       9.132  10.491  19.028  0.00  0.00    +0.000 F 
ENDBRANCH  13  24
BRANCH  13  28
ATOM     28  C   UNL     1      11.737  12.401  19.553  0.00  0.00    +0.000 C 
ATOM     29  F   UNL     1      12.292  12.056  18.362  0.00  0.00    +0.000 F 
ATOM     30  F   UNL     1      12.333  13.585  19.887  0.00  0.00    +0.000 F 
ATOM     31  F   UNL     1      12.177  11.516  20.465  0.00  0.00    +0.000 F 
ENDBRANCH  13  28
TORSDOF 4
ENDMDL
MODEL 9
REMARK VINA RESULT:      -6.9      5.224      8.808
REMARK  Name = 
REMARK  7 active torsions:
REMARK  status: ('A' for Active; 'I' for Inactive)
REMARK    1  A    between atoms: C_1  and  O_2
REMARK    2  A    between atoms: O_2  and  C_3
REMARK    3  A    between atoms: C_6  and  C_7
REMARK    4  A    between atoms: N_13  and  C_14
REMARK    5  A    between atoms: N_17  and  C_18
REMARK    6  A    between atoms: C_19  and  C_20
REMARK    7  A    between atoms: C_19  and  C_24
REMARK                            x       y       z     vdW  Elec       q    Type
REMARK                         _______ _______ _______ _____ _____    ______ ____
ROOT
ATOM      1  C   UNL     1       1.078  10.351  19.064  0.00  0.00    +0.000 C 
ATOM      2  N   UNL     1       1.792  11.409  18.830  0.00  0.00    +0.000 NA
ATOM      3  C   UNL     1       1.193  12.637  18.965  0.00  0.00    +0.000 A 
ATOM      4  C   UNL     1      -0.060  12.794  19.399  0.00  0.00    +0.000 A 
ATOM      5  C   UNL     1      -0.598  14.150  19.588  0.00  0.00    +0.000 A 
ATOM      6  O   UNL     1      -1.723  14.251  20.074  0.00  0.00    +0.000 OA
ATOM      7  N   UNL     1       0.202  15.197  19.211  0.00  0.00    +0.000 N 
ATOM      8  C   UNL     1      -0.293  16.554  19.366  0.00  0.00    +0.000 C 
ATOM      9  C   UNL     1       1.493  15.050  18.725  0.00  0.00    +0.000 A 
ATOM     10  O   UNL     1       2.179  16.027  18.416  0.00  0.00    +0.000 OA
ATOM     11  N   UNL     1       1.960  13.740  18.624  0.00  0.00    +0.000 N 
ATOM     12  C   UNL     1       3.312  13.533  18.114  0.00  0.00    +0.000 C 
ATOM     13  C   UNL     1      -0.971  11.650  19.773  0.00  0.00    +0.000 C 
ATOM     14  N   UNL     1      -0.238  10.385  19.429  0.00  0.00    +0.000 N 
ATOM     15  H   UNL     1      -0.630   9.551  19.865  0.00  0.00    +0.000 HD
ENDROOT
BRANCH   1  19
ATOM     16  C   UNL     1       3.004   6.513  18.793  0.00  0.00    +0.000 A 
ATOM     17  C   UNL     1       3.042   7.396  17.709  0.00  0.00    +0.000 A 
ATOM     18  C   UNL     1       2.406   8.641  17.776  0.00  0.00    +0.000 A 
ATOM     19  C   UNL     1       1.715   9.000  18.935  0.00  0.00    +0.000 A 
ATOM     20  C   UNL     1       1.641   8.097  20.005  0.00  0.00    +0.000 A 
ATOM     21  C   UNL     1       2.287   6.860  19.935  0.00  0.00    +0.000 A 
BRANCH  16  23
ATOM     22  C   UNL     1       4.964   5.243  19.180  0.00  0.00    +0.000 C 
ATOM     23  O   UNL     1       3.660   5.326  18.611  0.00  0.00    +0.000 OA
ENDBRANCH  16  23
ENDBRANCH   1  19
BRANCH  13  24
ATOM     24  C   UNL     1      -1.272  11.649  21.295  0.00  0.00    +0.000 C 
ATOM     25  F   UNL     1      -0.365  12.374  22.001  0.00  0.00    +0.000 F 
ATOM     26  F   UNL     1      -2.491  12.073  21.669  0.00  0.00    +0.000 F 
ATOM     27  F   UNL     1      -1.164  10.375  21.781  0.00  0.00    +0.000 F 
ENDBRANCH  13  24
BRANCH  13  28
ATOM     28  C   UNL     1      -2.297  11.664  18.959  0.00  0.00    +0.000 C 
ATOM     29  F   UNL     1      -2.160  12.278  17.755  0.00  0.00    +0.000 F 
ATOM     30  F   UNL     1      -2.680  10.386  18.658  0.00  0.00    +0.000 F 
ATOM     31  F   UNL     1      -3.363  12.216  19.565  0.00  0.00    +0.000 F 
ENDBRANCH  13  28
TORSDOF 4
ENDMDL
