MODEL 1
REMARK VINA RESULT:      -7.9      0.000      0.000
REMARK  Name = 
REMARK  4 active torsions:
REMARK  status: ('A' for Active; 'I' for Inactive)
REMARK    1  A    between atoms: C_1  and  C_2
REMARK    2  A    between atoms: C_2  and  C_3
REMARK    3  A    between atoms: N_9  and  N_10
REMARK    4  A    between atoms: C_11  and  C_13
REMARK                            x       y       z     vdW  Elec       q    Type
REMARK                         _______ _______ _______ _____ _____    ______ ____
ROOT
ATOM      1  C   UNL     1       2.019   4.107  17.699  0.00  0.00    +0.000 C 
ATOM      2  C   UNL     1       1.906   3.602  19.152  0.00  0.00    +0.000 C 
ATOM      3  C   UNL     1       0.458   3.816  19.624  0.00  0.00    +0.000 C 
ATOM      4  C   UNL     1       2.222   2.090  19.219  0.00  0.00    +0.000 C 
ATOM      5  C   UNL     1       3.689   1.816  18.963  0.00  0.00    +0.000 C 
ATOM      6  O   UNL     1       4.063   0.958  18.164  0.00  0.00    +0.000 OA
ATOM      7  C   UNL     1       4.662   2.593  19.807  0.00  0.00    +0.000 C 
ATOM      8  C   UNL     1       4.312   4.051  19.725  0.00  0.00    +0.000 C 
ATOM      9  N   UNL     1       5.083   5.029  19.374  0.00  0.00    +0.000 NA
ATOM     10  C   UNL     1       2.866   4.395  20.069  0.00  0.00    +0.000 C 
ENDROOT
BRANCH   9  11
ATOM     11  N   UNL     1       6.362   4.794  18.982  0.00  0.00    +0.000 N 
ATOM     12  C   UNL     1       6.687   4.611  17.655  0.00  0.00    +0.000 C 
ATOM     13  O   UNL     1       7.833   4.355  17.305  0.00  0.00    +0.000 OA
ATOM     14  H   UNL     1       7.127   4.687  19.638  0.00  0.00    +0.000 HD
BRANCH  12  15
ATOM     15  C   UNL     1       5.578   4.773  16.669  0.00  0.00    +0.000 C 
ATOM     16  C   UNL     1       5.340   6.143  16.067  0.00  0.00    +0.000 C 
ATOM     17  C   UNL     1       5.786   5.010  15.203  0.00  0.00    +0.000 C 
ATOM     18  C   UNL     1       7.037   4.918  14.413  0.00  0.00    +0.000 C 
ATOM     19  C   UNL     1       6.315   3.784  13.659  0.00  0.00    +0.000 C 
ATOM     20  C   UNL     1       4.986   4.419  14.097  0.00  0.00    +0.000 C 
ENDBRANCH  12  15
ENDBRANCH   9  11
TORSDOF 2
ENDMDL
MODEL 2
REMARK VINA RESULT:      -7.4      2.138      3.231
REMARK  Name = 
REMARK  4 active torsions:
REMARK  status: ('A' for Active; 'I' for Inactive)
REMARK    1  A    between atoms: C_1  and  C_2
REMARK    2  A    between atoms: C_2  and  C_3
REMARK    3  A    between atoms: N_9  and  N_10
REMARK    4  A    between atoms: C_11  and  C_13
REMARK                            x       y       z     vdW  Elec       q    Type
REMARK                         _______ _______ _______ _____ _____    ______ ____
ROOT
ATOM      1  C   UNL     1       1.546   5.121  20.769  0.00  0.00    +0.000 C 
ATOM      2  C   UNL     1       2.322   3.822  20.467  0.00  0.00    +0.000 C 
ATOM      3  C   UNL     1       2.417   3.005  21.768  0.00  0.00    +0.000 C 
ATOM      4  C   UNL     1       1.566   2.978  19.416  0.00  0.00    +0.000 C 
ATOM      5  C   UNL     1       1.604   3.626  18.049  0.00  0.00    +0.000 C 
ATOM      6  O   UNL     1       0.592   3.772  17.366  0.00  0.00    +0.000 OA
ATOM      7  C   UNL     1       2.968   4.003  17.537  0.00  0.00    +0.000 C 
ATOM      8  C   UNL     1       3.673   4.807  18.591  0.00  0.00    +0.000 C 
ATOM      9  N   UNL     1       4.191   5.987  18.468  0.00  0.00    +0.000 NA
ATOM     10  C   UNL     1       3.747   4.156  19.968  0.00  0.00    +0.000 C 
ENDROOT
BRANCH   9  11
ATOM     11  N   UNL     1       4.100   6.663  17.294  0.00  0.00    +0.000 N 
ATOM     12  C   UNL     1       5.000   6.455  16.271  0.00  0.00    +0.000 C 
ATOM     13  O   UNL     1       4.946   7.095  15.228  0.00  0.00    +0.000 OA
ATOM     14  H   UNL     1       3.409   7.386  17.128  0.00  0.00    +0.000 HD
BRANCH  12  15
ATOM     15  C   UNL     1       6.021   5.387  16.489  0.00  0.00    +0.000 C 
ATOM     16  C   UNL     1       7.329   5.471  15.729  0.00  0.00    +0.000 C 
ATOM     17  C   UNL     1       7.315   5.598  17.216  0.00  0.00    +0.000 C 
ATOM     18  C   UNL     1       7.750   6.762  18.024  0.00  0.00    +0.000 C 
ATOM     19  C   UNL     1       7.785   5.762  19.196  0.00  0.00    +0.000 C 
ATOM     20  C   UNL     1       7.958   4.642  18.156  0.00  0.00    +0.000 C 
ENDBRANCH  12  15
ENDBRANCH   9  11
TORSDOF 2
ENDMDL
MODEL 3
REMARK VINA RESULT:      -7.4      1.855      2.384
REMARK  Name = 
REMARK  4 active torsions:
REMARK  status: ('A' for Active; 'I' for Inactive)
REMARK    1  A    between atoms: C_1  and  C_2
REMARK    2  A    between atoms: C_2  and  C_3
REMARK    3  A    between atoms: N_9  and  N_10
REMARK    4  A    between atoms: C_11  and  C_13
REMARK                            x       y       z     vdW  Elec       q    Type
REMARK                         _______ _______ _______ _____ _____    ______ ____
ROOT
ATOM      1  C   UNL     1       2.273   1.360  19.181  0.00  0.00    +0.000 C 
ATOM      2  C   UNL     1       1.449   2.660  19.079  0.00  0.00    +0.000 C 
ATOM      3  C   UNL     1       0.187   2.365  18.248  0.00  0.00    +0.000 C 
ATOM      4  C   UNL     1       1.008   3.125  20.485  0.00  0.00    +0.000 C 
ATOM      5  C   UNL     1       2.181   3.627  21.300  0.00  0.00    +0.000 C 
ATOM      6  O   UNL     1       2.382   3.254  22.454  0.00  0.00    +0.000 OA
ATOM      7  C   UNL     1       3.037   4.676  20.644  0.00  0.00    +0.000 C 
ATOM      8  C   UNL     1       3.431   4.191  19.279  0.00  0.00    +0.000 C 
ATOM      9  N   UNL     1       4.628   4.072  18.799  0.00  0.00    +0.000 NA
ATOM     10  C   UNL     1       2.276   3.763  18.380  0.00  0.00    +0.000 C 
ENDROOT
BRANCH   9  11
ATOM     11  N   UNL     1       5.711   4.362  19.564  0.00  0.00    +0.000 N 
ATOM     12  C   UNL     1       6.570   5.390  19.235  0.00  0.00    +0.000 C 
ATOM     13  O   UNL     1       7.572   5.625  19.900  0.00  0.00    +0.000 OA
ATOM     14  H   UNL     1       5.975   3.814  20.374  0.00  0.00    +0.000 HD
BRANCH  12  15
ATOM     15  C   UNL     1       6.197   6.218  18.051  0.00  0.00    +0.000 C 
ATOM     16  C   UNL     1       7.301   6.883  17.256  0.00  0.00    +0.000 C 
ATOM     17  C   UNL     1       6.462   5.819  16.630  0.00  0.00    +0.000 C 
ATOM     18  C   UNL     1       6.914   4.512  16.099  0.00  0.00    +0.000 C 
ATOM     19  C   UNL     1       5.558   4.494  15.367  0.00  0.00    +0.000 C 
ATOM     20  C   UNL     1       5.548   6.028  15.476  0.00  0.00    +0.000 C 
ENDBRANCH  12  15
ENDBRANCH   9  11
TORSDOF 2
ENDMDL
MODEL 4
REMARK VINA RESULT:      -7.2      1.767      5.428
REMARK  Name = 
REMARK  4 active torsions:
REMARK  status: ('A' for Active; 'I' for Inactive)
REMARK    1  A    between atoms: C_1  and  C_2
REMARK    2  A    between atoms: C_2  and  C_3
REMARK    3  A    between atoms: N_9  and  N_10
REMARK    4  A    between atoms: C_11  and  C_13
REMARK                            x       y       z     vdW  Elec       q    Type
REMARK                         _______ _______ _______ _____ _____    ______ ____
ROOT
ATOM      1  C   UNL     1       4.458   7.005  17.407  0.00  0.00    +0.000 C 
ATOM      2  C   UNL     1       5.414   6.399  16.358  0.00  0.00    +0.000 C 
ATOM      3  C   UNL     1       5.082   7.020  14.989  0.00  0.00    +0.000 C 
ATOM      4  C   UNL     1       6.879   6.745  16.707  0.00  0.00    +0.000 C 
ATOM      5  C   UNL     1       7.347   6.004  17.942  0.00  0.00    +0.000 C 
ATOM      6  O   UNL     1       7.921   6.575  18.868  0.00  0.00    +0.000 OA
ATOM      7  C   UNL     1       7.148   4.513  17.931  0.00  0.00    +0.000 C 
ATOM      8  C   UNL     1       5.719   4.221  17.574  0.00  0.00    +0.000 C 
ATOM      9  N   UNL     1       4.867   3.516  18.246  0.00  0.00    +0.000 NA
ATOM     10  C   UNL     1       5.223   4.867  16.284  0.00  0.00    +0.000 C 
ENDROOT
BRANCH   9  11
ATOM     11  N   UNL     1       5.210   2.971  19.441  0.00  0.00    +0.000 N 
ATOM     12  C   UNL     1       4.279   2.345  20.242  0.00  0.00    +0.000 C 
ATOM     13  O   UNL     1       4.578   1.891  21.340  0.00  0.00    +0.000 OA
ATOM     14  H   UNL     1       6.144   3.041  19.830  0.00  0.00    +0.000 HD
BRANCH  12  15
ATOM     15  C   UNL     1       2.899   2.220  19.687  0.00  0.00    +0.000 C 
ATOM     16  C   UNL     1       1.723   2.358  20.632  0.00  0.00    +0.000 C 
ATOM     17  C   UNL     1       1.940   3.366  19.553  0.00  0.00    +0.000 C 
ATOM     18  C   UNL     1       2.196   4.817  19.715  0.00  0.00    +0.000 C 
ATOM     19  C   UNL     1       1.801   4.913  18.229  0.00  0.00    +0.000 C 
ATOM     20  C   UNL     1       1.014   3.605  18.415  0.00  0.00    +0.000 C 
ENDBRANCH  12  15
ENDBRANCH   9  11
TORSDOF 2
ENDMDL
MODEL 5
REMARK VINA RESULT:      -7.1      1.661      5.820
REMARK  Name = 
REMARK  4 active torsions:
REMARK  status: ('A' for Active; 'I' for Inactive)
REMARK    1  A    between atoms: C_1  and  C_2
REMARK    2  A    between atoms: C_2  and  C_3
REMARK    3  A    between atoms: N_9  and  N_10
REMARK    4  A    between atoms: C_11  and  C_13
REMARK                            x       y       z     vdW  Elec       q    Type
REMARK                         _______ _______ _______ _____ _____    ______ ____
ROOT
ATOM      1  C   UNL     1       7.842   5.381  18.100  0.00  0.00    +0.000 C 
ATOM      2  C   UNL     1       6.721   6.202  17.431  0.00  0.00    +0.000 C 
ATOM      3  C   UNL     1       7.068   7.695  17.571  0.00  0.00    +0.000 C 
ATOM      4  C   UNL     1       6.635   5.862  15.926  0.00  0.00    +0.000 C 
ATOM      5  C   UNL     1       6.101   4.464  15.700  0.00  0.00    +0.000 C 
ATOM      6  O   UNL     1       6.655   3.667  14.944  0.00  0.00    +0.000 OA
ATOM      7  C   UNL     1       4.804   4.135  16.387  0.00  0.00    +0.000 C 
ATOM      8  C   UNL     1       4.925   4.493  17.841  0.00  0.00    +0.000 C 
ATOM      9  N   UNL     1       4.725   3.723  18.862  0.00  0.00    +0.000 NA
ATOM     10  C   UNL     1       5.368   5.924  18.125  0.00  0.00    +0.000 C 
ENDROOT
BRANCH   9  11
ATOM     11  N   UNL     1       4.401   2.416  18.689  0.00  0.00    +0.000 N 
ATOM     12  C   UNL     1       3.088   1.996  18.663  0.00  0.00    +0.000 C 
ATOM     13  O   UNL     1       2.795   0.812  18.551  0.00  0.00    +0.000 OA
ATOM     14  H   UNL     1       5.096   1.681  18.626  0.00  0.00    +0.000 HD
BRANCH  12  15
ATOM     15  C   UNL     1       2.046   3.063  18.744  0.00  0.00    +0.000 C 
ATOM     16  C   UNL     1       0.651   2.678  19.191  0.00  0.00    +0.000 C 
ATOM     17  C   UNL     1       1.482   3.590  20.030  0.00  0.00    +0.000 C 
ATOM     18  C   UNL     1       1.952   3.360  21.416  0.00  0.00    +0.000 C 
ATOM     19  C   UNL     1       2.205   4.880  21.438  0.00  0.00    +0.000 C 
ATOM     20  C   UNL     1       1.153   5.010  20.325  0.00  0.00    +0.000 C 
ENDBRANCH  12  15
ENDBRANCH   9  11
TORSDOF 2
ENDMDL
MODEL 6
REMARK VINA RESULT:      -7.0      1.367      1.660
REMARK  Name = 
REMARK  4 active torsions:
REMARK  status: ('A' for Active; 'I' for Inactive)
REMARK    1  A    between atoms: C_1  and  C_2
REMARK    2  A    between atoms: C_2  and  C_3
REMARK    3  A    between atoms: N_9  and  N_10
REMARK    4  A    between atoms: C_11  and  C_13
REMARK                            x       y       z     vdW  Elec       q    Type
REMARK                         _______ _______ _______ _____ _____    ______ ____
ROOT
ATOM      1  C   UNL     1       2.497   2.130  17.604  0.00  0.00    +0.000 C 
ATOM      2  C   UNL     1       2.158   3.045  18.799  0.00  0.00    +0.000 C 
ATOM      3  C   UNL     1       0.630   3.043  18.986  0.00  0.00    +0.000 C 
ATOM      4  C   UNL     1       2.808   2.501  20.091  0.00  0.00    +0.000 C 
ATOM      5  C   UNL     1       4.313   2.657  20.066  0.00  0.00    +0.000 C 
ATOM      6  O   UNL     1       5.071   1.730  20.348  0.00  0.00    +0.000 OA
ATOM      7  C   UNL     1       4.827   4.038  19.761  0.00  0.00    +0.000 C 
ATOM      8  C   UNL     1       4.161   4.534  18.509  0.00  0.00    +0.000 C 
ATOM      9  N   UNL     1       4.732   4.962  17.429  0.00  0.00    +0.000 NA
ATOM     10  C   UNL     1       2.637   4.488  18.519  0.00  0.00    +0.000 C 
ENDROOT
BRANCH   9  11
ATOM     11  N   UNL     1       6.085   4.963  17.316  0.00  0.00    +0.000 N 
ATOM     12  C   UNL     1       6.715   4.442  16.206  0.00  0.00    +0.000 C 
ATOM     13  O   UNL     1       7.937   4.402  16.122  0.00  0.00    +0.000 OA
ATOM     14  H   UNL     1       6.698   5.291  18.053  0.00  0.00    +0.000 HD
BRANCH  12  15
ATOM     15  C   UNL     1       5.832   3.962  15.102  0.00  0.00    +0.000 C 
ATOM     16  C   UNL     1       4.954   4.969  14.388  0.00  0.00    +0.000 C 
ATOM     17  C   UNL     1       6.053   4.277  13.652  0.00  0.00    +0.000 C 
ATOM     18  C   UNL     1       7.233   4.897  13.004  0.00  0.00    +0.000 C 
ATOM     19  C   UNL     1       7.356   3.555  12.257  0.00  0.00    +0.000 C 
ATOM     20  C   UNL     1       5.856   3.343  12.513  0.00  0.00    +0.000 C 
ENDBRANCH  12  15
ENDBRANCH   9  11
TORSDOF 2
ENDMDL
MODEL 7
REMARK VINA RESULT:      -7.0      2.184      3.395
REMARK  Name = 
REMARK  4 active torsions:
REMARK  status: ('A' for Active; 'I' for Inactive)
REMARK    1  A    between atoms: C_1  and  C_2
REMARK    2  A    between atoms: C_2  and  C_3
REMARK    3  A    between atoms: N_9  and  N_10
REMARK    4  A    between atoms: C_11  and  C_13
REMARK                            x       y       z     vdW  Elec       q    Type
REMARK                         _______ _______ _______ _____ _____    ______ ____
ROOT
ATOM      1  C   UNL     1       4.002   2.729  18.125  0.00  0.00    +0.000 C 
ATOM      2  C   UNL     1       3.341   4.043  18.589  0.00  0.00    +0.000 C 
ATOM      3  C   UNL     1       1.944   3.710  19.143  0.00  0.00    +0.000 C 
ATOM      4  C   UNL     1       4.172   4.689  19.721  0.00  0.00    +0.000 C 
ATOM      5  C   UNL     1       5.489   5.229  19.207  0.00  0.00    +0.000 C 
ATOM      6  O   UNL     1       6.558   4.985  19.764  0.00  0.00    +0.000 OA
ATOM      7  C   UNL     1       5.404   6.155  18.024  0.00  0.00    +0.000 C 
ATOM      8  C   UNL     1       4.579   5.498  16.956  0.00  0.00    +0.000 C 
ATOM      9  N   UNL     1       4.916   5.270  15.727  0.00  0.00    +0.000 NA
ATOM     10  C   UNL     1       3.200   5.019  17.399  0.00  0.00    +0.000 C 
ENDROOT
BRANCH   9  11
ATOM     11  N   UNL     1       6.154   5.599  15.277  0.00  0.00    +0.000 N 
ATOM     12  C   UNL     1       6.776   4.874  14.284  0.00  0.00    +0.000 C 
ATOM     13  O   UNL     1       7.910   5.142  13.908  0.00  0.00    +0.000 OA
ATOM     14  H   UNL     1       6.703   6.350  15.679  0.00  0.00    +0.000 HD
BRANCH  12  15
ATOM     15  C   UNL     1       5.982   3.768  13.670  0.00  0.00    +0.000 C 
ATOM     16  C   UNL     1       4.913   4.122  12.656  0.00  0.00    +0.000 C 
ATOM     17  C   UNL     1       6.111   3.336  12.239  0.00  0.00    +0.000 C 
ATOM     18  C   UNL     1       7.136   3.719  11.240  0.00  0.00    +0.000 C 
ATOM     19  C   UNL     1       7.504   2.222  11.246  0.00  0.00    +0.000 C 
ATOM     20  C   UNL     1       6.077   1.935  11.741  0.00  0.00    +0.000 C 
ENDBRANCH  12  15
ENDBRANCH   9  11
TORSDOF 2
ENDMDL
MODEL 8
REMARK VINA RESULT:      -6.9      2.311      5.818
REMARK  Name = 
REMARK  4 active torsions:
REMARK  status: ('A' for Active; 'I' for Inactive)
REMARK    1  A    between atoms: C_1  and  C_2
REMARK    2  A    between atoms: C_2  and  C_3
REMARK    3  A    between atoms: N_9  and  N_10
REMARK    4  A    between atoms: C_11  and  C_13
REMARK                            x       y       z     vdW  Elec       q    Type
REMARK                         _______ _______ _______ _____ _____    ______ ____
ROOT
ATOM      1  C   UNL     1       5.141   5.961  14.784  0.00  0.00    +0.000 C 
ATOM      2  C   UNL     1       5.854   4.848  15.578  0.00  0.00    +0.000 C 
ATOM      3  C   UNL     1       6.413   3.823  14.575  0.00  0.00    +0.000 C 
ATOM      4  C   UNL     1       7.036   5.437  16.381  0.00  0.00    +0.000 C 
ATOM      5  C   UNL     1       6.556   6.304  17.526  0.00  0.00    +0.000 C 
ATOM      6  O   UNL     1       7.009   7.429  17.728  0.00  0.00    +0.000 OA
ATOM      7  C   UNL     1       5.553   5.674  18.453  0.00  0.00    +0.000 C 
ATOM      8  C   UNL     1       4.432   5.103  17.634  0.00  0.00    +0.000 C 
ATOM      9  N   UNL     1       3.166   5.353  17.746  0.00  0.00    +0.000 NA
ATOM     10  C   UNL     1       4.855   4.145  16.525  0.00  0.00    +0.000 C 
ENDROOT
BRANCH   9  11
ATOM     11  N   UNL     1       2.718   6.252  18.660  0.00  0.00    +0.000 N 
ATOM     12  C   UNL     1       2.441   5.881  19.958  0.00  0.00    +0.000 C 
ATOM     13  O   UNL     1       1.995   6.681  20.772  0.00  0.00    +0.000 OA
ATOM     14  H   UNL     1       2.512   7.217  18.427  0.00  0.00    +0.000 HD
BRANCH  12  15
ATOM     15  C   UNL     1       2.746   4.467  20.327  0.00  0.00    +0.000 C 
ATOM     16  C   UNL     1       1.999   3.845  21.489  0.00  0.00    +0.000 C 
ATOM     17  C   UNL     1       1.807   3.320  20.106  0.00  0.00    +0.000 C 
ATOM     18  C   UNL     1       0.549   3.285  19.323  0.00  0.00    +0.000 C 
ATOM     19  C   UNL     1       1.284   2.254  18.446  0.00  0.00    +0.000 C 
ATOM     20  C   UNL     1       2.183   1.954  19.656  0.00  0.00    +0.000 C 
ENDBRANCH  12  15
ENDBRANCH   9  11
TORSDOF 2
ENDMDL
MODEL 9
REMARK VINA RESULT:      -6.9      2.257      3.222
REMARK  Name = 
REMARK  4 active torsions:
REMARK  status: ('A' for Active; 'I' for Inactive)
REMARK    1  A    between atoms: C_1  and  C_2
REMARK    2  A    between atoms: C_2  and  C_3
REMARK    3  A    between atoms: N_9  and  N_10
REMARK    4  A    between atoms: C_11  and  C_13
REMARK                            x       y       z     vdW  Elec       q    Type
REMARK                         _______ _______ _______ _____ _____    ______ ____
ROOT
ATOM      1  C   UNL     1       0.689   3.961  20.073  0.00  0.00    +0.000 C 
ATOM      2  C   UNL     1       1.952   3.155  20.440  0.00  0.00    +0.000 C 
ATOM      3  C   UNL     1       1.767   2.592  21.861  0.00  0.00    +0.000 C 
ATOM      4  C   UNL     1       2.131   1.969  19.466  0.00  0.00    +0.000 C 
ATOM      5  C   UNL     1       2.518   2.439  18.080  0.00  0.00    +0.000 C 
ATOM      6  O   UNL     1       1.946   2.035  17.070  0.00  0.00    +0.000 OA
ATOM      7  C   UNL     1       3.703   3.363  18.005  0.00  0.00    +0.000 C 
ATOM      8  C   UNL     1       3.495   4.491  18.975  0.00  0.00    +0.000 C 
ATOM      9  N   UNL     1       3.513   5.761  18.723  0.00  0.00    +0.000 NA
ATOM     10  C   UNL     1       3.196   4.071  20.410  0.00  0.00    +0.000 C 
ENDROOT
BRANCH   9  11
ATOM     11  N   UNL     1       3.699   6.212  17.456  0.00  0.00    +0.000 N 
ATOM     12  C   UNL     1       4.961   6.421  16.943  0.00  0.00    +0.000 C 
ATOM     13  O   UNL     1       5.129   6.870  15.816  0.00  0.00    +0.000 OA
ATOM     14  H   UNL     1       2.931   6.468  16.846  0.00  0.00    +0.000 HD
BRANCH  12  15
ATOM     15  C   UNL     1       6.108   6.041  17.821  0.00  0.00    +0.000 C 
ATOM     16  C   UNL     1       7.275   5.298  17.204  0.00  0.00    +0.000 C 
ATOM     17  C   UNL     1       7.466   6.674  17.749  0.00  0.00    +0.000 C 
ATOM     18  C   UNL     1       7.890   7.885  17.008  0.00  0.00    +0.000 C 
ATOM     19  C   UNL     1       8.200   8.463  18.402  0.00  0.00    +0.000 C 
ATOM     20  C   UNL     1       8.334   7.017  18.906  0.00  0.00    +0.000 C 
ENDBRANCH  12  15
ENDBRANCH   9  11
TORSDOF 2
ENDMDL
