MODEL 1
REMARK VINA RESULT:      -8.0      0.000      0.000
REMARK  Name = 
REMARK  5 active torsions:
REMARK  status: ('A' for Active; 'I' for Inactive)
REMARK    1  A    between atoms: C_1  and  C_2
REMARK    2  A    between atoms: C_6  and  C_7
REMARK    3  A    between atoms: C_15  and  C_16
REMARK    4  A    between atoms: C_18  and  N_19
REMARK    5  A    between atoms: C_20  and  O_21
REMARK                            x       y       z     vdW  Elec       q    Type
REMARK                         _______ _______ _______ _____ _____    ______ ____
ROOT
ATOM      1  C   UNL     1      -0.438   9.632  22.801  0.00  0.00    +0.000 C 
ATOM      2  C   UNL     1       0.720   9.528  21.839  0.00  0.00    +0.000 C 
ATOM      3  O   UNL     1       1.884   9.434  22.238  0.00  0.00    +0.000 OA
ATOM      4  N   UNL     1       0.378   9.555  20.500  0.00  0.00    +0.000 N 
ATOM      5  N   UNL     1      -0.895   9.840  20.098  0.00  0.00    +0.000 NA
ATOM      6  C   UNL     1      -0.855  10.078  18.824  0.00  0.00    +0.000 C 
ATOM      7  C   UNL     1       0.503   9.920  18.184  0.00  0.00    +0.000 C 
ATOM      8  C   UNL     1       1.346   9.547  19.406  0.00  0.00    +0.000 C 
ENDROOT
BRANCH   6   9
ATOM      9  C   UNL     1      -2.043  10.495  18.045  0.00  0.00    +0.000 A 
ATOM     10  C   UNL     1      -2.299   9.845  16.826  0.00  0.00    +0.000 A 
ATOM     11  C   UNL     1      -3.425  10.175  16.070  0.00  0.00    +0.000 A 
ATOM     12  C   UNL     1      -4.308  11.151  16.519  0.00  0.00    +0.000 A 
ATOM     13  C   UNL     1      -4.062  11.808  17.723  0.00  0.00    +0.000 A 
ATOM     14  C   UNL     1      -2.931  11.489  18.485  0.00  0.00    +0.000 A 
ATOM     15 BR   UNL     1      -2.676  12.538  20.054  0.00  0.00    +0.000 Br
ENDBRANCH   6   9
BRANCH   8  16
ATOM     16  C   UNL     1       2.034   8.200  19.250  0.00  0.00    +0.000 A 
ATOM     17  C   UNL     1       1.848   7.195  20.218  0.00  0.00    +0.000 A 
ATOM     18  C   UNL     1       2.430   5.931  20.069  0.00  0.00    +0.000 A 
ATOM     19  C   UNL     1       3.306   5.716  18.995  0.00  0.00    +0.000 A 
ATOM     20  C   UNL     1       3.505   6.699  18.026  0.00  0.00    +0.000 A 
ATOM     21 CL   UNL     1       4.574   6.455  16.694  0.00  0.00    +0.000 Cl
ATOM     22  C   UNL     1       2.860   7.931  18.146  0.00  0.00    +0.000 A 
BRANCH  18  23
ATOM     23  N   UNL     1       2.286   4.956  21.081  0.00  0.00    +0.000 N 
ATOM     24  H   UNL     1       1.618   5.242  21.794  0.00  0.00    +0.000 HD
ATOM     25  H   UNL     1       2.003   4.054  20.700  0.00  0.00    +0.000 HD
ENDBRANCH  18  23
BRANCH  19  26
ATOM     26  O   UNL     1       3.991   4.528  18.928  0.00  0.00    +0.000 OA
ATOM     27  H   UNL     1       4.934   4.775  18.940  0.00  0.00    +0.000 HD
ENDBRANCH  19  26
ENDBRANCH   8  16
TORSDOF 4
ENDMDL
MODEL 2
REMARK VINA RESULT:      -7.9      1.500      1.798
REMARK  Name = 
REMARK  5 active torsions:
REMARK  status: ('A' for Active; 'I' for Inactive)
REMARK    1  A    between atoms: C_1  and  C_2
REMARK    2  A    between atoms: C_6  and  C_7
REMARK    3  A    between atoms: C_15  and  C_16
REMARK    4  A    between atoms: C_18  and  N_19
REMARK    5  A    between atoms: C_20  and  O_21
REMARK                            x       y       z     vdW  Elec       q    Type
REMARK                         _______ _______ _______ _____ _____    ______ ____
ROOT
ATOM      1  C   UNL     1      -0.362   9.538  22.810  0.00  0.00    +0.000 C 
ATOM      2  C   UNL     1       0.790   9.419  21.843  0.00  0.00    +0.000 C 
ATOM      3  O   UNL     1       1.954   9.300  22.237  0.00  0.00    +0.000 OA
ATOM      4  N   UNL     1       0.444   9.462  20.506  0.00  0.00    +0.000 N 
ATOM      5  N   UNL     1      -0.824   9.773  20.110  0.00  0.00    +0.000 NA
ATOM      6  C   UNL     1      -0.785  10.019  18.838  0.00  0.00    +0.000 C 
ATOM      7  C   UNL     1       0.568   9.840  18.192  0.00  0.00    +0.000 C 
ATOM      8  C   UNL     1       1.408   9.442  19.408  0.00  0.00    +0.000 C 
ENDROOT
BRANCH   6   9
ATOM      9  C   UNL     1      -1.967  10.463  18.066  0.00  0.00    +0.000 A 
ATOM     10  C   UNL     1      -2.240   9.828  16.844  0.00  0.00    +0.000 A 
ATOM     11  C   UNL     1      -3.362  10.185  16.094  0.00  0.00    +0.000 A 
ATOM     12  C   UNL     1      -4.225  11.173  16.553  0.00  0.00    +0.000 A 
ATOM     13  C   UNL     1      -3.963  11.816  17.761  0.00  0.00    +0.000 A 
ATOM     14  C   UNL     1      -2.835  11.471  18.517  0.00  0.00    +0.000 A 
ATOM     15 BR   UNL     1      -2.555  12.503  20.093  0.00  0.00    +0.000 Br
ENDBRANCH   6   9
BRANCH   8  16
ATOM     16  C   UNL     1       2.069   8.084  19.241  0.00  0.00    +0.000 A 
ATOM     17  C   UNL     1       2.942   7.850  18.161  0.00  0.00    +0.000 A 
ATOM     18  C   UNL     1       3.602   6.624  18.018  0.00  0.00    +0.000 A 
ATOM     19  C   UNL     1       3.286   5.582  18.902  0.00  0.00    +0.000 A 
ATOM     20  C   UNL     1       2.423   5.792  19.977  0.00  0.00    +0.000 A 
ATOM     21 CL   UNL     1       2.023   4.527  21.079  0.00  0.00    +0.000 Cl
ATOM     22  C   UNL     1       1.828   7.042  20.153  0.00  0.00    +0.000 A 
BRANCH  18  23
ATOM     23  N   UNL     1       4.424   6.384  16.894  0.00  0.00    +0.000 N 
ATOM     24  H   UNL     1       5.413   6.400  17.135  0.00  0.00    +0.000 HD
ATOM     25  H   UNL     1       4.204   5.495  16.447  0.00  0.00    +0.000 HD
ENDBRANCH  18  23
BRANCH  19  26
ATOM     26  O   UNL     1       3.820   4.338  18.675  0.00  0.00    +0.000 OA
ATOM     27  H   UNL     1       3.057   3.732  18.655  0.00  0.00    +0.000 HD
ENDBRANCH  19  26
ENDBRANCH   8  16
TORSDOF 4
ENDMDL
MODEL 3
REMARK VINA RESULT:      -7.8      6.625      8.317
REMARK  Name = 
REMARK  5 active torsions:
REMARK  status: ('A' for Active; 'I' for Inactive)
REMARK    1  A    between atoms: C_1  and  C_2
REMARK    2  A    between atoms: C_6  and  C_7
REMARK    3  A    between atoms: C_15  and  C_16
REMARK    4  A    between atoms: C_18  and  N_19
REMARK    5  A    between atoms: C_20  and  O_21
REMARK                            x       y       z     vdW  Elec       q    Type
REMARK                         _______ _______ _______ _____ _____    ______ ____
ROOT
ATOM      1  C   UNL     1       7.987   5.742  19.429  0.00  0.00    +0.000 C 
ATOM      2  C   UNL     1       7.348   6.189  18.137  0.00  0.00    +0.000 C 
ATOM      3  O   UNL     1       7.917   6.973  17.372  0.00  0.00    +0.000 OA
ATOM      4  N   UNL     1       6.093   5.666  17.889  0.00  0.00    +0.000 N 
ATOM      5  N   UNL     1       5.423   4.948  18.837  0.00  0.00    +0.000 NA
ATOM      6  C   UNL     1       4.193   4.840  18.444  0.00  0.00    +0.000 C 
ATOM      7  C   UNL     1       3.893   5.455  17.098  0.00  0.00    +0.000 C 
ATOM      8  C   UNL     1       5.267   6.026  16.739  0.00  0.00    +0.000 C 
ENDROOT
BRANCH   6   9
ATOM      9  C   UNL     1       3.143   4.183  19.254  0.00  0.00    +0.000 A 
ATOM     10  C   UNL     1       2.418   4.967  20.167  0.00  0.00    +0.000 A 
ATOM     11  C   UNL     1       1.394   4.403  20.929  0.00  0.00    +0.000 A 
ATOM     12  C   UNL     1       1.077   3.056  20.790  0.00  0.00    +0.000 A 
ATOM     13  C   UNL     1       1.793   2.266  19.892  0.00  0.00    +0.000 A 
ATOM     14  C   UNL     1       2.828   2.820  19.129  0.00  0.00    +0.000 A 
ATOM     15 BR   UNL     1       3.778   1.596  18.021  0.00  0.00    +0.000 Br
ENDBRANCH   6   9
BRANCH   8  16
ATOM     16  C   UNL     1       5.810   5.464  15.436  0.00  0.00    +0.000 A 
ATOM     17  C   UNL     1       7.093   5.830  14.988  0.00  0.00    +0.000 A 
ATOM     18  C   UNL     1       7.633   5.284  13.817  0.00  0.00    +0.000 A 
ATOM     19  C   UNL     1       6.825   4.454  13.026  0.00  0.00    +0.000 A 
ATOM     20  C   UNL     1       5.550   4.080  13.451  0.00  0.00    +0.000 A 
ATOM     21 CL   UNL     1       4.541   3.057  12.497  0.00  0.00    +0.000 Cl
ATOM     22  C   UNL     1       5.051   4.572  14.658  0.00  0.00    +0.000 A 
BRANCH  18  23
ATOM     23  N   UNL     1       8.895   5.712  13.348  0.00  0.00    +0.000 N 
ATOM     24  H   UNL     1       9.356   6.335  14.008  0.00  0.00    +0.000 HD
ATOM     25  H   UNL     1       9.510   4.925  13.147  0.00  0.00    +0.000 HD
ENDBRANCH  18  23
BRANCH  19  26
ATOM     26  O   UNL     1       7.299   4.037  11.807  0.00  0.00    +0.000 OA
ATOM     27  H   UNL     1       6.692   4.424  11.151  0.00  0.00    +0.000 HD
ENDBRANCH  19  26
ENDBRANCH   8  16
TORSDOF 4
ENDMDL
MODEL 4
REMARK VINA RESULT:      -7.6      6.228      8.018
REMARK  Name = 
REMARK  5 active torsions:
REMARK  status: ('A' for Active; 'I' for Inactive)
REMARK    1  A    between atoms: C_1  and  C_2
REMARK    2  A    between atoms: C_6  and  C_7
REMARK    3  A    between atoms: C_15  and  C_16
REMARK    4  A    between atoms: C_18  and  N_19
REMARK    5  A    between atoms: C_20  and  O_21
REMARK                            x       y       z     vdW  Elec       q    Type
REMARK                         _______ _______ _______ _____ _____    ______ ____
ROOT
ATOM      1  C   UNL     1       7.866   5.561  19.359  0.00  0.00    +0.000 C 
ATOM      2  C   UNL     1       7.289   6.052  18.055  0.00  0.00    +0.000 C 
ATOM      3  O   UNL     1       7.909   6.830  17.325  0.00  0.00    +0.000 OA
ATOM      4  N   UNL     1       6.027   5.573  17.752  0.00  0.00    +0.000 N 
ATOM      5  N   UNL     1       5.302   4.860  18.661  0.00  0.00    +0.000 NA
ATOM      6  C   UNL     1       4.083   4.799  18.223  0.00  0.00    +0.000 C 
ATOM      7  C   UNL     1       3.851   5.448  16.879  0.00  0.00    +0.000 C 
ATOM      8  C   UNL     1       5.255   5.981  16.581  0.00  0.00    +0.000 C 
ENDROOT
BRANCH   6   9
ATOM      9  C   UNL     1       2.984   4.161  18.982  0.00  0.00    +0.000 A 
ATOM     10  C   UNL     1       2.788   2.778  18.831  0.00  0.00    +0.000 A 
ATOM     11  C   UNL     1       1.788   2.122  19.551  0.00  0.00    +0.000 A 
ATOM     12  C   UNL     1       0.978   2.831  20.430  0.00  0.00    +0.000 A 
ATOM     13  C   UNL     1       1.158   4.204  20.585  0.00  0.00    +0.000 A 
ATOM     14  C   UNL     1       2.152   4.874  19.860  0.00  0.00    +0.000 A 
ATOM     15 BR   UNL     1       2.214   6.762  20.102  0.00  0.00    +0.000 Br
ENDBRANCH   6   9
BRANCH   8  16
ATOM     16  C   UNL     1       5.826   5.425  15.287  0.00  0.00    +0.000 A 
ATOM     17  C   UNL     1       7.107   5.818  14.853  0.00  0.00    +0.000 A 
ATOM     18  C   UNL     1       7.674   5.280  13.692  0.00  0.00    +0.000 A 
ATOM     19  C   UNL     1       6.894   4.429  12.894  0.00  0.00    +0.000 A 
ATOM     20  C   UNL     1       5.623   4.029  13.305  0.00  0.00    +0.000 A 
ATOM     21 CL   UNL     1       4.648   2.980  12.343  0.00  0.00    +0.000 Cl
ATOM     22  C   UNL     1       5.098   4.514  14.503  0.00  0.00    +0.000 A 
BRANCH  18  23
ATOM     23  N   UNL     1       8.932   5.733  13.237  0.00  0.00    +0.000 N 
ATOM     24  H   UNL     1       9.697   5.364  13.799  0.00  0.00    +0.000 HD
ATOM     25  H   UNL     1       9.090   5.492  12.259  0.00  0.00    +0.000 HD
ENDBRANCH  18  23
BRANCH  19  26
ATOM     26  O   UNL     1       7.393   4.018  11.684  0.00  0.00    +0.000 OA
ATOM     27  H   UNL     1       7.698   3.104  11.829  0.00  0.00    +0.000 HD
ENDBRANCH  19  26
ENDBRANCH   8  16
TORSDOF 4
ENDMDL
MODEL 5
REMARK VINA RESULT:      -7.5      3.702      6.790
REMARK  Name = 
REMARK  5 active torsions:
REMARK  status: ('A' for Active; 'I' for Inactive)
REMARK    1  A    between atoms: C_1  and  C_2
REMARK    2  A    between atoms: C_6  and  C_7
REMARK    3  A    between atoms: C_15  and  C_16
REMARK    4  A    between atoms: C_18  and  N_19
REMARK    5  A    between atoms: C_20  and  O_21
REMARK                            x       y       z     vdW  Elec       q    Type
REMARK                         _______ _______ _______ _____ _____    ______ ____
ROOT
ATOM      1  C   UNL     1       0.464   9.261  22.759  0.00  0.00    +0.000 C 
ATOM      2  C   UNL     1      -0.014  10.018  21.545  0.00  0.00    +0.000 C 
ATOM      3  O   UNL     1      -0.946  10.825  21.612  0.00  0.00    +0.000 OA
ATOM      4  N   UNL     1       0.659   9.735  20.371  0.00  0.00    +0.000 N 
ATOM      5  N   UNL     1       1.559   8.712  20.298  0.00  0.00    +0.000 NA
ATOM      6  C   UNL     1       1.804   8.499  19.043  0.00  0.00    +0.000 C 
ATOM      7  C   UNL     1       1.106   9.435  18.086  0.00  0.00    +0.000 C 
ATOM      8  C   UNL     1       0.308  10.295  19.068  0.00  0.00    +0.000 C 
ENDROOT
BRANCH   6   9
ATOM      9  C   UNL     1       2.687   7.410  18.568  0.00  0.00    +0.000 A 
ATOM     10  C   UNL     1       3.545   7.674  17.488  0.00  0.00    +0.000 A 
ATOM     11  C   UNL     1       4.423   6.693  17.023  0.00  0.00    +0.000 A 
ATOM     12  C   UNL     1       4.458   5.442  17.629  0.00  0.00    +0.000 A 
ATOM     13  C   UNL     1       3.607   5.165  18.697  0.00  0.00    +0.000 A 
ATOM     14  C   UNL     1       2.717   6.140  19.165  0.00  0.00    +0.000 A 
ATOM     15 BR   UNL     1       1.550   5.584  20.564  0.00  0.00    +0.000 Br
ENDBRANCH   6   9
BRANCH   8  16
ATOM     16  C   UNL     1       0.649  11.772  18.961  0.00  0.00    +0.000 A 
ATOM     17  C   UNL     1      -0.359  12.743  19.110  0.00  0.00    +0.000 A 
ATOM     18  C   UNL     1      -0.058  14.110  19.067  0.00  0.00    +0.000 A 
ATOM     19  C   UNL     1       1.251  14.501  18.750  0.00  0.00    +0.000 A 
ATOM     20  C   UNL     1       2.264  13.555  18.598  0.00  0.00    +0.000 A 
ATOM     21 CL   UNL     1       3.882  14.013  18.212  0.00  0.00    +0.000 Cl
ATOM     22  C   UNL     1       1.966  12.197  18.717  0.00  0.00    +0.000 A 
BRANCH  18  23
ATOM     23  N   UNL     1      -1.091  15.070  19.154  0.00  0.00    +0.000 N 
ATOM     24  H   UNL     1      -2.004  14.638  19.282  0.00  0.00    +0.000 HD
ATOM     25  H   UNL     1      -0.927  15.735  19.909  0.00  0.00    +0.000 HD
ENDBRANCH  18  23
BRANCH  19  26
ATOM     26  O   UNL     1       1.515  15.835  18.563  0.00  0.00    +0.000 OA
ATOM     27  H   UNL     1       2.471  15.933  18.727  0.00  0.00    +0.000 HD
ENDBRANCH  19  26
ENDBRANCH   8  16
TORSDOF 4
ENDMDL
MODEL 6
REMARK VINA RESULT:      -7.4      4.023      6.896
REMARK  Name = 
REMARK  5 active torsions:
REMARK  status: ('A' for Active; 'I' for Inactive)
REMARK    1  A    between atoms: C_1  and  C_2
REMARK    2  A    between atoms: C_6  and  C_7
REMARK    3  A    between atoms: C_15  and  C_16
REMARK    4  A    between atoms: C_18  and  N_19
REMARK    5  A    between atoms: C_20  and  O_21
REMARK                            x       y       z     vdW  Elec       q    Type
REMARK                         _______ _______ _______ _____ _____    ______ ____
ROOT
ATOM      1  C   UNL     1       0.601   9.210  22.665  0.00  0.00    +0.000 C 
ATOM      2  C   UNL     1       0.150   9.963  21.437  0.00  0.00    +0.000 C 
ATOM      3  O   UNL     1      -0.756  10.800  21.488  0.00  0.00    +0.000 OA
ATOM      4  N   UNL     1       0.816   9.639  20.269  0.00  0.00    +0.000 N 
ATOM      5  N   UNL     1       1.683   8.586  20.216  0.00  0.00    +0.000 NA
ATOM      6  C   UNL     1       1.924   8.345  18.965  0.00  0.00    +0.000 C 
ATOM      7  C   UNL     1       1.258   9.287  17.991  0.00  0.00    +0.000 C 
ATOM      8  C   UNL     1       0.486  10.188  18.957  0.00  0.00    +0.000 C 
ENDROOT
BRANCH   6   9
ATOM      9  C   UNL     1       2.772   7.221  18.510  0.00  0.00    +0.000 A 
ATOM     10  C   UNL     1       3.671   7.451  17.456  0.00  0.00    +0.000 A 
ATOM     11  C   UNL     1       4.519   6.434  17.012  0.00  0.00    +0.000 A 
ATOM     12  C   UNL     1       4.483   5.181  17.613  0.00  0.00    +0.000 A 
ATOM     13  C   UNL     1       3.591   4.938  18.655  0.00  0.00    +0.000 A 
ATOM     14  C   UNL     1       2.730   5.948  19.102  0.00  0.00    +0.000 A 
ATOM     15 BR   UNL     1       1.502   5.438  20.465  0.00  0.00    +0.000 Br
ENDBRANCH   6   9
BRANCH   8  16
ATOM     16  C   UNL     1       0.875  11.652  18.827  0.00  0.00    +0.000 A 
ATOM     17  C   UNL     1       2.170  12.004  18.402  0.00  0.00    +0.000 A 
ATOM     18  C   UNL     1       2.533  13.345  18.226  0.00  0.00    +0.000 A 
ATOM     19  C   UNL     1       1.620  14.344  18.596  0.00  0.00    +0.000 A 
ATOM     20  C   UNL     1       0.333  14.016  19.021  0.00  0.00    +0.000 A 
ATOM     21 CL   UNL     1      -0.807  15.227  19.478  0.00  0.00    +0.000 Cl
ATOM     22  C   UNL     1      -0.042  12.675  19.122  0.00  0.00    +0.000 A 
BRANCH  18  23
ATOM     23  N   UNL     1       3.855  13.683  17.862  0.00  0.00    +0.000 N 
ATOM     24  H   UNL     1       4.350  14.155  18.616  0.00  0.00    +0.000 HD
ATOM     25  H   UNL     1       4.390  12.864  17.574  0.00  0.00    +0.000 HD
ENDBRANCH  18  23
BRANCH  19  26
ATOM     26  O   UNL     1       2.026  15.655  18.563  0.00  0.00    +0.000 OA
ATOM     27  H   UNL     1       2.999  15.623  18.620  0.00  0.00    +0.000 HD
ENDBRANCH  19  26
ENDBRANCH   8  16
TORSDOF 4
ENDMDL
MODEL 7
REMARK VINA RESULT:      -7.4      3.553      5.421
REMARK  Name = 
REMARK  5 active torsions:
REMARK  status: ('A' for Active; 'I' for Inactive)
REMARK    1  A    between atoms: C_1  and  C_2
REMARK    2  A    between atoms: C_6  and  C_7
REMARK    3  A    between atoms: C_15  and  C_16
REMARK    4  A    between atoms: C_18  and  N_19
REMARK    5  A    between atoms: C_20  and  O_21
REMARK                            x       y       z     vdW  Elec       q    Type
REMARK                         _______ _______ _______ _____ _____    ______ ____
ROOT
ATOM      1  C   UNL     1       0.939   3.049  18.827  0.00  0.00    +0.000 C 
ATOM      2  C   UNL     1       2.379   3.430  19.074  0.00  0.00    +0.000 C 
ATOM      3  O   UNL     1       3.280   2.587  19.067  0.00  0.00    +0.000 OA
ATOM      4  N   UNL     1       2.600   4.774  19.310  0.00  0.00    +0.000 N 
ATOM      5  N   UNL     1       1.564   5.644  19.486  0.00  0.00    +0.000 NA
ATOM      6  C   UNL     1       2.056   6.741  19.969  0.00  0.00    +0.000 C 
ATOM      7  C   UNL     1       3.557   6.755  20.128  0.00  0.00    +0.000 C 
ATOM      8  C   UNL     1       3.902   5.344  19.648  0.00  0.00    +0.000 C 
ENDROOT
BRANCH   6   9
ATOM      9  C   UNL     1       1.218   7.898  20.358  0.00  0.00    +0.000 A 
ATOM     10  C   UNL     1       0.518   7.833  21.574  0.00  0.00    +0.000 A 
ATOM     11  C   UNL     1      -0.258   8.911  22.003  0.00  0.00    +0.000 A 
ATOM     12  C   UNL     1      -0.342  10.065  21.232  0.00  0.00    +0.000 A 
ATOM     13  C   UNL     1       0.343  10.140  20.020  0.00  0.00    +0.000 A 
ATOM     14  C   UNL     1       1.117   9.060  19.576  0.00  0.00    +0.000 A 
ATOM     15 BR   UNL     1       1.913   9.272  17.859  0.00  0.00    +0.000 Br
ENDBRANCH   6   9
BRANCH   8  16
ATOM     16  C   UNL     1       4.858   5.347  18.466  0.00  0.00    +0.000 A 
ATOM     17  C   UNL     1       6.118   4.729  18.574  0.00  0.00    +0.000 A 
ATOM     18  C   UNL     1       6.992   4.676  17.482  0.00  0.00    +0.000 A 
ATOM     19  C   UNL     1       6.644   5.356  16.306  0.00  0.00    +0.000 A 
ATOM     20  C   UNL     1       5.401   5.976  16.179  0.00  0.00    +0.000 A 
ATOM     21 CL   UNL     1       4.949   6.815  14.741  0.00  0.00    +0.000 Cl
ATOM     22  C   UNL     1       4.507   5.959  17.250  0.00  0.00    +0.000 A 
BRANCH  18  23
ATOM     23  N   UNL     1       8.279   4.109  17.626  0.00  0.00    +0.000 N 
ATOM     24  H   UNL     1       8.783   4.077  16.742  0.00  0.00    +0.000 HD
ATOM     25  H   UNL     1       8.839   4.613  18.312  0.00  0.00    +0.000 HD
ENDBRANCH  18  23
BRANCH  19  26
ATOM     26  O   UNL     1       7.562   5.429  15.288  0.00  0.00    +0.000 OA
ATOM     27  H   UNL     1       7.239   6.138  14.702  0.00  0.00    +0.000 HD
ENDBRANCH  19  26
ENDBRANCH   8  16
TORSDOF 4
ENDMDL
MODEL 8
REMARK VINA RESULT:      -7.2      3.699      7.007
REMARK  Name = 
REMARK  5 active torsions:
REMARK  status: ('A' for Active; 'I' for Inactive)
REMARK    1  A    between atoms: C_1  and  C_2
REMARK    2  A    between atoms: C_6  and  C_7
REMARK    3  A    between atoms: C_15  and  C_16
REMARK    4  A    between atoms: C_18  and  N_19
REMARK    5  A    between atoms: C_20  and  O_21
REMARK                            x       y       z     vdW  Elec       q    Type
REMARK                         _______ _______ _______ _____ _____    ______ ____
ROOT
ATOM      1  C   UNL     1       2.365  13.176  17.964  0.00  0.00    +0.000 C 
ATOM      2  C   UNL     1       1.069  12.746  18.606  0.00  0.00    +0.000 C 
ATOM      3  O   UNL     1       0.266  13.570  19.055  0.00  0.00    +0.000 OA
ATOM      4  N   UNL     1       0.861  11.380  18.658  0.00  0.00    +0.000 N 
ATOM      5  N   UNL     1       1.846  10.500  18.316  0.00  0.00    +0.000 NA
ATOM      6  C   UNL     1       1.479   9.327  18.730  0.00  0.00    +0.000 C 
ATOM      7  C   UNL     1       0.117   9.274  19.379  0.00  0.00    +0.000 C 
ATOM      8  C   UNL     1      -0.286  10.749  19.305  0.00  0.00    +0.000 C 
ENDROOT
BRANCH   6   9
ATOM      9  C   UNL     1       2.330   8.123  18.601  0.00  0.00    +0.000 A 
ATOM     10  C   UNL     1       3.158   8.014  17.472  0.00  0.00    +0.000 A 
ATOM     11  C   UNL     1       4.006   6.915  17.319  0.00  0.00    +0.000 A 
ATOM     12  C   UNL     1       4.042   5.918  18.287  0.00  0.00    +0.000 A 
ATOM     13  C   UNL     1       3.220   6.012  19.409  0.00  0.00    +0.000 A 
ATOM     14  C   UNL     1       2.360   7.105  19.567  0.00  0.00    +0.000 A 
ATOM     15 BR   UNL     1       1.229   7.046  21.098  0.00  0.00    +0.000 Br
ENDBRANCH   6   9
BRANCH   8  16
ATOM     16  C   UNL     1      -1.577  10.963  18.532  0.00  0.00    +0.000 A 
ATOM     17  C   UNL     1      -2.636  11.688  19.111  0.00  0.00    +0.000 A 
ATOM     18  C   UNL     1      -3.814  11.941  18.397  0.00  0.00    +0.000 A 
ATOM     19  C   UNL     1      -3.975  11.354  17.133  0.00  0.00    +0.000 A 
ATOM     20  C   UNL     1      -2.939  10.631  16.543  0.00  0.00    +0.000 A 
ATOM     21 CL   UNL     1      -3.113   9.904  14.988  0.00  0.00    +0.000 Cl
ATOM     22  C   UNL     1      -1.740  10.448  17.234  0.00  0.00    +0.000 A 
BRANCH  18  23
ATOM     23  N   UNL     1      -4.891  12.614  19.016  0.00  0.00    +0.000 N 
ATOM     24  H   UNL     1      -5.401  12.010  19.658  0.00  0.00    +0.000 HD
ATOM     25  H   UNL     1      -4.580  13.445  19.517  0.00  0.00    +0.000 HD
ENDBRANCH  18  23
BRANCH  19  26
ATOM     26  O   UNL     1      -5.184  11.478  16.497  0.00  0.00    +0.000 OA
ATOM     27  H   UNL     1      -5.006  11.258  15.564  0.00  0.00    +0.000 HD
ENDBRANCH  19  26
ENDBRANCH   8  16
TORSDOF 4
ENDMDL
MODEL 9
REMARK VINA RESULT:      -7.1      4.978      7.540
REMARK  Name = 
REMARK  5 active torsions:
REMARK  status: ('A' for Active; 'I' for Inactive)
REMARK    1  A    between atoms: C_1  and  C_2
REMARK    2  A    between atoms: C_6  and  C_7
REMARK    3  A    between atoms: C_15  and  C_16
REMARK    4  A    between atoms: C_18  and  N_19
REMARK    5  A    between atoms: C_20  and  O_21
REMARK                            x       y       z     vdW  Elec       q    Type
REMARK                         _______ _______ _______ _____ _____    ______ ____
ROOT
ATOM      1  C   UNL     1      -0.346   9.569  22.586  0.00  0.00    +0.000 C 
ATOM      2  C   UNL     1      -0.456  10.357  21.304  0.00  0.00    +0.000 C 
ATOM      3  O   UNL     1      -0.098   9.885  20.222  0.00  0.00    +0.000 OA
ATOM      4  N   UNL     1      -0.974  11.632  21.439  0.00  0.00    +0.000 N 
ATOM      5  N   UNL     1      -1.191  12.183  22.669  0.00  0.00    +0.000 NA
ATOM      6  C   UNL     1      -1.395  13.452  22.495  0.00  0.00    +0.000 C 
ATOM      7  C   UNL     1      -1.393  13.910  21.056  0.00  0.00    +0.000 C 
ATOM      8  C   UNL     1      -1.094  12.590  20.343  0.00  0.00    +0.000 C 
ENDROOT
BRANCH   6   9
ATOM      9  C   UNL     1      -1.597  14.397  23.616  0.00  0.00    +0.000 A 
ATOM     10  C   UNL     1      -0.637  15.401  23.821  0.00  0.00    +0.000 A 
ATOM     11  C   UNL     1      -0.798  16.339  24.842  0.00  0.00    +0.000 A 
ATOM     12  C   UNL     1      -1.917  16.291  25.666  0.00  0.00    +0.000 A 
ATOM     13  C   UNL     1      -2.874  15.295  25.478  0.00  0.00    +0.000 A 
ATOM     14  C   UNL     1      -2.717  14.344  24.462  0.00  0.00    +0.000 A 
ATOM     15 BR   UNL     1      -4.054  12.990  24.390  0.00  0.00    +0.000 Br
ENDBRANCH   6   9
BRANCH   8  16
ATOM     16  C   UNL     1      -2.179  12.204  19.351  0.00  0.00    +0.000 A 
ATOM     17  C   UNL     1      -1.838  11.839  18.035  0.00  0.00    +0.000 A 
ATOM     18  C   UNL     1      -2.817  11.430  17.122  0.00  0.00    +0.000 A 
ATOM     19  C   UNL     1      -4.166  11.506  17.501  0.00  0.00    +0.000 A 
ATOM     20  C   UNL     1      -4.525  11.867  18.799  0.00  0.00    +0.000 A 
ATOM     21 CL   UNL     1      -6.176  11.962  19.289  0.00  0.00    +0.000 Cl
ATOM     22  C   UNL     1      -3.534  12.200  19.724  0.00  0.00    +0.000 A 
BRANCH  18  23
ATOM     23  N   UNL     1      -2.465  11.130  15.787  0.00  0.00    +0.000 N 
ATOM     24  H   UNL     1      -2.877  11.786  15.127  0.00  0.00    +0.000 HD
ATOM     25  H   UNL     1      -1.454  11.116  15.656  0.00  0.00    +0.000 HD
ENDBRANCH  18  23
BRANCH  19  26
ATOM     26  O   UNL     1      -5.131  11.247  16.561  0.00  0.00    +0.000 OA
ATOM     27  H   UNL     1      -5.401  12.121  16.223  0.00  0.00    +0.000 HD
ENDBRANCH  19  26
ENDBRANCH   8  16
TORSDOF 4
ENDMDL
