MODEL 1
REMARK VINA RESULT:      -7.4      0.000      0.000
REMARK  Name = 
REMARK  7 active torsions:
REMARK  status: ('A' for Active; 'I' for Inactive)
REMARK    1  A    between atoms: C_1  and  C_2
REMARK    2  A    between atoms: C_5  and  S_6
REMARK    3  A    between atoms: S_6  and  C_9
REMARK    4  A    between atoms: C_11  and  S_12
REMARK    5  A    between atoms: S_12  and  C_15
REMARK    6  A    between atoms: C_22  and  N_23
REMARK    7  A    between atoms: N_26  and  C_27
REMARK                            x       y       z     vdW  Elec       q    Type
REMARK                         _______ _______ _______ _____ _____    ______ ____
ROOT
ATOM      1  C   UNL     1      -0.329  10.605  19.686  0.00  0.00    +0.000 A 
ATOM      2  N   UNL     1      -1.531  10.084  19.185  0.00  0.00    +0.000 NA
ATOM      3  C   UNL     1      -2.097  10.951  18.379  0.00  0.00    +0.000 A 
ATOM      4  S   UNL     1      -1.283  12.423  18.189  0.00  0.00    +0.000 S 
ATOM      5  C   UNL     1       0.009  11.894  19.246  0.00  0.00    +0.000 A 
ENDROOT
BRANCH   5   6
ATOM      6  N   UNL     1       1.098  12.711  19.446  0.00  0.00    +0.000 N 
ATOM      7  C   UNL     1       1.184  13.697  20.545  0.00  0.00    +0.000 C 
ATOM      8  C   UNL     1       1.721  15.055  20.026  0.00  0.00    +0.000 C 
ATOM      9  N   UNL     1       2.998  14.939  19.287  0.00  0.00    +0.000 NA
ATOM     10  C   UNL     1       3.395  16.230  18.723  0.00  0.00    +0.000 C 
ATOM     11  C   UNL     1       2.843  13.950  18.202  0.00  0.00    +0.000 C 
ATOM     12  C   UNL     1       2.352  12.573  18.700  0.00  0.00    +0.000 C 
ENDBRANCH   5   6
BRANCH   1  13
ATOM     13  S   UNL     1       0.527   9.627  20.865  0.00  0.00    +0.000 S 
ATOM     14  O   UNL     1      -0.497   8.879  21.568  0.00  0.00    +0.000 OA
ATOM     15  O   UNL     1       1.454  10.513  21.539  0.00  0.00    +0.000 OA
BRANCH  13  20
ATOM     16  C   UNL     1       3.650   5.698  17.468  0.00  0.00    +0.000 C 
ATOM     17  C   UNL     1       2.932   6.683  18.342  0.00  0.00    +0.000 A 
ATOM     18  C   UNL     1       2.586   6.359  19.661  0.00  0.00    +0.000 A 
ATOM     19  C   UNL     1       1.877   7.266  20.450  0.00  0.00    +0.000 A 
ATOM     20  C   UNL     1       1.502   8.496  19.906  0.00  0.00    +0.000 A 
ATOM     21  C   UNL     1       1.873   8.849  18.604  0.00  0.00    +0.000 A 
ATOM     22  C   UNL     1       2.585   7.938  17.824  0.00  0.00    +0.000 A 
ENDBRANCH  13  20
ENDBRANCH   1  13
BRANCH   3  23
ATOM     23  S   UNL     1      -3.633  10.682  17.517  0.00  0.00    +0.000 S 
ATOM     24  O   UNL     1      -3.617  11.532  16.338  0.00  0.00    +0.000 OA
ATOM     25  O   UNL     1      -3.789   9.244  17.407  0.00  0.00    +0.000 OA
BRANCH  23  26
ATOM     26  C   UNL     1      -4.908  11.278  18.602  0.00  0.00    +0.000 A 
ATOM     27  C   UNL     1      -4.648  12.355  19.456  0.00  0.00    +0.000 A 
ATOM     28  C   UNL     1      -5.654  12.816  20.305  0.00  0.00    +0.000 A 
ATOM     29  C   UNL     1      -6.909  12.205  20.300  0.00  0.00    +0.000 A 
ATOM     30  C   UNL     1      -7.168  11.137  19.439  0.00  0.00    +0.000 A 
ATOM     31  C   UNL     1      -6.170  10.675  18.580  0.00  0.00    +0.000 A 
ENDBRANCH  23  26
ENDBRANCH   3  23
TORSDOF 5
ENDMDL
MODEL 2
REMARK VINA RESULT:      -7.3      3.710      5.129
REMARK  Name = 
REMARK  7 active torsions:
REMARK  status: ('A' for Active; 'I' for Inactive)
REMARK    1  A    between atoms: C_1  and  C_2
REMARK    2  A    between atoms: C_5  and  S_6
REMARK    3  A    between atoms: S_6  and  C_9
REMARK    4  A    between atoms: C_11  and  S_12
REMARK    5  A    between atoms: S_12  and  C_15
REMARK    6  A    between atoms: C_22  and  N_23
REMARK    7  A    between atoms: N_26  and  C_27
REMARK                            x       y       z     vdW  Elec       q    Type
REMARK                         _______ _______ _______ _____ _____    ______ ____
ROOT
ATOM      1  C   UNL     1      -2.464  13.086  21.562  0.00  0.00    +0.000 A 
ATOM      2  N   UNL     1      -2.993  12.336  20.500  0.00  0.00    +0.000 NA
ATOM      3  C   UNL     1      -4.222  12.719  20.247  0.00  0.00    +0.000 A 
ATOM      4  S   UNL     1      -4.836  13.940  21.245  0.00  0.00    +0.000 S 
ATOM      5  C   UNL     1      -3.321  14.049  22.116  0.00  0.00    +0.000 A 
ENDROOT
BRANCH   5   6
ATOM      6  N   UNL     1      -3.170  15.001  23.098  0.00  0.00    +0.000 N 
ATOM      7  C   UNL     1      -2.540  16.318  22.863  0.00  0.00    +0.000 C 
ATOM      8  C   UNL     1      -1.540  16.660  23.997  0.00  0.00    +0.000 C 
ATOM      9  N   UNL     1      -2.131  16.564  25.351  0.00  0.00    +0.000 NA
ATOM     10  C   UNL     1      -1.117  16.784  26.382  0.00  0.00    +0.000 C 
ATOM     11  C   UNL     1      -2.734  15.228  25.524  0.00  0.00    +0.000 C 
ATOM     12  C   UNL     1      -3.768  14.881  24.431  0.00  0.00    +0.000 C 
ENDBRANCH   5   6
BRANCH   1  13
ATOM     13  S   UNL     1      -0.858  12.649  22.115  0.00  0.00    +0.000 S 
ATOM     14  O   UNL     1      -1.061  11.820  23.287  0.00  0.00    +0.000 OA
ATOM     15  O   UNL     1      -0.085  13.874  22.145  0.00  0.00    +0.000 OA
BRANCH  13  20
ATOM     16  C   UNL     1       1.664   9.192  17.822  0.00  0.00    +0.000 C 
ATOM     17  C   UNL     1       0.988  10.057  18.845  0.00  0.00    +0.000 A 
ATOM     18  C   UNL     1       0.937  11.449  18.693  0.00  0.00    +0.000 A 
ATOM     19  C   UNL     1       0.347  12.247  19.675  0.00  0.00    +0.000 A 
ATOM     20  C   UNL     1      -0.180  11.644  20.818  0.00  0.00    +0.000 A 
ATOM     21  C   UNL     1      -0.171  10.253  20.966  0.00  0.00    +0.000 A 
ATOM     22  C   UNL     1       0.416   9.463  19.979  0.00  0.00    +0.000 A 
ENDBRANCH  13  20
ENDBRANCH   1  13
BRANCH   3  23
ATOM     23  S   UNL     1      -5.254  12.035  18.965  0.00  0.00    +0.000 S 
ATOM     24  O   UNL     1      -6.049  10.981  19.571  0.00  0.00    +0.000 OA
ATOM     25  O   UNL     1      -5.879  13.165  18.304  0.00  0.00    +0.000 OA
BRANCH  23  26
ATOM     26  C   UNL     1      -4.143  11.281  17.801  0.00  0.00    +0.000 A 
ATOM     27  C   UNL     1      -4.297  11.527  16.432  0.00  0.00    +0.000 A 
ATOM     28  C   UNL     1      -3.422  10.931  15.525  0.00  0.00    +0.000 A 
ATOM     29  C   UNL     1      -2.400  10.096  15.982  0.00  0.00    +0.000 A 
ATOM     30  C   UNL     1      -2.243   9.862  17.350  0.00  0.00    +0.000 A 
ATOM     31  C   UNL     1      -3.109  10.461  18.265  0.00  0.00    +0.000 A 
ENDBRANCH  23  26
ENDBRANCH   3  23
TORSDOF 5
ENDMDL
MODEL 3
REMARK VINA RESULT:      -7.2      0.850      1.373
REMARK  Name = 
REMARK  7 active torsions:
REMARK  status: ('A' for Active; 'I' for Inactive)
REMARK    1  A    between atoms: C_1  and  C_2
REMARK    2  A    between atoms: C_5  and  S_6
REMARK    3  A    between atoms: S_6  and  C_9
REMARK    4  A    between atoms: C_11  and  S_12
REMARK    5  A    between atoms: S_12  and  C_15
REMARK    6  A    between atoms: C_22  and  N_23
REMARK    7  A    between atoms: N_26  and  C_27
REMARK                            x       y       z     vdW  Elec       q    Type
REMARK                         _______ _______ _______ _____ _____    ______ ____
ROOT
ATOM      1  C   UNL     1      -0.306  10.642  19.714  0.00  0.00    +0.000 A 
ATOM      2  N   UNL     1      -1.408  10.099  19.036  0.00  0.00    +0.000 NA
ATOM      3  C   UNL     1      -1.972  11.015  18.285  0.00  0.00    +0.000 A 
ATOM      4  S   UNL     1      -1.275  12.556  18.351  0.00  0.00    +0.000 S 
ATOM      5  C   UNL     1      -0.042  11.998  19.463  0.00  0.00    +0.000 A 
ENDROOT
BRANCH   5   6
ATOM      6  N   UNL     1       0.949  12.862  19.866  0.00  0.00    +0.000 N 
ATOM      7  C   UNL     1       0.848  13.709  21.074  0.00  0.00    +0.000 C 
ATOM      8  C   UNL     1       1.311  15.157  20.773  0.00  0.00    +0.000 C 
ATOM      9  N   UNL     1       2.656  15.229  20.159  0.00  0.00    +0.000 NA
ATOM     10  C   UNL     1       2.990  16.605  19.792  0.00  0.00    +0.000 C 
ATOM     11  C   UNL     1       2.687  14.373  18.958  0.00  0.00    +0.000 C 
ATOM     12  C   UNL     1       2.274  12.912  19.241  0.00  0.00    +0.000 C 
ENDBRANCH   5   6
BRANCH   1  13
ATOM     13  S   UNL     1       0.521   9.592  20.849  0.00  0.00    +0.000 S 
ATOM     14  O   UNL     1      -0.522   8.818  21.495  0.00  0.00    +0.000 OA
ATOM     15  O   UNL     1       1.447  10.428  21.585  0.00  0.00    +0.000 OA
BRANCH  13  20
ATOM     16  C   UNL     1       4.058   5.940  17.550  0.00  0.00    +0.000 C 
ATOM     17  C   UNL     1       3.132   6.828  18.328  0.00  0.00    +0.000 A 
ATOM     18  C   UNL     1       2.716   8.064  17.813  0.00  0.00    +0.000 A 
ATOM     19  C   UNL     1       1.892   8.902  18.566  0.00  0.00    +0.000 A 
ATOM     20  C   UNL     1       1.498   8.503  19.844  0.00  0.00    +0.000 A 
ATOM     21  C   UNL     1       1.874   7.256  20.355  0.00  0.00    +0.000 A 
ATOM     22  C   UNL     1       2.693   6.423  19.595  0.00  0.00    +0.000 A 
ENDBRANCH  13  20
ENDBRANCH   1  13
BRANCH   3  23
ATOM     23  S   UNL     1      -3.395  10.742  17.247  0.00  0.00    +0.000 S 
ATOM     24  O   UNL     1      -3.058  11.231  15.921  0.00  0.00    +0.000 OA
ATOM     25  O   UNL     1      -3.794   9.364  17.463  0.00  0.00    +0.000 OA
BRANCH  23  26
ATOM     26  C   UNL     1      -4.679  11.780  17.903  0.00  0.00    +0.000 A 
ATOM     27  C   UNL     1      -5.611  12.364  17.039  0.00  0.00    +0.000 A 
ATOM     28  C   UNL     1      -6.616  13.179  17.561  0.00  0.00    +0.000 A 
ATOM     29  C   UNL     1      -6.688  13.407  18.937  0.00  0.00    +0.000 A 
ATOM     30  C   UNL     1      -5.761  12.813  19.797  0.00  0.00    +0.000 A 
ATOM     31  C   UNL     1      -4.758  11.991  19.284  0.00  0.00    +0.000 A 
ENDBRANCH  23  26
ENDBRANCH   3  23
TORSDOF 5
ENDMDL
MODEL 4
REMARK VINA RESULT:      -7.0      3.821      5.144
REMARK  Name = 
REMARK  7 active torsions:
REMARK  status: ('A' for Active; 'I' for Inactive)
REMARK    1  A    between atoms: C_1  and  C_2
REMARK    2  A    between atoms: C_5  and  S_6
REMARK    3  A    between atoms: S_6  and  C_9
REMARK    4  A    between atoms: C_11  and  S_12
REMARK    5  A    between atoms: S_12  and  C_15
REMARK    6  A    between atoms: C_22  and  N_23
REMARK    7  A    between atoms: N_26  and  C_27
REMARK                            x       y       z     vdW  Elec       q    Type
REMARK                         _______ _______ _______ _____ _____    ______ ____
ROOT
ATOM      1  C   UNL     1      -2.442  12.985  21.710  0.00  0.00    +0.000 A 
ATOM      2  N   UNL     1      -3.028  12.207  20.700  0.00  0.00    +0.000 NA
ATOM      3  C   UNL     1      -4.156  12.751  20.309  0.00  0.00    +0.000 A 
ATOM      4  S   UNL     1      -4.608  14.171  21.112  0.00  0.00    +0.000 S 
ATOM      5  C   UNL     1      -3.151  14.137  22.083  0.00  0.00    +0.000 A 
ENDROOT
BRANCH   5   6
ATOM      6  N   UNL     1      -2.896  15.166  22.959  0.00  0.00    +0.000 N 
ATOM      7  C   UNL     1      -2.980  15.023  24.429  0.00  0.00    +0.000 C 
ATOM      8  C   UNL     1      -3.738  16.219  25.057  0.00  0.00    +0.000 C 
ATOM      9  N   UNL     1      -3.190  17.536  24.662  0.00  0.00    +0.000 NA
ATOM     10  C   UNL     1      -4.013  18.625  25.189  0.00  0.00    +0.000 C 
ATOM     11  C   UNL     1      -3.141  17.619  23.189  0.00  0.00    +0.000 C 
ATOM     12  C   UNL     1      -2.351  16.461  22.541  0.00  0.00    +0.000 C 
ENDBRANCH   5   6
BRANCH   1  13
ATOM     13  S   UNL     1      -0.971  12.362  22.434  0.00  0.00    +0.000 S 
ATOM     14  O   UNL     1      -1.402  11.389  23.419  0.00  0.00    +0.000 OA
ATOM     15  O   UNL     1      -0.159  13.513  22.773  0.00  0.00    +0.000 OA
BRANCH  13  20
ATOM     16  C   UNL     1       1.684   9.480  17.810  0.00  0.00    +0.000 C 
ATOM     17  C   UNL     1       1.080  10.182  18.990  0.00  0.00    +0.000 A 
ATOM     18  C   UNL     1       0.585   9.459  20.084  0.00  0.00    +0.000 A 
ATOM     19  C   UNL     1      -0.017  10.120  21.156  0.00  0.00    +0.000 A 
ATOM     20  C   UNL     1      -0.133  11.511  21.120  0.00  0.00    +0.000 A 
ATOM     21  C   UNL     1       0.391  12.249  20.054  0.00  0.00    +0.000 A 
ATOM     22  C   UNL     1       0.994  11.581  18.989  0.00  0.00    +0.000 A 
ENDBRANCH  13  20
ENDBRANCH   1  13
BRANCH   3  23
ATOM     23  S   UNL     1      -5.213  12.093  19.034  0.00  0.00    +0.000 S 
ATOM     24  O   UNL     1      -6.010  11.040  19.640  0.00  0.00    +0.000 OA
ATOM     25  O   UNL     1      -5.835  13.236  18.394  0.00  0.00    +0.000 OA
BRANCH  23  26
ATOM     26  C   UNL     1      -4.126  11.340  17.846  0.00  0.00    +0.000 A 
ATOM     27  C   UNL     1      -4.395  11.466  16.480  0.00  0.00    +0.000 A 
ATOM     28  C   UNL     1      -3.538  10.872  15.553  0.00  0.00    +0.000 A 
ATOM     29  C   UNL     1      -2.421  10.158  15.991  0.00  0.00    +0.000 A 
ATOM     30  C   UNL     1      -2.150  10.044  17.356  0.00  0.00    +0.000 A 
ATOM     31  C   UNL     1      -2.998  10.642  18.289  0.00  0.00    +0.000 A 
ENDBRANCH  23  26
ENDBRANCH   3  23
TORSDOF 5
ENDMDL
MODEL 5
REMARK VINA RESULT:      -7.0      2.470      6.212
REMARK  Name = 
REMARK  7 active torsions:
REMARK  status: ('A' for Active; 'I' for Inactive)
REMARK    1  A    between atoms: C_1  and  C_2
REMARK    2  A    between atoms: C_5  and  S_6
REMARK    3  A    between atoms: S_6  and  C_9
REMARK    4  A    between atoms: C_11  and  S_12
REMARK    5  A    between atoms: S_12  and  C_15
REMARK    6  A    between atoms: C_22  and  N_23
REMARK    7  A    between atoms: N_26  and  C_27
REMARK                            x       y       z     vdW  Elec       q    Type
REMARK                         _______ _______ _______ _____ _____    ______ ____
ROOT
ATOM      1  C   UNL     1       0.300  11.047  20.754  0.00  0.00    +0.000 A 
ATOM      2  N   UNL     1       1.180  11.982  21.321  0.00  0.00    +0.000 NA
ATOM      3  C   UNL     1       1.071  13.135  20.706  0.00  0.00    +0.000 A 
ATOM      4  S   UNL     1      -0.031  13.187  19.423  0.00  0.00    +0.000 S 
ATOM      5  C   UNL     1      -0.484  11.516  19.688  0.00  0.00    +0.000 A 
ENDROOT
BRANCH   5   6
ATOM      6  N   UNL     1      -1.482  10.954  18.925  0.00  0.00    +0.000 N 
ATOM      7  C   UNL     1      -1.265   9.806  18.020  0.00  0.00    +0.000 C 
ATOM      8  C   UNL     1      -1.946  10.048  16.649  0.00  0.00    +0.000 C 
ATOM      9  N   UNL     1      -3.379  10.401  16.758  0.00  0.00    +0.000 NA
ATOM     10  C   UNL     1      -3.938  10.731  15.447  0.00  0.00    +0.000 C 
ATOM     11  C   UNL     1      -3.526  11.556  17.665  0.00  0.00    +0.000 C 
ATOM     12  C   UNL     1      -2.895  11.323  19.055  0.00  0.00    +0.000 C 
ENDBRANCH   5   6
BRANCH   1  13
ATOM     13  S   UNL     1       0.374   9.410  21.379  0.00  0.00    +0.000 S 
ATOM     14  O   UNL     1      -0.978   8.895  21.283  0.00  0.00    +0.000 OA
ATOM     15  O   UNL     1       1.100   9.480  22.630  0.00  0.00    +0.000 OA
BRANCH  13  20
ATOM     16  C   UNL     1       3.686   6.341  17.336  0.00  0.00    +0.000 C 
ATOM     17  C   UNL     1       2.920   7.108  18.373  0.00  0.00    +0.000 A 
ATOM     18  C   UNL     1       2.570   6.518  19.595  0.00  0.00    +0.000 A 
ATOM     19  C   UNL     1       1.816   7.226  20.533  0.00  0.00    +0.000 A 
ATOM     20  C   UNL     1       1.403   8.525  20.235  0.00  0.00    +0.000 A 
ATOM     21  C   UNL     1       1.779   9.142  19.036  0.00  0.00    +0.000 A 
ATOM     22  C   UNL     1       2.534   8.429  18.107  0.00  0.00    +0.000 A 
ENDBRANCH  13  20
ENDBRANCH   1  13
BRANCH   3  23
ATOM     23  S   UNL     1       2.000  14.598  21.121  0.00  0.00    +0.000 S 
ATOM     24  O   UNL     1       1.079  15.523  21.760  0.00  0.00    +0.000 OA
ATOM     25  O   UNL     1       3.197  14.138  21.799  0.00  0.00    +0.000 OA
BRANCH  23  26
ATOM     26  C   UNL     1       2.501  15.309  19.572  0.00  0.00    +0.000 A 
ATOM     27  C   UNL     1       3.511  14.700  18.820  0.00  0.00    +0.000 A 
ATOM     28  C   UNL     1       3.899  15.264  17.605  0.00  0.00    +0.000 A 
ATOM     29  C   UNL     1       3.281  16.429  17.145  0.00  0.00    +0.000 A 
ATOM     30  C   UNL     1       2.265  17.028  17.893  0.00  0.00    +0.000 A 
ATOM     31  C   UNL     1       1.865  16.465  19.105  0.00  0.00    +0.000 A 
ENDBRANCH  23  26
ENDBRANCH   3  23
TORSDOF 5
ENDMDL
MODEL 6
REMARK VINA RESULT:      -6.9      3.838      5.321
REMARK  Name = 
REMARK  7 active torsions:
REMARK  status: ('A' for Active; 'I' for Inactive)
REMARK    1  A    between atoms: C_1  and  C_2
REMARK    2  A    between atoms: C_5  and  S_6
REMARK    3  A    between atoms: S_6  and  C_9
REMARK    4  A    between atoms: C_11  and  S_12
REMARK    5  A    between atoms: S_12  and  C_15
REMARK    6  A    between atoms: C_22  and  N_23
REMARK    7  A    between atoms: N_26  and  C_27
REMARK                            x       y       z     vdW  Elec       q    Type
REMARK                         _______ _______ _______ _____ _____    ______ ____
ROOT
ATOM      1  C   UNL     1      -2.569  13.502  21.106  0.00  0.00    +0.000 A 
ATOM      2  N   UNL     1      -3.056  12.758  20.020  0.00  0.00    +0.000 NA
ATOM      3  C   UNL     1      -4.368  12.773  20.015  0.00  0.00    +0.000 A 
ATOM      4  S   UNL     1      -5.102  13.619  21.284  0.00  0.00    +0.000 S 
ATOM      5  C   UNL     1      -3.543  14.083  21.933  0.00  0.00    +0.000 A 
ENDROOT
BRANCH   5   6
ATOM      6  N   UNL     1      -3.485  14.913  23.029  0.00  0.00    +0.000 N 
ATOM      7  C   UNL     1      -3.321  16.379  22.932  0.00  0.00    +0.000 C 
ATOM      8  C   UNL     1      -2.261  16.883  23.944  0.00  0.00    +0.000 C 
ATOM      9  N   UNL     1      -2.521  16.448  25.335  0.00  0.00    +0.000 NA
ATOM     10  C   UNL     1      -1.432  16.854  26.223  0.00  0.00    +0.000 C 
ATOM     11  C   UNL     1      -2.665  14.979  25.364  0.00  0.00    +0.000 C 
ATOM     12  C   UNL     1      -3.748  14.455  24.397  0.00  0.00    +0.000 C 
ENDBRANCH   5   6
BRANCH   1  13
ATOM     13  S   UNL     1      -0.831  13.515  21.340  0.00  0.00    +0.000 S 
ATOM     14  O   UNL     1      -0.624  13.988  22.695  0.00  0.00    +0.000 OA
ATOM     15  O   UNL     1      -0.266  14.178  20.183  0.00  0.00    +0.000 OA
BRANCH  13  20
ATOM     16  C   UNL     1       1.056   7.759  21.151  0.00  0.00    +0.000 C 
ATOM     17  C   UNL     1       0.537   9.166  21.162  0.00  0.00    +0.000 A 
ATOM     18  C   UNL     1       0.642   9.983  20.028  0.00  0.00    +0.000 A 
ATOM     19  C   UNL     1       0.199  11.306  20.065  0.00  0.00    +0.000 A 
ATOM     20  C   UNL     1      -0.340  11.812  21.249  0.00  0.00    +0.000 A 
ATOM     21  C   UNL     1      -0.488  10.997  22.377  0.00  0.00    +0.000 A 
ATOM     22  C   UNL     1      -0.046   9.676  22.330  0.00  0.00    +0.000 A 
ENDBRANCH  13  20
ENDBRANCH   1  13
BRANCH   3  23
ATOM     23  S   UNL     1      -5.387  11.963  18.798  0.00  0.00    +0.000 S 
ATOM     24  O   UNL     1      -6.119  10.911  19.483  0.00  0.00    +0.000 OA
ATOM     25  O   UNL     1      -6.079  13.019  18.083  0.00  0.00    +0.000 OA
BRANCH  23  26
ATOM     26  C   UNL     1      -4.262  11.194  17.659  0.00  0.00    +0.000 A 
ATOM     27  C   UNL     1      -3.294  10.302  18.132  0.00  0.00    +0.000 A 
ATOM     28  C   UNL     1      -2.414   9.702  17.232  0.00  0.00    +0.000 A 
ATOM     29  C   UNL     1      -2.501   9.991  15.869  0.00  0.00    +0.000 A 
ATOM     30  C   UNL     1      -3.476  10.874  15.399  0.00  0.00    +0.000 A 
ATOM     31  C   UNL     1      -4.366  11.472  16.292  0.00  0.00    +0.000 A 
ENDBRANCH  23  26
ENDBRANCH   3  23
TORSDOF 5
ENDMDL
MODEL 7
REMARK VINA RESULT:      -6.9      3.802      5.695
REMARK  Name = 
REMARK  7 active torsions:
REMARK  status: ('A' for Active; 'I' for Inactive)
REMARK    1  A    between atoms: C_1  and  C_2
REMARK    2  A    between atoms: C_5  and  S_6
REMARK    3  A    between atoms: S_6  and  C_9
REMARK    4  A    between atoms: C_11  and  S_12
REMARK    5  A    between atoms: S_12  and  C_15
REMARK    6  A    between atoms: C_22  and  N_23
REMARK    7  A    between atoms: N_26  and  C_27
REMARK                            x       y       z     vdW  Elec       q    Type
REMARK                         _______ _______ _______ _____ _____    ______ ____
ROOT
ATOM      1  C   UNL     1      -3.489  13.480  20.930  0.00  0.00    +0.000 A 
ATOM      2  N   UNL     1      -3.753  12.618  19.854  0.00  0.00    +0.000 NA
ATOM      3  C   UNL     1      -5.047  12.512  19.668  0.00  0.00    +0.000 A 
ATOM      4  S   UNL     1      -6.022  13.376  20.749  0.00  0.00    +0.000 S 
ATOM      5  C   UNL     1      -4.615  14.027  21.564  0.00  0.00    +0.000 A 
ENDROOT
BRANCH   5   6
ATOM      6  N   UNL     1      -4.782  14.935  22.584  0.00  0.00    +0.000 N 
ATOM      7  C   UNL     1      -5.250  16.321  22.371  0.00  0.00    +0.000 C 
ATOM      8  C   UNL     1      -4.387  17.325  23.177  0.00  0.00    +0.000 C 
ATOM      9  N   UNL     1      -4.287  16.991  24.615  0.00  0.00    +0.000 NA
ATOM     10  C   UNL     1      -3.370  17.902  25.301  0.00  0.00    +0.000 C 
ATOM     11  C   UNL     1      -3.807  15.603  24.759  0.00  0.00    +0.000 C 
ATOM     12  C   UNL     1      -4.677  14.577  24.002  0.00  0.00    +0.000 C 
ENDBRANCH   5   6
BRANCH   1  13
ATOM     13  S   UNL     1      -1.809  13.670  21.397  0.00  0.00    +0.000 S 
ATOM     14  O   UNL     1      -1.751  13.309  22.800  0.00  0.00    +0.000 OA
ATOM     15  O   UNL     1      -1.388  14.965  20.902  0.00  0.00    +0.000 OA
BRANCH  13  20
ATOM     16  C   UNL     1       1.008   9.487  18.035  0.00  0.00    +0.000 C 
ATOM     17  C   UNL     1       0.361  10.521  18.908  0.00  0.00    +0.000 A 
ATOM     18  C   UNL     1      -0.228  10.167  20.130  0.00  0.00    +0.000 A 
ATOM     19  C   UNL     1      -0.868  11.130  20.912  0.00  0.00    +0.000 A 
ATOM     20  C   UNL     1      -0.927  12.449  20.457  0.00  0.00    +0.000 A 
ATOM     21  C   UNL     1      -0.309  12.824  19.259  0.00  0.00    +0.000 A 
ATOM     22  C   UNL     1       0.331  11.857  18.486  0.00  0.00    +0.000 A 
ENDBRANCH  13  20
ENDBRANCH   1  13
BRANCH   3  23
ATOM     23  S   UNL     1      -5.813  11.527  18.396  0.00  0.00    +0.000 S 
ATOM     24  O   UNL     1      -6.429  10.385  19.050  0.00  0.00    +0.000 OA
ATOM     25  O   UNL     1      -6.594  12.445  17.589  0.00  0.00    +0.000 OA
BRANCH  23  26
ATOM     26  C   UNL     1      -4.482  10.924  17.385  0.00  0.00    +0.000 A 
ATOM     27  C   UNL     1      -4.319  11.413  16.084  0.00  0.00    +0.000 A 
ATOM     28  C   UNL     1      -3.273  10.935  15.296  0.00  0.00    +0.000 A 
ATOM     29  C   UNL     1      -2.395   9.975  15.805  0.00  0.00    +0.000 A 
ATOM     30  C   UNL     1      -2.554   9.498  17.108  0.00  0.00    +0.000 A 
ATOM     31  C   UNL     1      -3.594   9.977  17.905  0.00  0.00    +0.000 A 
ENDBRANCH  23  26
ENDBRANCH   3  23
TORSDOF 5
ENDMDL
MODEL 8
REMARK VINA RESULT:      -6.9      2.470      6.601
REMARK  Name = 
REMARK  7 active torsions:
REMARK  status: ('A' for Active; 'I' for Inactive)
REMARK    1  A    between atoms: C_1  and  C_2
REMARK    2  A    between atoms: C_5  and  S_6
REMARK    3  A    between atoms: S_6  and  C_9
REMARK    4  A    between atoms: C_11  and  S_12
REMARK    5  A    between atoms: S_12  and  C_15
REMARK    6  A    between atoms: C_22  and  N_23
REMARK    7  A    between atoms: N_26  and  C_27
REMARK                            x       y       z     vdW  Elec       q    Type
REMARK                         _______ _______ _______ _____ _____    ______ ____
ROOT
ATOM      1  C   UNL     1       0.419  11.236  20.689  0.00  0.00    +0.000 A 
ATOM      2  N   UNL     1       1.302  12.185  21.226  0.00  0.00    +0.000 NA
ATOM      3  C   UNL     1       1.137  13.342  20.630  0.00  0.00    +0.000 A 
ATOM      4  S   UNL     1      -0.024  13.380  19.399  0.00  0.00    +0.000 S 
ATOM      5  C   UNL     1      -0.425  11.696  19.666  0.00  0.00    +0.000 A 
ENDROOT
BRANCH   5   6
ATOM      6  N   UNL     1      -1.443  11.119  18.944  0.00  0.00    +0.000 N 
ATOM      7  C   UNL     1      -1.238   9.996  18.003  0.00  0.00    +0.000 C 
ATOM      8  C   UNL     1      -1.997  10.244  16.675  0.00  0.00    +0.000 C 
ATOM      9  N   UNL     1      -3.432  10.550  16.866  0.00  0.00    +0.000 NA
ATOM     10  C   UNL     1      -4.069  10.888  15.593  0.00  0.00    +0.000 C 
ATOM     11  C   UNL     1      -3.567  11.681  17.804  0.00  0.00    +0.000 C 
ATOM     12  C   UNL     1      -2.858  11.439  19.154  0.00  0.00    +0.000 C 
ENDBRANCH   5   6
BRANCH   1  13
ATOM     13  S   UNL     1       0.559   9.594  21.292  0.00  0.00    +0.000 S 
ATOM     14  O   UNL     1      -0.793   9.074  21.326  0.00  0.00    +0.000 OA
ATOM     15  O   UNL     1       1.406   9.658  22.466  0.00  0.00    +0.000 OA
BRANCH  13  20
ATOM     16  C   UNL     1       3.890   6.660  17.165  0.00  0.00    +0.000 C 
ATOM     17  C   UNL     1       3.013   7.376  18.149  0.00  0.00    +0.000 A 
ATOM     18  C   UNL     1       2.555   8.677  17.894  0.00  0.00    +0.000 A 
ATOM     19  C   UNL     1       1.779   9.351  18.838  0.00  0.00    +0.000 A 
ATOM     20  C   UNL     1       1.474   8.722  20.045  0.00  0.00    +0.000 A 
ATOM     21  C   UNL     1       1.890   7.410  20.297  0.00  0.00    +0.000 A 
ATOM     22  C   UNL     1       2.662   6.742  19.348  0.00  0.00    +0.000 A 
ENDBRANCH  13  20
ENDBRANCH   1  13
BRANCH   3  23
ATOM     23  S   UNL     1       2.050  14.822  21.019  0.00  0.00    +0.000 S 
ATOM     24  O   UNL     1       1.154  15.946  20.805  0.00  0.00    +0.000 OA
ATOM     25  O   UNL     1       2.670  14.588  22.309  0.00  0.00    +0.000 OA
BRANCH  23  26
ATOM     26  C   UNL     1       3.348  14.922  19.810  0.00  0.00    +0.000 A 
ATOM     27  C   UNL     1       3.029  15.015  18.452  0.00  0.00    +0.000 A 
ATOM     28  C   UNL     1       4.054  15.092  17.509  0.00  0.00    +0.000 A 
ATOM     29  C   UNL     1       5.388  15.077  17.922  0.00  0.00    +0.000 A 
ATOM     30  C   UNL     1       5.702  14.994  19.281  0.00  0.00    +0.000 A 
ATOM     31  C   UNL     1       4.683  14.925  20.231  0.00  0.00    +0.000 A 
ENDBRANCH  23  26
ENDBRANCH   3  23
TORSDOF 5
ENDMDL
MODEL 9
REMARK VINA RESULT:      -6.9      2.469      3.224
REMARK  Name = 
REMARK  7 active torsions:
REMARK  status: ('A' for Active; 'I' for Inactive)
REMARK    1  A    between atoms: C_1  and  C_2
REMARK    2  A    between atoms: C_5  and  S_6
REMARK    3  A    between atoms: S_6  and  C_9
REMARK    4  A    between atoms: C_11  and  S_12
REMARK    5  A    between atoms: S_12  and  C_15
REMARK    6  A    between atoms: C_22  and  N_23
REMARK    7  A    between atoms: N_26  and  C_27
REMARK                            x       y       z     vdW  Elec       q    Type
REMARK                         _______ _______ _______ _____ _____    ______ ____
ROOT
ATOM      1  C   UNL     1      -0.532  11.968  19.560  0.00  0.00    +0.000 A 
ATOM      2  N   UNL     1      -1.139  11.247  18.520  0.00  0.00    +0.000 NA
ATOM      3  C   UNL     1      -2.440  11.412  18.555  0.00  0.00    +0.000 A 
ATOM      4  S   UNL     1      -3.027  12.382  19.811  0.00  0.00    +0.000 S 
ATOM      5  C   UNL     1      -1.404  12.687  20.393  0.00  0.00    +0.000 A 
ENDROOT
BRANCH   5   6
ATOM      6  N   UNL     1      -1.213  13.542  21.454  0.00  0.00    +0.000 N 
ATOM      7  C   UNL     1      -1.332  13.125  22.867  0.00  0.00    +0.000 C 
ATOM      8  C   UNL     1      -2.152  14.160  23.679  0.00  0.00    +0.000 C 
ATOM      9  N   UNL     1      -1.643  15.543  23.553  0.00  0.00    +0.000 NA
ATOM     10  C   UNL     1      -2.521  16.489  24.244  0.00  0.00    +0.000 C 
ATOM     11  C   UNL     1      -1.556  15.900  22.124  0.00  0.00    +0.000 C 
ATOM     12  C   UNL     1      -0.706  14.909  21.300  0.00  0.00    +0.000 C 
ENDBRANCH   5   6
BRANCH   1  13
ATOM     13  S   UNL     1       1.203  11.789  19.739  0.00  0.00    +0.000 S 
ATOM     14  O   UNL     1       1.469  11.960  21.154  0.00  0.00    +0.000 OA
ATOM     15  O   UNL     1       1.810  12.623  18.721  0.00  0.00    +0.000 OA
BRANCH  13  20
ATOM     16  C   UNL     1       2.582   6.057  18.336  0.00  0.00    +0.000 C 
ATOM     17  C   UNL     1       2.186   7.469  18.648  0.00  0.00    +0.000 A 
ATOM     18  C   UNL     1       2.299   8.481  17.684  0.00  0.00    +0.000 A 
ATOM     19  C   UNL     1       1.972   9.800  18.001  0.00  0.00    +0.000 A 
ATOM     20  C   UNL     1       1.543  10.105  19.294  0.00  0.00    +0.000 A 
ATOM     21  C   UNL     1       1.387   9.100  20.255  0.00  0.00    +0.000 A 
ATOM     22  C   UNL     1       1.712   7.784  19.929  0.00  0.00    +0.000 A 
ENDBRANCH  13  20
ENDBRANCH   1  13
BRANCH   3  23
ATOM     23  S   UNL     1      -3.587  10.682  17.403  0.00  0.00    +0.000 S 
ATOM     24  O   UNL     1      -3.188  11.109  16.073  0.00  0.00    +0.000 OA
ATOM     25  O   UNL     1      -3.669   9.276  17.751  0.00  0.00    +0.000 OA
BRANCH  23  26
ATOM     26  C   UNL     1      -5.165  11.416  17.762  0.00  0.00    +0.000 A 
ATOM     27  C   UNL     1      -5.603  12.520  17.025  0.00  0.00    +0.000 A 
ATOM     28  C   UNL     1      -6.842  13.091  17.313  0.00  0.00    +0.000 A 
ATOM     29  C   UNL     1      -7.639  12.560  18.329  0.00  0.00    +0.000 A 
ATOM     30  C   UNL     1      -7.203  11.449  19.055  0.00  0.00    +0.000 A 
ATOM     31  C   UNL     1      -5.968  10.868  18.769  0.00  0.00    +0.000 A 
ENDBRANCH  23  26
ENDBRANCH   3  23
TORSDOF 5
ENDMDL
