MODEL 1
REMARK VINA RESULT:      -7.8      0.000      0.000
REMARK  Name = 
REMARK  7 active torsions:
REMARK  status: ('A' for Active; 'I' for Inactive)
REMARK    1  A    between atoms: C_1  and  C_2
REMARK    2  A    between atoms: C_2  and  C_3
REMARK    3  A    between atoms: C_8  and  C_9
REMARK    4  A    between atoms: C_13  and  O_14
REMARK    5  A    between atoms: O_14  and  C_15
REMARK    6  A    between atoms: C_19  and  O_20
REMARK    7  A    between atoms: C_22  and  O_23
REMARK                            x       y       z     vdW  Elec       q    Type
REMARK                         _______ _______ _______ _____ _____    ______ ____
ROOT
ATOM      1  C   UNL     1       7.989   6.427  18.736  0.00  0.00    +0.000 C 
ATOM      2  C   UNL     1       6.952   6.091  17.647  0.00  0.00    +0.000 C 
ATOM      3  C   UNL     1       6.192   7.386  17.309  0.00  0.00    +0.000 C 
ATOM      4  O   UNL     1       7.692   5.652  16.481  0.00  0.00    +0.000 OA
ATOM      5  C   UNL     1       6.958   5.072  15.479  0.00  0.00    +0.000 A 
ATOM      6  C   UNL     1       7.572   4.965  14.229  0.00  0.00    +0.000 A 
ATOM      7  C   UNL     1       6.888   4.389  13.148  0.00  0.00    +0.000 A 
ATOM      8  C   UNL     1       5.577   3.921  13.309  0.00  0.00    +0.000 A 
ATOM      9  C   UNL     1       4.980   4.006  14.568  0.00  0.00    +0.000 A 
ATOM     10  C   UNL     1       5.678   4.543  15.670  0.00  0.00    +0.000 A 
ATOM     11  C   UNL     1       5.081   4.495  17.060  0.00  0.00    +0.000 C 
ATOM     12  C   UNL     1       6.043   4.961  18.174  0.00  0.00    +0.000 C 
ENDROOT
BRANCH   8  13
ATOM     13  C   UNL     1       4.865   3.342  12.200  0.00  0.00    +0.000 C 
ATOM     14  N   UNL     1       4.294   2.878  11.297  0.00  0.00    +0.000 NA
ENDBRANCH   8  13
BRANCH  12  15
ATOM     15  O   UNL     1       5.342   5.337  19.369  0.00  0.00    +0.000 OA
ATOM     16  H   UNL     1       5.557   4.717  20.084  0.00  0.00    +0.000 HD
ENDBRANCH  12  15
BRANCH  11  17
ATOM     17  O   UNL     1       4.474   3.228  17.374  0.00  0.00    +0.000 OA
BRANCH  17  18
ATOM     18  C   UNL     1       3.315   3.159  18.098  0.00  0.00    +0.000 A 
ATOM     19  C   UNL     1       2.035   3.496  17.664  0.00  0.00    +0.000 A 
ATOM     20  C   UNL     1       0.972   3.371  18.543  0.00  0.00    +0.000 A 
ATOM     21  N   UNL     1       1.105   2.981  19.823  0.00  0.00    +0.000 NA
ATOM     22  C   UNL     1       2.355   2.680  20.206  0.00  0.00    +0.000 A 
ATOM     23  C   UNL     1       3.477   2.726  19.408  0.00  0.00    +0.000 A 
BRANCH  22  24
ATOM     24  O   UNL     1       2.454   2.364  21.518  0.00  0.00    +0.000 OA
ATOM     25  H   UNL     1       2.653   1.414  21.433  0.00  0.00    +0.000 HD
ENDBRANCH  22  24
ENDBRANCH  17  18
ENDBRANCH  11  17
TORSDOF 5
ENDMDL
MODEL 2
REMARK VINA RESULT:      -7.6      2.495      4.623
REMARK  Name = 
REMARK  7 active torsions:
REMARK  status: ('A' for Active; 'I' for Inactive)
REMARK    1  A    between atoms: C_1  and  C_2
REMARK    2  A    between atoms: C_2  and  C_3
REMARK    3  A    between atoms: C_8  and  C_9
REMARK    4  A    between atoms: C_13  and  O_14
REMARK    5  A    between atoms: O_14  and  C_15
REMARK    6  A    between atoms: C_19  and  O_20
REMARK    7  A    between atoms: C_22  and  O_23
REMARK                            x       y       z     vdW  Elec       q    Type
REMARK                         _______ _______ _______ _____ _____    ______ ____
ROOT
ATOM      1  C   UNL     1       7.151   5.266  15.307  0.00  0.00    +0.000 C 
ATOM      2  C   UNL     1       6.511   5.742  16.625  0.00  0.00    +0.000 C 
ATOM      3  C   UNL     1       7.405   6.851  17.206  0.00  0.00    +0.000 C 
ATOM      4  O   UNL     1       5.216   6.297  16.288  0.00  0.00    +0.000 OA
ATOM      5  C   UNL     1       4.374   6.555  17.338  0.00  0.00    +0.000 A 
ATOM      6  C   UNL     1       3.289   7.397  17.084  0.00  0.00    +0.000 A 
ATOM      7  C   UNL     1       2.382   7.717  18.106  0.00  0.00    +0.000 A 
ATOM      8  C   UNL     1       2.560   7.201  19.397  0.00  0.00    +0.000 A 
ATOM      9  C   UNL     1       3.631   6.338  19.636  0.00  0.00    +0.000 A 
ATOM     10  C   UNL     1       4.520   5.976  18.602  0.00  0.00    +0.000 A 
ATOM     11  C   UNL     1       5.586   4.927  18.833  0.00  0.00    +0.000 C 
ATOM     12  C   UNL     1       6.356   4.522  17.557  0.00  0.00    +0.000 C 
ENDROOT
BRANCH   8  13
ATOM     13  C   UNL     1       1.641   7.537  20.453  0.00  0.00    +0.000 C 
ATOM     14  N   UNL     1       0.903   7.816  21.309  0.00  0.00    +0.000 NA
ENDBRANCH   8  13
BRANCH  12  15
ATOM     15  O   UNL     1       7.616   3.903  17.861  0.00  0.00    +0.000 OA
ATOM     16  H   UNL     1       7.884   3.328  17.127  0.00  0.00    +0.000 HD
ENDBRANCH  12  15
BRANCH  11  17
ATOM     17  O   UNL     1       5.106   3.777  19.554  0.00  0.00    +0.000 OA
BRANCH  17  18
ATOM     18  C   UNL     1       3.889   3.220  19.268  0.00  0.00    +0.000 A 
ATOM     19  C   UNL     1       3.471   2.708  18.042  0.00  0.00    +0.000 A 
ATOM     20  C   UNL     1       2.191   2.188  17.932  0.00  0.00    +0.000 A 
ATOM     21  N   UNL     1       1.299   2.186  18.938  0.00  0.00    +0.000 NA
ATOM     22  C   UNL     1       1.736   2.701  20.096  0.00  0.00    +0.000 A 
ATOM     23  C   UNL     1       2.996   3.204  20.332  0.00  0.00    +0.000 A 
BRANCH  22  24
ATOM     24  O   UNL     1       0.785   2.746  21.058  0.00  0.00    +0.000 OA
ATOM     25  H   UNL     1       1.119   2.037  21.638  0.00  0.00    +0.000 HD
ENDBRANCH  22  24
ENDBRANCH  17  18
ENDBRANCH  11  17
TORSDOF 5
ENDMDL
MODEL 3
REMARK VINA RESULT:      -7.6      3.459      6.616
REMARK  Name = 
REMARK  7 active torsions:
REMARK  status: ('A' for Active; 'I' for Inactive)
REMARK    1  A    between atoms: C_1  and  C_2
REMARK    2  A    between atoms: C_2  and  C_3
REMARK    3  A    between atoms: C_8  and  C_9
REMARK    4  A    between atoms: C_13  and  O_14
REMARK    5  A    between atoms: O_14  and  C_15
REMARK    6  A    between atoms: C_19  and  O_20
REMARK    7  A    between atoms: C_22  and  O_23
REMARK                            x       y       z     vdW  Elec       q    Type
REMARK                         _______ _______ _______ _____ _____    ______ ____
ROOT
ATOM      1  C   UNL     1       2.424   2.136  20.745  0.00  0.00    +0.000 C 
ATOM      2  C   UNL     1       2.125   3.320  19.807  0.00  0.00    +0.000 C 
ATOM      3  C   UNL     1       0.710   3.118  19.235  0.00  0.00    +0.000 C 
ATOM      4  O   UNL     1       2.146   4.518  20.620  0.00  0.00    +0.000 OA
ATOM      5  C   UNL     1       2.147   5.712  19.944  0.00  0.00    +0.000 A 
ATOM      6  C   UNL     1       1.816   6.852  20.679  0.00  0.00    +0.000 A 
ATOM      7  C   UNL     1       1.787   8.112  20.062  0.00  0.00    +0.000 A 
ATOM      8  C   UNL     1       2.082   8.238  18.699  0.00  0.00    +0.000 A 
ATOM      9  C   UNL     1       2.439   7.098  17.977  0.00  0.00    +0.000 A 
ATOM     10  C   UNL     1       2.514   5.835  18.601  0.00  0.00    +0.000 A 
ATOM     11  C   UNL     1       3.043   4.633  17.850  0.00  0.00    +0.000 C 
ATOM     12  C   UNL     1       3.225   3.374  18.727  0.00  0.00    +0.000 C 
ENDROOT
BRANCH   8  13
ATOM     13  C   UNL     1       2.041   9.526  18.057  0.00  0.00    +0.000 C 
ATOM     14  N   UNL     1       2.011  10.564  17.529  0.00  0.00    +0.000 NA
ENDBRANCH   8  13
BRANCH  12  15
ATOM     15  O   UNL     1       3.279   2.173  17.940  0.00  0.00    +0.000 OA
ATOM     16  H   UNL     1       3.678   2.365  17.077  0.00  0.00    +0.000 HD
ENDBRANCH  12  15
BRANCH  11  17
ATOM     17  O   UNL     1       4.224   4.920  17.077  0.00  0.00    +0.000 OA
BRANCH  17  18
ATOM     18  C   UNL     1       5.374   5.354  17.678  0.00  0.00    +0.000 A 
ATOM     19  C   UNL     1       5.921   4.890  18.872  0.00  0.00    +0.000 A 
ATOM     20  C   UNL     1       7.096   5.457  19.338  0.00  0.00    +0.000 A 
ATOM     21  N   UNL     1       7.729   6.472  18.723  0.00  0.00    +0.000 NA
ATOM     22  C   UNL     1       7.162   6.899  17.586  0.00  0.00    +0.000 A 
ATOM     23  C   UNL     1       6.023   6.383  17.008  0.00  0.00    +0.000 A 
BRANCH  22  24
ATOM     24  O   UNL     1       7.789   7.967  17.040  0.00  0.00    +0.000 OA
ATOM     25  H   UNL     1       8.712   7.675  17.147  0.00  0.00    +0.000 HD
ENDBRANCH  22  24
ENDBRANCH  17  18
ENDBRANCH  11  17
TORSDOF 5
ENDMDL
MODEL 4
REMARK VINA RESULT:      -7.5      3.081      6.640
REMARK  Name = 
REMARK  7 active torsions:
REMARK  status: ('A' for Active; 'I' for Inactive)
REMARK    1  A    between atoms: C_1  and  C_2
REMARK    2  A    between atoms: C_2  and  C_3
REMARK    3  A    between atoms: C_8  and  C_9
REMARK    4  A    between atoms: C_13  and  O_14
REMARK    5  A    between atoms: O_14  and  C_15
REMARK    6  A    between atoms: C_19  and  O_20
REMARK    7  A    between atoms: C_22  and  O_23
REMARK                            x       y       z     vdW  Elec       q    Type
REMARK                         _______ _______ _______ _____ _____    ______ ____
ROOT
ATOM      1  C   UNL     1       2.487   2.358  21.590  0.00  0.00    +0.000 C 
ATOM      2  C   UNL     1       2.331   3.416  20.482  0.00  0.00    +0.000 C 
ATOM      3  C   UNL     1       1.141   2.999  19.600  0.00  0.00    +0.000 C 
ATOM      4  O   UNL     1       2.025   4.671  21.137  0.00  0.00    +0.000 OA
ATOM      5  C   UNL     1       2.089   5.796  20.355  0.00  0.00    +0.000 A 
ATOM      6  C   UNL     1       1.470   6.945  20.853  0.00  0.00    +0.000 A 
ATOM      7  C   UNL     1       1.484   8.137  20.113  0.00  0.00    +0.000 A 
ATOM      8  C   UNL     1       2.112   8.186  18.862  0.00  0.00    +0.000 A 
ATOM      9  C   UNL     1       2.752   7.041  18.383  0.00  0.00    +0.000 A 
ATOM     10  C   UNL     1       2.780   5.852  19.142  0.00  0.00    +0.000 A 
ATOM     11  C   UNL     1       3.600   4.664  18.685  0.00  0.00    +0.000 C 
ATOM     12  C   UNL     1       3.666   3.513  19.713  0.00  0.00    +0.000 C 
ENDROOT
BRANCH   8  13
ATOM     13  C   UNL     1       2.117   9.402  18.092  0.00  0.00    +0.000 C 
ATOM     14  N   UNL     1       2.130  10.383  17.464  0.00  0.00    +0.000 NA
ENDBRANCH   8  13
BRANCH  12  15
ATOM     15  O   UNL     1       4.037   2.267  19.103  0.00  0.00    +0.000 OA
ATOM     16  H   UNL     1       3.415   2.054  18.389  0.00  0.00    +0.000 HD
ENDBRANCH  12  15
BRANCH  11  17
ATOM     17  O   UNL     1       4.909   5.027  18.206  0.00  0.00    +0.000 OA
BRANCH  17  18
ATOM     18  C   UNL     1       5.301   4.731  16.929  0.00  0.00    +0.000 A 
ATOM     19  C   UNL     1       4.719   3.805  16.068  0.00  0.00    +0.000 A 
ATOM     20  C   UNL     1       5.259   3.629  14.804  0.00  0.00    +0.000 A 
ATOM     21  N   UNL     1       6.353   4.276  14.365  0.00  0.00    +0.000 NA
ATOM     22  C   UNL     1       6.892   5.148  15.230  0.00  0.00    +0.000 A 
ATOM     23  C   UNL     1       6.416   5.434  16.490  0.00  0.00    +0.000 A 
BRANCH  22  24
ATOM     24  O   UNL     1       8.031   5.721  14.776  0.00  0.00    +0.000 OA
ATOM     25  H   UNL     1       7.862   6.640  15.053  0.00  0.00    +0.000 HD
ENDBRANCH  22  24
ENDBRANCH  17  18
ENDBRANCH  11  17
TORSDOF 5
ENDMDL
MODEL 5
REMARK VINA RESULT:      -7.5      3.531      6.281
REMARK  Name = 
REMARK  7 active torsions:
REMARK  status: ('A' for Active; 'I' for Inactive)
REMARK    1  A    between atoms: C_1  and  C_2
REMARK    2  A    between atoms: C_2  and  C_3
REMARK    3  A    between atoms: C_8  and  C_9
REMARK    4  A    between atoms: C_13  and  O_14
REMARK    5  A    between atoms: O_14  and  C_15
REMARK    6  A    between atoms: C_19  and  O_20
REMARK    7  A    between atoms: C_22  and  O_23
REMARK                            x       y       z     vdW  Elec       q    Type
REMARK                         _______ _______ _______ _____ _____    ______ ____
ROOT
ATOM      1  C   UNL     1       3.450   2.040  20.606  0.00  0.00    +0.000 C 
ATOM      2  C   UNL     1       2.965   3.172  19.681  0.00  0.00    +0.000 C 
ATOM      3  C   UNL     1       1.572   2.783  19.155  0.00  0.00    +0.000 C 
ATOM      4  O   UNL     1       2.855   4.364  20.496  0.00  0.00    +0.000 OA
ATOM      5  C   UNL     1       2.675   5.546  19.823  0.00  0.00    +0.000 A 
ATOM      6  C   UNL     1       2.221   6.634  20.571  0.00  0.00    +0.000 A 
ATOM      7  C   UNL     1       2.006   7.878  19.959  0.00  0.00    +0.000 A 
ATOM      8  C   UNL     1       2.236   8.039  18.586  0.00  0.00    +0.000 A 
ATOM      9  C   UNL     1       2.717   6.955  17.851  0.00  0.00    +0.000 A 
ATOM     10  C   UNL     1       2.978   5.714  18.469  0.00  0.00    +0.000 A 
ATOM     11  C   UNL     1       3.638   4.591  17.698  0.00  0.00    +0.000 C 
ATOM     12  C   UNL     1       4.013   3.369  18.565  0.00  0.00    +0.000 C 
ENDROOT
BRANCH   8  13
ATOM     13  C   UNL     1       2.004   9.309  17.949  0.00  0.00    +0.000 C 
ATOM     14  N   UNL     1       1.823  10.340  17.439  0.00  0.00    +0.000 NA
ENDBRANCH   8  13
BRANCH  12  15
ATOM     15  O   UNL     1       4.199   2.185  17.775  0.00  0.00    +0.000 OA
ATOM     16  H   UNL     1       3.367   1.950  17.335  0.00  0.00    +0.000 HD
ENDBRANCH  12  15
BRANCH  11  17
ATOM     17  O   UNL     1       4.744   5.030  16.888  0.00  0.00    +0.000 OA
BRANCH  17  18
ATOM     18  C   UNL     1       5.802   5.701  17.439  0.00  0.00    +0.000 A 
ATOM     19  C   UNL     1       6.452   6.815  16.915  0.00  0.00    +0.000 A 
ATOM     20  C   UNL     1       7.518   7.361  17.610  0.00  0.00    +0.000 A 
ATOM     21  N   UNL     1       8.000   6.849  18.757  0.00  0.00    +0.000 NA
ATOM     22  C   UNL     1       7.355   5.768  19.221  0.00  0.00    +0.000 A 
ATOM     23  C   UNL     1       6.262   5.169  18.637  0.00  0.00    +0.000 A 
BRANCH  22  24
ATOM     24  O   UNL     1       7.917   5.243  20.334  0.00  0.00    +0.000 OA
ATOM     25  H   UNL     1       7.106   4.971  20.802  0.00  0.00    +0.000 HD
ENDBRANCH  22  24
ENDBRANCH  17  18
ENDBRANCH  11  17
TORSDOF 5
ENDMDL
MODEL 6
REMARK VINA RESULT:      -7.5      0.936      1.336
REMARK  Name = 
REMARK  7 active torsions:
REMARK  status: ('A' for Active; 'I' for Inactive)
REMARK    1  A    between atoms: C_1  and  C_2
REMARK    2  A    between atoms: C_2  and  C_3
REMARK    3  A    between atoms: C_8  and  C_9
REMARK    4  A    between atoms: C_13  and  O_14
REMARK    5  A    between atoms: O_14  and  C_15
REMARK    6  A    between atoms: C_19  and  O_20
REMARK    7  A    between atoms: C_22  and  O_23
REMARK                            x       y       z     vdW  Elec       q    Type
REMARK                         _______ _______ _______ _____ _____    ______ ____
ROOT
ATOM      1  C   UNL     1       7.895   6.679  18.464  0.00  0.00    +0.000 C 
ATOM      2  C   UNL     1       6.871   6.209  17.413  0.00  0.00    +0.000 C 
ATOM      3  C   UNL     1       5.946   7.397  17.096  0.00  0.00    +0.000 C 
ATOM      4  O   UNL     1       7.619   5.854  16.225  0.00  0.00    +0.000 OA
ATOM      5  C   UNL     1       6.929   5.179  15.251  0.00  0.00    +0.000 A 
ATOM      6  C   UNL     1       7.509   5.138  13.981  0.00  0.00    +0.000 A 
ATOM      7  C   UNL     1       6.865   4.473  12.927  0.00  0.00    +0.000 A 
ATOM      8  C   UNL     1       5.628   3.849  13.134  0.00  0.00    +0.000 A 
ATOM      9  C   UNL     1       5.068   3.870  14.413  0.00  0.00    +0.000 A 
ATOM     10  C   UNL     1       5.731   4.499  15.488  0.00  0.00    +0.000 A 
ATOM     11  C   UNL     1       5.192   4.389  16.898  0.00  0.00    +0.000 C 
ATOM     12  C   UNL     1       6.127   4.980  17.976  0.00  0.00    +0.000 C 
ENDROOT
BRANCH   8  13
ATOM     13  C   UNL     1       4.956   3.177  12.053  0.00  0.00    +0.000 C 
ATOM     14  N   UNL     1       4.405   2.640  11.179  0.00  0.00    +0.000 NA
ENDBRANCH   8  13
BRANCH  12  15
ATOM     15  O   UNL     1       5.425   5.277  19.193  0.00  0.00    +0.000 OA
ATOM     16  H   UNL     1       5.691   6.151  19.520  0.00  0.00    +0.000 HD
ENDBRANCH  12  15
BRANCH  11  17
ATOM     17  O   UNL     1       4.757   3.060  17.239  0.00  0.00    +0.000 OA
BRANCH  17  18
ATOM     18  C   UNL     1       3.827   2.850  18.221  0.00  0.00    +0.000 A 
ATOM     19  C   UNL     1       4.071   2.676  19.581  0.00  0.00    +0.000 A 
ATOM     20  C   UNL     1       3.002   2.464  20.435  0.00  0.00    +0.000 A 
ATOM     21  N   UNL     1       1.726   2.372  20.021  0.00  0.00    +0.000 NA
ATOM     22  C   UNL     1       1.535   2.530  18.703  0.00  0.00    +0.000 A 
ATOM     23  C   UNL     1       2.515   2.787  17.771  0.00  0.00    +0.000 A 
BRANCH  22  24
ATOM     24  O   UNL     1       0.248   2.356  18.321  0.00  0.00    +0.000 OA
ATOM     25  H   UNL     1      -0.140   3.158  18.716  0.00  0.00    +0.000 HD
ENDBRANCH  22  24
ENDBRANCH  17  18
ENDBRANCH  11  17
TORSDOF 5
ENDMDL
MODEL 7
REMARK VINA RESULT:      -7.5      3.864      5.324
REMARK  Name = 
REMARK  7 active torsions:
REMARK  status: ('A' for Active; 'I' for Inactive)
REMARK    1  A    between atoms: C_1  and  C_2
REMARK    2  A    between atoms: C_2  and  C_3
REMARK    3  A    between atoms: C_8  and  C_9
REMARK    4  A    between atoms: C_13  and  O_14
REMARK    5  A    between atoms: O_14  and  C_15
REMARK    6  A    between atoms: C_19  and  O_20
REMARK    7  A    between atoms: C_22  and  O_23
REMARK                            x       y       z     vdW  Elec       q    Type
REMARK                         _______ _______ _______ _____ _____    ______ ____
ROOT
ATOM      1  C   UNL     1       2.762   1.926  17.808  0.00  0.00    +0.000 C 
ATOM      2  C   UNL     1       3.484   3.215  18.243  0.00  0.00    +0.000 C 
ATOM      3  C   UNL     1       3.840   3.071  19.733  0.00  0.00    +0.000 C 
ATOM      4  O   UNL     1       4.703   3.298  17.465  0.00  0.00    +0.000 OA
ATOM      5  C   UNL     1       5.376   4.492  17.516  0.00  0.00    +0.000 A 
ATOM      6  C   UNL     1       6.702   4.487  17.076  0.00  0.00    +0.000 A 
ATOM      7  C   UNL     1       7.463   5.665  17.100  0.00  0.00    +0.000 A 
ATOM      8  C   UNL     1       6.904   6.859  17.575  0.00  0.00    +0.000 A 
ATOM      9  C   UNL     1       5.570   6.862  17.987  0.00  0.00    +0.000 A 
ATOM     10  C   UNL     1       4.785   5.691  17.923  0.00  0.00    +0.000 A 
ATOM     11  C   UNL     1       3.304   5.737  18.230  0.00  0.00    +0.000 C 
ATOM     12  C   UNL     1       2.561   4.414  17.942  0.00  0.00    +0.000 C 
ENDROOT
BRANCH   8  13
ATOM     13  C   UNL     1       7.684   8.068  17.616  0.00  0.00    +0.000 C 
ATOM     14  N   UNL     1       8.310   9.049  17.657  0.00  0.00    +0.000 NA
ENDBRANCH   8  13
BRANCH  12  15
ATOM     15  O   UNL     1       1.312   4.333  18.646  0.00  0.00    +0.000 OA
ATOM     16  H   UNL     1       1.435   3.842  19.474  0.00  0.00    +0.000 HD
ENDBRANCH  12  15
BRANCH  11  17
ATOM     17  O   UNL     1       2.635   6.865  17.636  0.00  0.00    +0.000 OA
BRANCH  17  18
ATOM     18  C   UNL     1       2.069   7.841  18.411  0.00  0.00    +0.000 A 
ATOM     19  C   UNL     1       1.564   9.065  17.981  0.00  0.00    +0.000 A 
ATOM     20  C   UNL     1       1.032   9.939  18.914  0.00  0.00    +0.000 A 
ATOM     21  N   UNL     1       1.012   9.694  20.237  0.00  0.00    +0.000 NA
ATOM     22  C   UNL     1       1.521   8.512  20.611  0.00  0.00    +0.000 A 
ATOM     23  C   UNL     1       2.035   7.551  19.769  0.00  0.00    +0.000 A 
BRANCH  22  24
ATOM     24  O   UNL     1       1.548   8.338  21.953  0.00  0.00    +0.000 OA
ATOM     25  H   UNL     1       2.355   8.845  22.158  0.00  0.00    +0.000 HD
ENDBRANCH  22  24
ENDBRANCH  17  18
ENDBRANCH  11  17
TORSDOF 5
ENDMDL
MODEL 8
REMARK VINA RESULT:      -7.5      4.022      5.611
REMARK  Name = 
REMARK  7 active torsions:
REMARK  status: ('A' for Active; 'I' for Inactive)
REMARK    1  A    between atoms: C_1  and  C_2
REMARK    2  A    between atoms: C_2  and  C_3
REMARK    3  A    between atoms: C_8  and  C_9
REMARK    4  A    between atoms: C_13  and  O_14
REMARK    5  A    between atoms: O_14  and  C_15
REMARK    6  A    between atoms: C_19  and  O_20
REMARK    7  A    between atoms: C_22  and  O_23
REMARK                            x       y       z     vdW  Elec       q    Type
REMARK                         _______ _______ _______ _____ _____    ______ ____
ROOT
ATOM      1  C   UNL     1       2.607   1.889  17.821  0.00  0.00    +0.000 C 
ATOM      2  C   UNL     1       3.378   3.155  18.241  0.00  0.00    +0.000 C 
ATOM      3  C   UNL     1       3.842   2.959  19.695  0.00  0.00    +0.000 C 
ATOM      4  O   UNL     1       4.536   3.249  17.377  0.00  0.00    +0.000 OA
ATOM      5  C   UNL     1       5.228   4.432  17.414  0.00  0.00    +0.000 A 
ATOM      6  C   UNL     1       6.517   4.427  16.877  0.00  0.00    +0.000 A 
ATOM      7  C   UNL     1       7.294   5.595  16.881  0.00  0.00    +0.000 A 
ATOM      8  C   UNL     1       6.788   6.779  17.433  0.00  0.00    +0.000 A 
ATOM      9  C   UNL     1       5.489   6.784  17.943  0.00  0.00    +0.000 A 
ATOM     10  C   UNL     1       4.685   5.625  17.902  0.00  0.00    +0.000 A 
ATOM     11  C   UNL     1       3.232   5.678  18.320  0.00  0.00    +0.000 C 
ATOM     12  C   UNL     1       2.451   4.373  18.047  0.00  0.00    +0.000 C 
ENDROOT
BRANCH   8  13
ATOM     13  C   UNL     1       7.586   7.977  17.453  0.00  0.00    +0.000 C 
ATOM     14  N   UNL     1       8.224   8.951  17.465  0.00  0.00    +0.000 NA
ENDBRANCH   8  13
BRANCH  12  15
ATOM     15  O   UNL     1       1.257   4.284  18.840  0.00  0.00    +0.000 OA
ATOM     16  H   UNL     1       1.453   4.534  19.757  0.00  0.00    +0.000 HD
ENDBRANCH  12  15
BRANCH  11  17
ATOM     17  O   UNL     1       2.536   6.832  17.813  0.00  0.00    +0.000 OA
BRANCH  17  18
ATOM     18  C   UNL     1       2.039   7.787  18.659  0.00  0.00    +0.000 A 
ATOM     19  C   UNL     1       1.865   7.676  20.036  0.00  0.00    +0.000 A 
ATOM     20  C   UNL     1       1.336   8.748  20.735  0.00  0.00    +0.000 A 
ATOM     21  N   UNL     1       0.934   9.892  20.153  0.00  0.00    +0.000 NA
ATOM     22  C   UNL     1       1.106   9.953  18.825  0.00  0.00    +0.000 A 
ATOM     23  C   UNL     1       1.659   8.969  18.036  0.00  0.00    +0.000 A 
BRANCH  22  24
ATOM     24  O   UNL     1       0.622  11.089  18.271  0.00  0.00    +0.000 OA
ATOM     25  H   UNL     1       1.443  11.614  18.255  0.00  0.00    +0.000 HD
ENDBRANCH  22  24
ENDBRANCH  17  18
ENDBRANCH  11  17
TORSDOF 5
ENDMDL
MODEL 9
REMARK VINA RESULT:      -7.4      3.549      6.615
REMARK  Name = 
REMARK  7 active torsions:
REMARK  status: ('A' for Active; 'I' for Inactive)
REMARK    1  A    between atoms: C_1  and  C_2
REMARK    2  A    between atoms: C_2  and  C_3
REMARK    3  A    between atoms: C_8  and  C_9
REMARK    4  A    between atoms: C_13  and  O_14
REMARK    5  A    between atoms: O_14  and  C_15
REMARK    6  A    between atoms: C_19  and  O_20
REMARK    7  A    between atoms: C_22  and  O_23
REMARK                            x       y       z     vdW  Elec       q    Type
REMARK                         _______ _______ _______ _____ _____    ______ ____
ROOT
ATOM      1  C   UNL     1       3.772   1.943  19.597  0.00  0.00    +0.000 C 
ATOM      2  C   UNL     1       3.250   3.207  18.887  0.00  0.00    +0.000 C 
ATOM      3  C   UNL     1       1.939   2.834  18.172  0.00  0.00    +0.000 C 
ATOM      4  O   UNL     1       2.973   4.185  19.919  0.00  0.00    +0.000 OA
ATOM      5  C   UNL     1       2.732   5.466  19.492  0.00  0.00    +0.000 A 
ATOM      6  C   UNL     1       2.127   6.332  20.406  0.00  0.00    +0.000 A 
ATOM      7  C   UNL     1       1.841   7.657  20.047  0.00  0.00    +0.000 A 
ATOM      8  C   UNL     1       2.151   8.126  18.764  0.00  0.00    +0.000 A 
ATOM      9  C   UNL     1       2.780   7.263  17.865  0.00  0.00    +0.000 A 
ATOM     10  C   UNL     1       3.112   5.942  18.234  0.00  0.00    +0.000 A 
ATOM     11  C   UNL     1       3.924   5.063  17.308  0.00  0.00    +0.000 C 
ATOM     12  C   UNL     1       4.350   3.716  17.933  0.00  0.00    +0.000 C 
ENDROOT
BRANCH   8  13
ATOM     13  C   UNL     1       1.847   9.481  18.385  0.00  0.00    +0.000 C 
ATOM     14  N   UNL     1       1.592  10.574  18.076  0.00  0.00    +0.000 NA
ENDBRANCH   8  13
BRANCH  12  15
ATOM     15  O   UNL     1       4.700   2.745  16.934  0.00  0.00    +0.000 OA
ATOM     16  H   UNL     1       4.153   1.952  17.043  0.00  0.00    +0.000 HD
ENDBRANCH  12  15
BRANCH  11  17
ATOM     17  O   UNL     1       5.039   5.748  16.706  0.00  0.00    +0.000 OA
BRANCH  17  18
ATOM     18  C   UNL     1       6.138   6.094  17.444  0.00  0.00    +0.000 A 
ATOM     19  C   UNL     1       6.748   5.338  18.442  0.00  0.00    +0.000 A 
ATOM     20  C   UNL     1       7.855   5.854  19.095  0.00  0.00    +0.000 A 
ATOM     21  N   UNL     1       8.360   7.077  18.852  0.00  0.00    +0.000 NA
ATOM     22  C   UNL     1       7.736   7.778  17.895  0.00  0.00    +0.000 A 
ATOM     23  C   UNL     1       6.657   7.349  17.154  0.00  0.00    +0.000 A 
BRANCH  22  24
ATOM     24  O   UNL     1       8.229   9.028  17.734  0.00  0.00    +0.000 OA
ATOM     25  H   UNL     1       7.876   9.220  16.847  0.00  0.00    +0.000 HD
ENDBRANCH  22  24
ENDBRANCH  17  18
ENDBRANCH  11  17
TORSDOF 5
ENDMDL
