MODEL 1
REMARK VINA RESULT:      -6.6      0.000      0.000
REMARK  Name = 
REMARK  9 active torsions:
REMARK  status: ('A' for Active; 'I' for Inactive)
REMARK    1  A    between atoms: C_1  and  C_2
REMARK    2  A    between atoms: C_2  and  N_3
REMARK    3  A    between atoms: N_3  and  C_4
REMARK    4  A    between atoms: N_3  and  C_11
REMARK    5  A    between atoms: C_4  and  C_5
REMARK    6  A    between atoms: C_11  and  C_12
REMARK    7  A    between atoms: C_13  and  O_14
REMARK    8  A    between atoms: C_20  and  C_21
REMARK    9  A    between atoms: C_28  and  C_29
REMARK                            x       y       z     vdW  Elec       q    Type
REMARK                         _______ _______ _______ _____ _____    ______ ____
ROOT
ATOM      1  C   UNL     1      -3.115  11.997  18.582  0.00  0.00    +0.000 A 
ATOM      2  C   UNL     1      -3.846  11.099  17.766  0.00  0.00    +0.000 A 
ATOM      3  C   UNL     1      -3.220  10.097  17.016  0.00  0.00    +0.000 A 
ATOM      4  C   UNL     1      -1.870   9.842  17.223  0.00  0.00    +0.000 A 
ATOM      5  C   UNL     1      -1.164  10.717  18.034  0.00  0.00    +0.000 A 
ATOM      6  C   UNL     1       0.157  10.416  18.646  0.00  0.00    +0.000 A 
ATOM      7  O   UNL     1       0.822   9.449  18.307  0.00  0.00    +0.000 OA
ATOM      8  C   UNL     1       0.684  11.477  19.603  0.00  0.00    +0.000 A 
ATOM      9  C   UNL     1       0.586  12.517  18.754  0.00  0.00    +0.000 A 
ATOM     10  O   UNL     1      -0.788  12.990  18.566  0.00  0.00    +0.000 OA
ATOM     11  C   UNL     1      -1.717  11.935  18.435  0.00  0.00    +0.000 A 
ENDROOT
BRANCH   8  12
ATOM     12  C   UNL     1       0.033  11.807  20.942  0.00  0.00    +0.000 A 
ATOM     13  C   UNL     1      -0.075  13.181  21.354  0.00  0.00    +0.000 A 
ATOM     14  C   UNL     1      -0.833  13.613  22.435  0.00  0.00    +0.000 A 
ATOM     15  C   UNL     1      -1.432  12.666  23.233  0.00  0.00    +0.000 A 
ATOM     16  C   UNL     1      -1.260  11.308  22.932  0.00  0.00    +0.000 A 
ATOM     17  C   UNL     1      -0.535  10.876  21.809  0.00  0.00    +0.000 A 
ATOM     18 CL   UNL     1      -0.395   9.176  21.563  0.00  0.00    +0.000 Cl
ENDBRANCH   8  12
BRANCH   9  19
ATOM     19  C   UNL     1       1.776  13.456  18.750  0.00  0.00    +0.000 C 
ATOM     20  F   UNL     1       2.717  13.125  19.665  0.00  0.00    +0.000 F 
ATOM     21  F   UNL     1       2.407  13.462  17.542  0.00  0.00    +0.000 F 
ATOM     22  F   UNL     1       1.408  14.737  18.988  0.00  0.00    +0.000 F 
ENDBRANCH   9  19
BRANCH   2  23
ATOM     23  O   UNL     1      -5.214  11.043  17.756  0.00  0.00    +0.000 OA
ATOM     24  H   UNL     1      -5.581  11.813  18.217  0.00  0.00    +0.000 HD
ENDBRANCH   2  23
BRANCH   1  25
ATOM     25  C   UNL     1      -3.770  12.319  19.957  0.00  0.00    +0.000 C 
BRANCH  25  26
ATOM     26  N   UNL     1      -5.156  12.789  20.041  0.00  0.00    +0.000 NA
BRANCH  26  28
ATOM     27  C   UNL     1      -7.438  11.930  20.546  0.00  0.00    +0.000 C 
ATOM     28  C   UNL     1      -5.998  12.066  20.991  0.00  0.00    +0.000 C 
ENDBRANCH  26  28
BRANCH  26  29
ATOM     29  C   UNL     1      -5.216  14.267  20.222  0.00  0.00    +0.000 C 
BRANCH  29  30
ATOM     30  C   UNL     1      -4.335  14.964  21.266  0.00  0.00    +0.000 A 
ATOM     31  C   UNL     1      -3.377  15.919  20.884  0.00  0.00    +0.000 A 
ATOM     32  C   UNL     1      -2.691  16.679  21.844  0.00  0.00    +0.000 A 
ATOM     33  C   UNL     1      -2.944  16.492  23.201  0.00  0.00    +0.000 A 
ATOM     34  C   UNL     1      -3.871  15.534  23.599  0.00  0.00    +0.000 A 
ATOM     35  C   UNL     1      -4.563  14.785  22.641  0.00  0.00    +0.000 A 
ENDBRANCH  29  30
ENDBRANCH  26  29
ENDBRANCH  25  26
ENDBRANCH   1  25
TORSDOF 8
ENDMDL
MODEL 2
REMARK VINA RESULT:      -6.6      1.537      2.649
REMARK  Name = 
REMARK  9 active torsions:
REMARK  status: ('A' for Active; 'I' for Inactive)
REMARK    1  A    between atoms: C_1  and  C_2
REMARK    2  A    between atoms: C_2  and  N_3
REMARK    3  A    between atoms: N_3  and  C_4
REMARK    4  A    between atoms: N_3  and  C_11
REMARK    5  A    between atoms: C_4  and  C_5
REMARK    6  A    between atoms: C_11  and  C_12
REMARK    7  A    between atoms: C_13  and  O_14
REMARK    8  A    between atoms: C_20  and  C_21
REMARK    9  A    between atoms: C_28  and  C_29
REMARK                            x       y       z     vdW  Elec       q    Type
REMARK                         _______ _______ _______ _____ _____    ______ ____
ROOT
ATOM      1  C   UNL     1      -3.223  11.964  18.490  0.00  0.00    +0.000 A 
ATOM      2  C   UNL     1      -3.906  11.028  17.675  0.00  0.00    +0.000 A 
ATOM      3  C   UNL     1      -3.233  10.020  16.975  0.00  0.00    +0.000 A 
ATOM      4  C   UNL     1      -1.886   9.800  17.237  0.00  0.00    +0.000 A 
ATOM      5  C   UNL     1      -1.227  10.712  18.046  0.00  0.00    +0.000 A 
ATOM      6  C   UNL     1       0.077  10.457  18.711  0.00  0.00    +0.000 A 
ATOM      7  O   UNL     1       0.774   9.495  18.423  0.00  0.00    +0.000 OA
ATOM      8  C   UNL     1       0.548  11.555  19.655  0.00  0.00    +0.000 A 
ATOM      9  C   UNL     1       0.459  12.569  18.774  0.00  0.00    +0.000 A 
ATOM     10  O   UNL     1      -0.917  13.006  18.525  0.00  0.00    +0.000 OA
ATOM     11  C   UNL     1      -1.819  11.928  18.392  0.00  0.00    +0.000 A 
ENDROOT
BRANCH   8  12
ATOM     12  C   UNL     1      -0.156  11.909  20.961  0.00  0.00    +0.000 A 
ATOM     13  C   UNL     1      -0.387  13.291  21.287  0.00  0.00    +0.000 A 
ATOM     14  C   UNL     1      -1.200  13.720  22.326  0.00  0.00    +0.000 A 
ATOM     15  C   UNL     1      -1.735  12.775  23.172  0.00  0.00    +0.000 A 
ATOM     16  C   UNL     1      -1.444  11.422  22.957  0.00  0.00    +0.000 A 
ATOM     17  C   UNL     1      -0.662  10.986  21.874  0.00  0.00    +0.000 A 
ATOM     18 CL   UNL     1      -0.376   9.292  21.735  0.00  0.00    +0.000 Cl
ENDBRANCH   8  12
BRANCH   9  19
ATOM     19  C   UNL     1       1.628  13.532  18.784  0.00  0.00    +0.000 C 
ATOM     20  F   UNL     1       2.327  13.533  17.624  0.00  0.00    +0.000 F 
ATOM     21  F   UNL     1       1.220  14.817  18.981  0.00  0.00    +0.000 F 
ATOM     22  F   UNL     1       2.499  13.259  19.784  0.00  0.00    +0.000 F 
ENDBRANCH   9  19
BRANCH   2  23
ATOM     23  O   UNL     1      -5.271  10.942  17.619  0.00  0.00    +0.000 OA
ATOM     24  H   UNL     1      -5.533  10.153  17.119  0.00  0.00    +0.000 HD
ENDBRANCH   2  23
BRANCH   1  25
ATOM     25  C   UNL     1      -3.932  12.310  19.831  0.00  0.00    +0.000 C 
BRANCH  25  26
ATOM     26  N   UNL     1      -5.367  12.605  19.872  0.00  0.00    +0.000 NA
BRANCH  26  28
ATOM     27  C   UNL     1      -7.492  11.452  20.471  0.00  0.00    +0.000 C 
ATOM     28  C   UNL     1      -6.114  11.898  20.910  0.00  0.00    +0.000 C 
ENDBRANCH  26  28
BRANCH  26  29
ATOM     29  C   UNL     1      -5.618  14.074  19.875  0.00  0.00    +0.000 C 
BRANCH  29  30
ATOM     30  C   UNL     1      -6.332  14.748  18.697  0.00  0.00    +0.000 A 
ATOM     31  C   UNL     1      -6.434  16.148  18.618  0.00  0.00    +0.000 A 
ATOM     32  C   UNL     1      -6.934  16.772  17.465  0.00  0.00    +0.000 A 
ATOM     33  C   UNL     1      -7.347  16.009  16.374  0.00  0.00    +0.000 A 
ATOM     34  C   UNL     1      -7.276  14.621  16.443  0.00  0.00    +0.000 A 
ATOM     35  C   UNL     1      -6.766  14.000  17.590  0.00  0.00    +0.000 A 
ENDBRANCH  29  30
ENDBRANCH  26  29
ENDBRANCH  25  26
ENDBRANCH   1  25
TORSDOF 8
ENDMDL
MODEL 3
REMARK VINA RESULT:      -6.4      0.149      1.055
REMARK  Name = 
REMARK  9 active torsions:
REMARK  status: ('A' for Active; 'I' for Inactive)
REMARK    1  A    between atoms: C_1  and  C_2
REMARK    2  A    between atoms: C_2  and  N_3
REMARK    3  A    between atoms: N_3  and  C_4
REMARK    4  A    between atoms: N_3  and  C_11
REMARK    5  A    between atoms: C_4  and  C_5
REMARK    6  A    between atoms: C_11  and  C_12
REMARK    7  A    between atoms: C_13  and  O_14
REMARK    8  A    between atoms: C_20  and  C_21
REMARK    9  A    between atoms: C_28  and  C_29
REMARK                            x       y       z     vdW  Elec       q    Type
REMARK                         _______ _______ _______ _____ _____    ______ ____
ROOT
ATOM      1  C   UNL     1      -3.147  12.010  18.587  0.00  0.00    +0.000 A 
ATOM      2  C   UNL     1      -3.885  11.125  17.763  0.00  0.00    +0.000 A 
ATOM      3  C   UNL     1      -3.266  10.129  16.999  0.00  0.00    +0.000 A 
ATOM      4  C   UNL     1      -1.917   9.864  17.200  0.00  0.00    +0.000 A 
ATOM      5  C   UNL     1      -1.204  10.726  18.019  0.00  0.00    +0.000 A 
ATOM      6  C   UNL     1       0.117  10.410  18.623  0.00  0.00    +0.000 A 
ATOM      7  O   UNL     1       0.776   9.443  18.271  0.00  0.00    +0.000 OA
ATOM      8  C   UNL     1       0.652  11.457  19.590  0.00  0.00    +0.000 A 
ATOM      9  C   UNL     1       0.558  12.507  18.754  0.00  0.00    +0.000 A 
ATOM     10  O   UNL     1      -0.814  12.990  18.575  0.00  0.00    +0.000 OA
ATOM     11  C   UNL     1      -1.749  11.942  18.435  0.00  0.00    +0.000 A 
ENDROOT
BRANCH   8  12
ATOM     12  C   UNL     1       0.007  11.775  20.936  0.00  0.00    +0.000 A 
ATOM     13  C   UNL     1      -0.094  13.145  21.363  0.00  0.00    +0.000 A 
ATOM     14  C   UNL     1      -0.846  13.568  22.450  0.00  0.00    +0.000 A 
ATOM     15  C   UNL     1      -1.447  12.615  23.240  0.00  0.00    +0.000 A 
ATOM     16  C   UNL     1      -1.283  11.261  22.924  0.00  0.00    +0.000 A 
ATOM     17  C   UNL     1      -0.562  10.838  21.794  0.00  0.00    +0.000 A 
ATOM     18 CL   UNL     1      -0.431   9.139  21.529  0.00  0.00    +0.000 Cl
ENDBRANCH   8  12
BRANCH   9  19
ATOM     19  C   UNL     1       1.753  13.439  18.757  0.00  0.00    +0.000 C 
ATOM     20  F   UNL     1       1.428  14.719  19.059  0.00  0.00    +0.000 F 
ATOM     21  F   UNL     1       2.685  13.059  19.675  0.00  0.00    +0.000 F 
ATOM     22  F   UNL     1       2.388  13.450  17.561  0.00  0.00    +0.000 F 
ENDBRANCH   9  19
BRANCH   2  23
ATOM     23  O   UNL     1      -5.253  11.077  17.755  0.00  0.00    +0.000 OA
ATOM     24  H   UNL     1      -5.617  11.971  17.853  0.00  0.00    +0.000 HD
ENDBRANCH   2  23
BRANCH   1  25
ATOM     25  C   UNL     1      -3.796  12.319  19.967  0.00  0.00    +0.000 C 
BRANCH  25  26
ATOM     26  N   UNL     1      -5.194  12.751  20.064  0.00  0.00    +0.000 NA
BRANCH  26  28
ATOM     27  C   UNL     1      -7.192  11.363  20.597  0.00  0.00    +0.000 C 
ATOM     28  C   UNL     1      -5.972  12.095  21.113  0.00  0.00    +0.000 C 
ENDBRANCH  26  28
BRANCH  26  29
ATOM     29  C   UNL     1      -5.300  14.237  20.105  0.00  0.00    +0.000 C 
BRANCH  29  30
ATOM     30  C   UNL     1      -4.575  15.043  21.189  0.00  0.00    +0.000 A 
ATOM     31  C   UNL     1      -4.793  14.783  22.553  0.00  0.00    +0.000 A 
ATOM     32  C   UNL     1      -4.010  15.400  23.541  0.00  0.00    +0.000 A 
ATOM     33  C   UNL     1      -3.001  16.292  23.183  0.00  0.00    +0.000 A 
ATOM     34  C   UNL     1      -2.785  16.580  21.839  0.00  0.00    +0.000 A 
ATOM     35  C   UNL     1      -3.560  15.955  20.854  0.00  0.00    +0.000 A 
ENDBRANCH  29  30
ENDBRANCH  26  29
ENDBRANCH  25  26
ENDBRANCH   1  25
TORSDOF 8
ENDMDL
MODEL 4
REMARK VINA RESULT:      -6.4      0.726      1.231
REMARK  Name = 
REMARK  9 active torsions:
REMARK  status: ('A' for Active; 'I' for Inactive)
REMARK    1  A    between atoms: C_1  and  C_2
REMARK    2  A    between atoms: C_2  and  N_3
REMARK    3  A    between atoms: N_3  and  C_4
REMARK    4  A    between atoms: N_3  and  C_11
REMARK    5  A    between atoms: C_4  and  C_5
REMARK    6  A    between atoms: C_11  and  C_12
REMARK    7  A    between atoms: C_13  and  O_14
REMARK    8  A    between atoms: C_20  and  C_21
REMARK    9  A    between atoms: C_28  and  C_29
REMARK                            x       y       z     vdW  Elec       q    Type
REMARK                         _______ _______ _______ _____ _____    ______ ____
ROOT
ATOM      1  C   UNL     1      -3.139  12.004  18.582  0.00  0.00    +0.000 A 
ATOM      2  C   UNL     1      -3.869  11.100  17.771  0.00  0.00    +0.000 A 
ATOM      3  C   UNL     1      -3.241  10.101  17.019  0.00  0.00    +0.000 A 
ATOM      4  C   UNL     1      -1.888   9.854  17.220  0.00  0.00    +0.000 A 
ATOM      5  C   UNL     1      -1.183  10.734  18.025  0.00  0.00    +0.000 A 
ATOM      6  C   UNL     1       0.143  10.442  18.630  0.00  0.00    +0.000 A 
ATOM      7  O   UNL     1       0.812   9.478  18.289  0.00  0.00    +0.000 OA
ATOM      8  C   UNL     1       0.668  11.508  19.582  0.00  0.00    +0.000 A 
ATOM      9  C   UNL     1       0.560  12.546  18.732  0.00  0.00    +0.000 A 
ATOM     10  O   UNL     1      -0.818  13.010  18.551  0.00  0.00    +0.000 OA
ATOM     11  C   UNL     1      -1.741  11.950  18.426  0.00  0.00    +0.000 A 
ENDROOT
BRANCH   8  12
ATOM     12  C   UNL     1       0.023  11.837  20.925  0.00  0.00    +0.000 A 
ATOM     13  C   UNL     1      -0.098  13.212  21.331  0.00  0.00    +0.000 A 
ATOM     14  C   UNL     1      -0.853  13.639  22.415  0.00  0.00    +0.000 A 
ATOM     15  C   UNL     1      -1.436  12.689  23.222  0.00  0.00    +0.000 A 
ATOM     16  C   UNL     1      -1.251  11.333  22.925  0.00  0.00    +0.000 A 
ATOM     17  C   UNL     1      -0.528  10.904  21.799  0.00  0.00    +0.000 A 
ATOM     18 CL   UNL     1      -0.371   9.204  21.560  0.00  0.00    +0.000 Cl
ENDBRANCH   8  12
BRANCH   9  19
ATOM     19  C   UNL     1       1.744  13.492  18.720  0.00  0.00    +0.000 C 
ATOM     20  F   UNL     1       2.386  13.525  17.528  0.00  0.00    +0.000 F 
ATOM     21  F   UNL     1       1.366  14.774  18.983  0.00  0.00    +0.000 F 
ATOM     22  F   UNL     1       2.658  13.169  19.666  0.00  0.00    +0.000 F 
ENDBRANCH   9  19
BRANCH   2  23
ATOM     23  O   UNL     1      -5.237  11.035  17.768  0.00  0.00    +0.000 OA
ATOM     24  H   UNL     1      -5.528  10.206  17.358  0.00  0.00    +0.000 HD
ENDBRANCH   2  23
BRANCH   1  25
ATOM     25  C   UNL     1      -3.789  12.324  19.959  0.00  0.00    +0.000 C 
BRANCH  25  26
ATOM     26  N   UNL     1      -5.163  12.827  20.047  0.00  0.00    +0.000 NA
BRANCH  26  28
ATOM     27  C   UNL     1      -7.471  12.008  20.495  0.00  0.00    +0.000 C 
ATOM     28  C   UNL     1      -6.033  12.090  20.960  0.00  0.00    +0.000 C 
ENDBRANCH  26  28
BRANCH  26  29
ATOM     29  C   UNL     1      -5.186  14.298  20.283  0.00  0.00    +0.000 C 
BRANCH  29  30
ATOM     30  C   UNL     1      -5.397  14.861  21.694  0.00  0.00    +0.000 A 
ATOM     31  C   UNL     1      -4.355  14.860  22.637  0.00  0.00    +0.000 A 
ATOM     32  C   UNL     1      -4.491  15.524  23.866  0.00  0.00    +0.000 A 
ATOM     33  C   UNL     1      -5.673  16.193  24.177  0.00  0.00    +0.000 A 
ATOM     34  C   UNL     1      -6.725  16.185  23.266  0.00  0.00    +0.000 A 
ATOM     35  C   UNL     1      -6.583  15.532  22.036  0.00  0.00    +0.000 A 
ENDBRANCH  29  30
ENDBRANCH  26  29
ENDBRANCH  25  26
ENDBRANCH   1  25
TORSDOF 8
ENDMDL
MODEL 5
REMARK VINA RESULT:      -6.4      1.640      2.699
REMARK  Name = 
REMARK  9 active torsions:
REMARK  status: ('A' for Active; 'I' for Inactive)
REMARK    1  A    between atoms: C_1  and  C_2
REMARK    2  A    between atoms: C_2  and  N_3
REMARK    3  A    between atoms: N_3  and  C_4
REMARK    4  A    between atoms: N_3  and  C_11
REMARK    5  A    between atoms: C_4  and  C_5
REMARK    6  A    between atoms: C_11  and  C_12
REMARK    7  A    between atoms: C_13  and  O_14
REMARK    8  A    between atoms: C_20  and  C_21
REMARK    9  A    between atoms: C_28  and  C_29
REMARK                            x       y       z     vdW  Elec       q    Type
REMARK                         _______ _______ _______ _____ _____    ______ ____
ROOT
ATOM      1  C   UNL     1      -3.428  11.881  18.505  0.00  0.00    +0.000 A 
ATOM      2  C   UNL     1      -4.064  10.952  17.645  0.00  0.00    +0.000 A 
ATOM      3  C   UNL     1      -3.346   9.984  16.934  0.00  0.00    +0.000 A 
ATOM      4  C   UNL     1      -2.001   9.793  17.222  0.00  0.00    +0.000 A 
ATOM      5  C   UNL     1      -1.388  10.698  18.075  0.00  0.00    +0.000 A 
ATOM      6  C   UNL     1      -0.093  10.458  18.766  0.00  0.00    +0.000 A 
ATOM      7  O   UNL     1       0.637   9.525  18.467  0.00  0.00    +0.000 OA
ATOM      8  C   UNL     1       0.323  11.539  19.753  0.00  0.00    +0.000 A 
ATOM      9  C   UNL     1       0.227  12.576  18.901  0.00  0.00    +0.000 A 
ATOM     10  O   UNL     1      -1.154  12.984  18.631  0.00  0.00    +0.000 OA
ATOM     11  C   UNL     1      -2.022  11.886  18.443  0.00  0.00    +0.000 A 
ENDROOT
BRANCH   8  12
ATOM     12  C   UNL     1      -0.423  11.833  21.051  0.00  0.00    +0.000 A 
ATOM     13  C   UNL     1      -0.849  13.179  21.331  0.00  0.00    +0.000 A 
ATOM     14  C   UNL     1      -1.714  13.523  22.361  0.00  0.00    +0.000 A 
ATOM     15  C   UNL     1      -2.107  12.541  23.241  0.00  0.00    +0.000 A 
ATOM     16  C   UNL     1      -1.626  11.236  23.070  0.00  0.00    +0.000 A 
ATOM     17  C   UNL     1      -0.791  10.880  21.998  0.00  0.00    +0.000 A 
ATOM     18 CL   UNL     1      -0.266   9.240  21.914  0.00  0.00    +0.000 Cl
ENDBRANCH   8  12
BRANCH   9  19
ATOM     19  C   UNL     1       1.369  13.571  18.970  0.00  0.00    +0.000 C 
ATOM     20  F   UNL     1       2.233  13.320  19.982  0.00  0.00    +0.000 F 
ATOM     21  F   UNL     1       2.111  13.565  17.828  0.00  0.00    +0.000 F 
ATOM     22  F   UNL     1       0.923  14.841  19.120  0.00  0.00    +0.000 F 
ENDBRANCH   9  19
BRANCH   2  23
ATOM     23  O   UNL     1      -5.425  10.831  17.552  0.00  0.00    +0.000 OA
ATOM     24  H   UNL     1      -5.731  11.179  16.700  0.00  0.00    +0.000 HD
ENDBRANCH   2  23
BRANCH   1  25
ATOM     25  C   UNL     1      -4.180  12.166  19.838  0.00  0.00    +0.000 C 
BRANCH  25  26
ATOM     26  N   UNL     1      -5.602  12.519  19.841  0.00  0.00    +0.000 NA
BRANCH  26  28
ATOM     27  C   UNL     1      -7.342  10.820  20.376  0.00  0.00    +0.000 C 
ATOM     28  C   UNL     1      -6.395  11.881  20.890  0.00  0.00    +0.000 C 
ENDBRANCH  26  28
BRANCH  26  29
ATOM     29  C   UNL     1      -5.794  13.996  19.786  0.00  0.00    +0.000 C 
BRANCH  29  30
ATOM     30  C   UNL     1      -6.340  14.668  18.521  0.00  0.00    +0.000 A 
ATOM     31  C   UNL     1      -6.791  13.903  17.432  0.00  0.00    +0.000 A 
ATOM     32  C   UNL     1      -7.445  14.506  16.346  0.00  0.00    +0.000 A 
ATOM     33  C   UNL     1      -7.651  15.884  16.326  0.00  0.00    +0.000 A 
ATOM     34  C   UNL     1      -7.190  16.661  17.384  0.00  0.00    +0.000 A 
ATOM     35  C   UNL     1      -6.548  16.057  18.472  0.00  0.00    +0.000 A 
ENDBRANCH  29  30
ENDBRANCH  26  29
ENDBRANCH  25  26
ENDBRANCH   1  25
TORSDOF 8
ENDMDL
MODEL 6
REMARK VINA RESULT:      -6.3      0.738      1.292
REMARK  Name = 
REMARK  9 active torsions:
REMARK  status: ('A' for Active; 'I' for Inactive)
REMARK    1  A    between atoms: C_1  and  C_2
REMARK    2  A    between atoms: C_2  and  N_3
REMARK    3  A    between atoms: N_3  and  C_4
REMARK    4  A    between atoms: N_3  and  C_11
REMARK    5  A    between atoms: C_4  and  C_5
REMARK    6  A    between atoms: C_11  and  C_12
REMARK    7  A    between atoms: C_13  and  O_14
REMARK    8  A    between atoms: C_20  and  C_21
REMARK    9  A    between atoms: C_28  and  C_29
REMARK                            x       y       z     vdW  Elec       q    Type
REMARK                         _______ _______ _______ _____ _____    ______ ____
ROOT
ATOM      1  C   UNL     1      -3.146  11.981  18.599  0.00  0.00    +0.000 A 
ATOM      2  C   UNL     1      -3.868  11.063  17.797  0.00  0.00    +0.000 A 
ATOM      3  C   UNL     1      -3.231  10.059  17.058  0.00  0.00    +0.000 A 
ATOM      4  C   UNL     1      -1.878   9.823  17.266  0.00  0.00    +0.000 A 
ATOM      5  C   UNL     1      -1.180  10.717  18.063  0.00  0.00    +0.000 A 
ATOM      6  C   UNL     1       0.145  10.440  18.676  0.00  0.00    +0.000 A 
ATOM      7  O   UNL     1       0.821   9.476  18.349  0.00  0.00    +0.000 OA
ATOM      8  C   UNL     1       0.661  11.520  19.617  0.00  0.00    +0.000 A 
ATOM      9  C   UNL     1       0.550  12.547  18.755  0.00  0.00    +0.000 A 
ATOM     10  O   UNL     1      -0.830  13.001  18.564  0.00  0.00    +0.000 OA
ATOM     11  C   UNL     1      -1.747  11.933  18.449  0.00  0.00    +0.000 A 
ENDROOT
BRANCH   8  12
ATOM     12  C   UNL     1       0.009  11.860  20.954  0.00  0.00    +0.000 A 
ATOM     13  C   UNL     1      -0.118  13.239  21.346  0.00  0.00    +0.000 A 
ATOM     14  C   UNL     1      -0.879  13.675  22.422  0.00  0.00    +0.000 A 
ATOM     15  C   UNL     1      -1.462  12.731  23.236  0.00  0.00    +0.000 A 
ATOM     16  C   UNL     1      -1.271  11.372  22.955  0.00  0.00    +0.000 A 
ATOM     17  C   UNL     1      -0.542  10.934  21.836  0.00  0.00    +0.000 A 
ATOM     18 CL   UNL     1      -0.377   9.232  21.615  0.00  0.00    +0.000 Cl
ENDBRANCH   8  12
BRANCH   9  19
ATOM     19  C   UNL     1       1.728  13.500  18.736  0.00  0.00    +0.000 C 
ATOM     20  F   UNL     1       1.379  14.782  18.997  0.00  0.00    +0.000 F 
ATOM     21  F   UNL     1       2.662  13.163  19.668  0.00  0.00    +0.000 F 
ATOM     22  F   UNL     1       2.368  13.487  17.542  0.00  0.00    +0.000 F 
ENDBRANCH   9  19
BRANCH   2  23
ATOM     23  O   UNL     1      -5.235  10.990  17.790  0.00  0.00    +0.000 OA
ATOM     24  H   UNL     1      -5.571  10.981  18.700  0.00  0.00    +0.000 HD
ENDBRANCH   2  23
BRANCH   1  25
ATOM     25  C   UNL     1      -3.802  12.313  19.971  0.00  0.00    +0.000 C 
BRANCH  25  26
ATOM     26  N   UNL     1      -5.185  12.790  20.049  0.00  0.00    +0.000 NA
BRANCH  26  28
ATOM     27  C   UNL     1      -7.419  11.833  20.595  0.00  0.00    +0.000 C 
ATOM     28  C   UNL     1      -6.010  12.131  21.060  0.00  0.00    +0.000 C 
ENDBRANCH  26  28
BRANCH  26  29
ATOM     29  C   UNL     1      -5.241  14.277  20.135  0.00  0.00    +0.000 C 
BRANCH  29  30
ATOM     30  C   UNL     1      -5.406  14.977  21.489  0.00  0.00    +0.000 A 
ATOM     31  C   UNL     1      -6.645  15.512  21.882  0.00  0.00    +0.000 A 
ATOM     32  C   UNL     1      -6.842  16.001  23.183  0.00  0.00    +0.000 A 
ATOM     33  C   UNL     1      -5.802  15.970  24.111  0.00  0.00    +0.000 A 
ATOM     34  C   UNL     1      -4.562  15.466  23.733  0.00  0.00    +0.000 A 
ATOM     35  C   UNL     1      -4.370  14.968  22.439  0.00  0.00    +0.000 A 
ENDBRANCH  29  30
ENDBRANCH  26  29
ENDBRANCH  25  26
ENDBRANCH   1  25
TORSDOF 8
ENDMDL
MODEL 7
REMARK VINA RESULT:      -6.3      2.861      4.656
REMARK  Name = 
REMARK  9 active torsions:
REMARK  status: ('A' for Active; 'I' for Inactive)
REMARK    1  A    between atoms: C_1  and  C_2
REMARK    2  A    between atoms: C_2  and  N_3
REMARK    3  A    between atoms: N_3  and  C_4
REMARK    4  A    between atoms: N_3  and  C_11
REMARK    5  A    between atoms: C_4  and  C_5
REMARK    6  A    between atoms: C_11  and  C_12
REMARK    7  A    between atoms: C_13  and  O_14
REMARK    8  A    between atoms: C_20  and  C_21
REMARK    9  A    between atoms: C_28  and  C_29
REMARK                            x       y       z     vdW  Elec       q    Type
REMARK                         _______ _______ _______ _____ _____    ______ ____
ROOT
ATOM      1  C   UNL     1      -0.432  10.647  21.912  0.00  0.00    +0.000 A 
ATOM      2  C   UNL     1       0.305   9.661  22.614  0.00  0.00    +0.000 A 
ATOM      3  C   UNL     1       0.958   8.612  21.956  0.00  0.00    +0.000 A 
ATOM      4  C   UNL     1       1.058   8.641  20.571  0.00  0.00    +0.000 A 
ATOM      5  C   UNL     1       0.345   9.616  19.892  0.00  0.00    +0.000 A 
ATOM      6  C   UNL     1       0.604  10.020  18.484  0.00  0.00    +0.000 A 
ATOM      7  O   UNL     1       1.332   9.371  17.748  0.00  0.00    +0.000 OA
ATOM      8  C   UNL     1      -0.219  11.201  17.989  0.00  0.00    +0.000 A 
ATOM      9  C   UNL     1      -1.426  10.696  18.305  0.00  0.00    +0.000 A 
ATOM     10  O   UNL     1      -1.724  10.750  19.738  0.00  0.00    +0.000 OA
ATOM     11  C   UNL     1      -0.620  10.388  20.541  0.00  0.00    +0.000 A 
ENDROOT
BRANCH   8  12
ATOM     12  C   UNL     1      -0.069  12.622  18.523  0.00  0.00    +0.000 A 
ATOM     13  C   UNL     1      -1.234  13.330  18.982  0.00  0.00    +0.000 A 
ATOM     14  C   UNL     1      -1.192  14.528  19.682  0.00  0.00    +0.000 A 
ATOM     15  C   UNL     1       0.028  15.140  19.858  0.00  0.00    +0.000 A 
ATOM     16  C   UNL     1       1.177  14.539  19.329  0.00  0.00    +0.000 A 
ATOM     17  C   UNL     1       1.138  13.302  18.665  0.00  0.00    +0.000 A 
ATOM     18 CL   UNL     1       2.627  12.682  18.056  0.00  0.00    +0.000 Cl
ENDBRANCH   8  12
BRANCH   9  19
ATOM     19  C   UNL     1      -2.495  10.877  17.246  0.00  0.00    +0.000 C 
ATOM     20  F   UNL     1      -3.553  11.603  17.677  0.00  0.00    +0.000 F 
ATOM     21  F   UNL     1      -2.012  11.524  16.149  0.00  0.00    +0.000 F 
ATOM     22  F   UNL     1      -2.970   9.689  16.800  0.00  0.00    +0.000 F 
ENDBRANCH   9  19
BRANCH   2  23
ATOM     23  O   UNL     1       0.558   9.732  23.957  0.00  0.00    +0.000 OA
ATOM     24  H   UNL     1       0.962  10.588  24.174  0.00  0.00    +0.000 HD
ENDBRANCH   2  23
BRANCH   1  25
ATOM     25  C   UNL     1      -0.263  12.099  22.446  0.00  0.00    +0.000 C 
BRANCH  25  26
ATOM     26  N   UNL     1      -1.248  12.686  23.359  0.00  0.00    +0.000 NA
BRANCH  26  28
ATOM     27  C   UNL     1      -1.408  14.840  24.598  0.00  0.00    +0.000 C 
ATOM     28  C   UNL     1      -1.397  14.136  23.259  0.00  0.00    +0.000 C 
ENDBRANCH  26  28
BRANCH  26  29
ATOM     29  C   UNL     1      -2.549  11.963  23.290  0.00  0.00    +0.000 C 
BRANCH  29  30
ATOM     30  C   UNL     1      -3.804  12.660  22.751  0.00  0.00    +0.000 A 
ATOM     31  C   UNL     1      -4.051  12.741  21.369  0.00  0.00    +0.000 A 
ATOM     32  C   UNL     1      -5.274  13.225  20.880  0.00  0.00    +0.000 A 
ATOM     33  C   UNL     1      -6.268  13.645  21.763  0.00  0.00    +0.000 A 
ATOM     34  C   UNL     1      -6.033  13.594  23.133  0.00  0.00    +0.000 A 
ATOM     35  C   UNL     1      -4.817  13.100  23.620  0.00  0.00    +0.000 A 
ENDBRANCH  29  30
ENDBRANCH  26  29
ENDBRANCH  25  26
ENDBRANCH   1  25
TORSDOF 8
ENDMDL
MODEL 8
REMARK VINA RESULT:      -6.3      0.738      1.400
REMARK  Name = 
REMARK  9 active torsions:
REMARK  status: ('A' for Active; 'I' for Inactive)
REMARK    1  A    between atoms: C_1  and  C_2
REMARK    2  A    between atoms: C_2  and  N_3
REMARK    3  A    between atoms: N_3  and  C_4
REMARK    4  A    between atoms: N_3  and  C_11
REMARK    5  A    between atoms: C_4  and  C_5
REMARK    6  A    between atoms: C_11  and  C_12
REMARK    7  A    between atoms: C_13  and  O_14
REMARK    8  A    between atoms: C_20  and  C_21
REMARK    9  A    between atoms: C_28  and  C_29
REMARK                            x       y       z     vdW  Elec       q    Type
REMARK                         _______ _______ _______ _____ _____    ______ ____
ROOT
ATOM      1  C   UNL     1      -3.227  11.890  18.671  0.00  0.00    +0.000 A 
ATOM      2  C   UNL     1      -3.953  11.011  17.830  0.00  0.00    +0.000 A 
ATOM      3  C   UNL     1      -3.317  10.074  17.007  0.00  0.00    +0.000 A 
ATOM      4  C   UNL     1      -1.953   9.858  17.158  0.00  0.00    +0.000 A 
ATOM      5  C   UNL     1      -1.251  10.714  17.993  0.00  0.00    +0.000 A 
ATOM      6  C   UNL     1       0.099  10.429  18.546  0.00  0.00    +0.000 A 
ATOM      7  O   UNL     1       0.786   9.506  18.133  0.00  0.00    +0.000 OA
ATOM      8  C   UNL     1       0.620  11.456  19.541  0.00  0.00    +0.000 A 
ATOM      9  C   UNL     1       0.458  12.535  18.754  0.00  0.00    +0.000 A 
ATOM     10  O   UNL     1      -0.937  12.967  18.635  0.00  0.00    +0.000 OA
ATOM     11  C   UNL     1      -1.833  11.887  18.476  0.00  0.00    +0.000 A 
ENDROOT
BRANCH   8  12
ATOM     12  C   UNL     1       0.003  11.690  20.917  0.00  0.00    +0.000 A 
ATOM     13  C   UNL     1      -0.120  13.034  21.415  0.00  0.00    +0.000 A 
ATOM     14  C   UNL     1      -0.853  13.383  22.541  0.00  0.00    +0.000 A 
ATOM     15  C   UNL     1      -1.409  12.376  23.297  0.00  0.00    +0.000 A 
ATOM     16  C   UNL     1      -1.220  11.044  22.909  0.00  0.00    +0.000 A 
ATOM     17  C   UNL     1      -0.520  10.696  21.741  0.00  0.00    +0.000 A 
ATOM     18 CL   UNL     1      -0.354   9.017  21.387  0.00  0.00    +0.000 Cl
ENDBRANCH   8  12
BRANCH   9  19
ATOM     19  C   UNL     1       1.614  13.516  18.764  0.00  0.00    +0.000 C 
ATOM     20  F   UNL     1       1.236  14.779  19.069  0.00  0.00    +0.000 F 
ATOM     21  F   UNL     1       2.559  13.170  19.682  0.00  0.00    +0.000 F 
ATOM     22  F   UNL     1       2.250  13.558  17.569  0.00  0.00    +0.000 F 
ENDBRANCH   9  19
BRANCH   2  23
ATOM     23  O   UNL     1      -5.318  10.905  17.860  0.00  0.00    +0.000 OA
ATOM     24  H   UNL     1      -5.718  11.789  17.862  0.00  0.00    +0.000 HD
ENDBRANCH   2  23
BRANCH   1  25
ATOM     25  C   UNL     1      -3.846  12.114  20.081  0.00  0.00    +0.000 C 
BRANCH  25  26
ATOM     26  N   UNL     1      -4.568  13.349  20.400  0.00  0.00    +0.000 NA
BRANCH  26  28
ATOM     27  C   UNL     1      -6.142  15.039  19.466  0.00  0.00    +0.000 C 
ATOM     28  C   UNL     1      -5.780  13.577  19.616  0.00  0.00    +0.000 C 
ENDBRANCH  26  28
BRANCH  26  29
ATOM     29  C   UNL     1      -4.794  13.481  21.867  0.00  0.00    +0.000 C 
BRANCH  29  30
ATOM     30  C   UNL     1      -4.220  14.673  22.643  0.00  0.00    +0.000 A 
ATOM     31  C   UNL     1      -4.230  14.694  24.048  0.00  0.00    +0.000 A 
ATOM     32  C   UNL     1      -3.558  15.699  24.761  0.00  0.00    +0.000 A 
ATOM     33  C   UNL     1      -2.871  16.704  24.082  0.00  0.00    +0.000 A 
ATOM     34  C   UNL     1      -2.870  16.712  22.691  0.00  0.00    +0.000 A 
ATOM     35  C   UNL     1      -3.531  15.703  21.981  0.00  0.00    +0.000 A 
ENDBRANCH  29  30
ENDBRANCH  26  29
ENDBRANCH  25  26
ENDBRANCH   1  25
TORSDOF 8
ENDMDL
MODEL 9
REMARK VINA RESULT:      -6.2      2.988      4.771
REMARK  Name = 
REMARK  9 active torsions:
REMARK  status: ('A' for Active; 'I' for Inactive)
REMARK    1  A    between atoms: C_1  and  C_2
REMARK    2  A    between atoms: C_2  and  N_3
REMARK    3  A    between atoms: N_3  and  C_4
REMARK    4  A    between atoms: N_3  and  C_11
REMARK    5  A    between atoms: C_4  and  C_5
REMARK    6  A    between atoms: C_11  and  C_12
REMARK    7  A    between atoms: C_13  and  O_14
REMARK    8  A    between atoms: C_20  and  C_21
REMARK    9  A    between atoms: C_28  and  C_29
REMARK                            x       y       z     vdW  Elec       q    Type
REMARK                         _______ _______ _______ _____ _____    ______ ____
ROOT
ATOM      1  C   UNL     1       1.141  14.135  19.722  0.00  0.00    +0.000 A 
ATOM      2  C   UNL     1       2.090  14.654  18.807  0.00  0.00    +0.000 A 
ATOM      3  C   UNL     1       2.933  13.825  18.059  0.00  0.00    +0.000 A 
ATOM      4  C   UNL     1       2.705  12.454  18.057  0.00  0.00    +0.000 A 
ATOM      5  C   UNL     1       1.765  11.955  18.946  0.00  0.00    +0.000 A 
ATOM      6  C   UNL     1       1.143  10.608  18.842  0.00  0.00    +0.000 A 
ATOM      7  O   UNL     1       1.572   9.754  18.081  0.00  0.00    +0.000 OA
ATOM      8  C   UNL     1       0.043  10.324  19.855  0.00  0.00    +0.000 A 
ATOM      9  C   UNL     1       0.760  10.622  20.954  0.00  0.00    +0.000 A 
ATOM     10  O   UNL     1       0.943  12.062  21.159  0.00  0.00    +0.000 OA
ATOM     11  C   UNL     1       1.239  12.752  19.964  0.00  0.00    +0.000 A 
ENDROOT
BRANCH   8  12
ATOM     12  C   UNL     1      -1.301  11.048  19.872  0.00  0.00    +0.000 A 
ATOM     13  C   UNL     1      -1.727  11.716  21.072  0.00  0.00    +0.000 A 
ATOM     14  C   UNL     1      -2.812  12.580  21.138  0.00  0.00    +0.000 A 
ATOM     15  C   UNL     1      -3.601  12.726  20.020  0.00  0.00    +0.000 A 
ATOM     16  C   UNL     1      -3.286  12.006  18.860  0.00  0.00    +0.000 A 
ATOM     17  C   UNL     1      -2.157  11.172  18.781  0.00  0.00    +0.000 A 
ATOM     18 CL   UNL     1      -1.893  10.338  17.295  0.00  0.00    +0.000 Cl
ENDBRANCH   8  12
BRANCH   9  19
ATOM     19  C   UNL     1       0.601   9.652  22.107  0.00  0.00    +0.000 C 
ATOM     20  F   UNL     1      -0.169   8.581  21.799  0.00  0.00    +0.000 F 
ATOM     21  F   UNL     1       1.801   9.151  22.512  0.00  0.00    +0.000 F 
ATOM     22  F   UNL     1       0.057  10.245  23.196  0.00  0.00    +0.000 F 
ENDBRANCH   9  19
BRANCH   2  23
ATOM     23  O   UNL     1       2.162  15.981  18.477  0.00  0.00    +0.000 OA
ATOM     24  H   UNL     1       2.445  16.499  19.247  0.00  0.00    +0.000 HD
ENDBRANCH   2  23
BRANCH   1  25
ATOM     25  C   UNL     1      -0.236  14.861  19.725  0.00  0.00    +0.000 C 
BRANCH  25  26
ATOM     26  N   UNL     1      -0.324  16.310  19.928  0.00  0.00    +0.000 NA
BRANCH  26  28
ATOM     27  C   UNL     1      -0.785  17.715  17.925  0.00  0.00    +0.000 C 
ATOM     28  C   UNL     1      -1.343  16.985  19.127  0.00  0.00    +0.000 C 
ENDBRANCH  26  28
BRANCH  26  29
ATOM     29  C   UNL     1      -0.407  16.649  21.377  0.00  0.00    +0.000 C 
BRANCH  29  30
ATOM     30  C   UNL     1      -1.303  15.839  22.321  0.00  0.00    +0.000 A 
ATOM     31  C   UNL     1      -0.753  14.923  23.234  0.00  0.00    +0.000 A 
ATOM     32  C   UNL     1      -1.551  14.307  24.211  0.00  0.00    +0.000 A 
ATOM     33  C   UNL     1      -2.913  14.591  24.286  0.00  0.00    +0.000 A 
ATOM     34  C   UNL     1      -3.481  15.477  23.376  0.00  0.00    +0.000 A 
ATOM     35  C   UNL     1      -2.681  16.098  22.410  0.00  0.00    +0.000 A 
ENDBRANCH  29  30
ENDBRANCH  26  29
ENDBRANCH  25  26
ENDBRANCH   1  25
TORSDOF 8
ENDMDL
