MODEL 1
REMARK VINA RESULT:      -7.3      0.000      0.000
REMARK  Name = 
REMARK  14 active torsions:
REMARK  status: ('A' for Active; 'I' for Inactive)
REMARK    1  A    between atoms: C_1  and  C_2
REMARK    2  A    between atoms: C_2  and  C_3
REMARK    3  A    between atoms: C_3  and  C_4
REMARK    4  A    between atoms: C_4  and  C_5
REMARK    5  A    between atoms: C_5  and  C_6
REMARK    6  A    between atoms: C_7  and  C_8
REMARK    7  A    between atoms: C_8  and  C_9
REMARK    8  A    between atoms: C_8  and  C_10
REMARK    9  A    between atoms: C_12  and  C_13
REMARK   10  A    between atoms: C_13  and  C_14
REMARK   11  A    between atoms: C_13  and  C_15
REMARK   12  A    between atoms: C_16  and  C_17
REMARK   13  A    between atoms: C_17  and  O_18
REMARK   14  A    between atoms: C_19  and  C_20
REMARK                            x       y       z     vdW  Elec       q    Type
REMARK                         _______ _______ _______ _____ _____    ______ ____
ROOT
ATOM      1  C   UNL     1       4.555   6.052  17.728  0.00  0.00    +0.000 A 
ATOM      2  C   UNL     1       5.304   4.869  17.558  0.00  0.00    +0.000 A 
ATOM      3  N   UNL     1       4.997   3.729  18.217  0.00  0.00    +0.000 NA
ATOM      4  C   UNL     1       3.931   3.679  19.051  0.00  0.00    +0.000 A 
ATOM      5  C   UNL     1       3.098   4.799  19.288  0.00  0.00    +0.000 A 
ATOM      6  C   UNL     1       3.410   6.030  18.607  0.00  0.00    +0.000 A 
ENDROOT
BRANCH   6   7
ATOM      7  C   UNL     1       2.560   7.261  18.775  0.00  0.00    +0.000 A 
ATOM      8  C   UNL     1       2.276   8.127  17.704  0.00  0.00    +0.000 A 
ATOM      9  C   UNL     1       1.406   9.216  17.835  0.00  0.00    +0.000 A 
ATOM     10  C   UNL     1       0.910   9.578  19.088  0.00  0.00    +0.000 A 
ATOM     11  C   UNL     1       1.283   8.818  20.202  0.00  0.00    +0.000 A 
ATOM     12  C   UNL     1       2.016   7.627  20.019  0.00  0.00    +0.000 A 
ATOM     13  C   UNL     1       0.933   9.252  21.606  0.00  0.00    +0.000 C 
ATOM     14  C   UNL     1       0.416  10.686  21.691  0.00  0.00    +0.000 C 
ATOM     15  C   UNL     1      -0.600  10.949  20.586  0.00  0.00    +0.000 C 
ATOM     16  C   UNL     1       0.069  10.822  19.221  0.00  0.00    +0.000 C 
ENDBRANCH   6   7
BRANCH   2  17
ATOM     17  C   UNL     1       6.557   4.791  16.686  0.00  0.00    +0.000 C 
ATOM     18  C   UNL     1       7.761   4.380  17.542  0.00  0.00    +0.000 C 
ATOM     19  C   UNL     1       6.422   3.844  15.489  0.00  0.00    +0.000 C 
ENDBRANCH   2  17
BRANCH   4  20
ATOM     20  C   UNL     1       3.667   2.287  19.627  0.00  0.00    +0.000 C 
ATOM     21  C   UNL     1       3.474   1.271  18.497  0.00  0.00    +0.000 C 
ATOM     22  C   UNL     1       4.769   1.812  20.582  0.00  0.00    +0.000 C 
ENDBRANCH   4  20
BRANCH   1  23
ATOM     23  C   UNL     1       4.964   7.290  16.939  0.00  0.00    +0.000 C 
BRANCH  23  24
ATOM     24  C   UNL     1       5.923   8.224  17.677  0.00  0.00    +0.000 C 
BRANCH  24  25
ATOM     25  C   UNL     1       7.367   7.927  17.256  0.00  0.00    +0.000 C 
BRANCH  25  27
ATOM     26  C   UNL     1       8.687   9.763  18.357  0.00  0.00    +0.000 C 
ATOM     27  C   UNL     1       8.370   8.272  18.352  0.00  0.00    +0.000 C 
ENDBRANCH  25  27
ENDBRANCH  24  25
ENDBRANCH  23  24
ENDBRANCH   1  23
BRANCH   5  28
ATOM     28  C   UNL     1       1.841   4.600  20.133  0.00  0.00    +0.000 C 
BRANCH  28  29
ATOM     29  O   UNL     1       0.785   3.860  19.543  0.00  0.00    +0.000 OA
ATOM     30  H   UNL     1       0.373   4.420  18.866  0.00  0.00    +0.000 HD
ENDBRANCH  28  29
ENDBRANCH   5  28
TORSDOF 9
ENDMDL
MODEL 2
REMARK VINA RESULT:      -7.2      7.276     10.914
REMARK  Name = 
REMARK  14 active torsions:
REMARK  status: ('A' for Active; 'I' for Inactive)
REMARK    1  A    between atoms: C_1  and  C_2
REMARK    2  A    between atoms: C_2  and  C_3
REMARK    3  A    between atoms: C_3  and  C_4
REMARK    4  A    between atoms: C_4  and  C_5
REMARK    5  A    between atoms: C_5  and  C_6
REMARK    6  A    between atoms: C_7  and  C_8
REMARK    7  A    between atoms: C_8  and  C_9
REMARK    8  A    between atoms: C_8  and  C_10
REMARK    9  A    between atoms: C_12  and  C_13
REMARK   10  A    between atoms: C_13  and  C_14
REMARK   11  A    between atoms: C_13  and  C_15
REMARK   12  A    between atoms: C_16  and  C_17
REMARK   13  A    between atoms: C_17  and  O_18
REMARK   14  A    between atoms: C_19  and  C_20
REMARK                            x       y       z     vdW  Elec       q    Type
REMARK                         _______ _______ _______ _____ _____    ______ ____
ROOT
ATOM      1  C   UNL     1      -4.028  12.106  19.640  0.00  0.00    +0.000 A 
ATOM      2  C   UNL     1      -5.338  12.103  20.161  0.00  0.00    +0.000 A 
ATOM      3  N   UNL     1      -5.598  12.450  21.442  0.00  0.00    +0.000 NA
ATOM      4  C   UNL     1      -4.598  12.842  22.268  0.00  0.00    +0.000 A 
ATOM      5  C   UNL     1      -3.246  12.898  21.851  0.00  0.00    +0.000 A 
ATOM      6  C   UNL     1      -2.940  12.522  20.493  0.00  0.00    +0.000 A 
ENDROOT
BRANCH   6   7
ATOM      7  C   UNL     1      -1.535  12.583  19.957  0.00  0.00    +0.000 A 
ATOM      8  C   UNL     1      -0.724  11.439  19.852  0.00  0.00    +0.000 A 
ATOM      9  C   UNL     1       0.546  11.475  19.263  0.00  0.00    +0.000 A 
ATOM     10  C   UNL     1       1.122  12.692  18.899  0.00  0.00    +0.000 A 
ATOM     11  C   UNL     1       0.396  13.869  19.116  0.00  0.00    +0.000 A 
ATOM     12  C   UNL     1      -0.945  13.791  19.548  0.00  0.00    +0.000 A 
ATOM     13  C   UNL     1       1.021  15.230  18.916  0.00  0.00    +0.000 C 
ATOM     14  C   UNL     1       2.538  15.186  18.749  0.00  0.00    +0.000 C 
ATOM     15  C   UNL     1       2.933  14.069  17.791  0.00  0.00    +0.000 C 
ATOM     16  C   UNL     1       2.534  12.717  18.374  0.00  0.00    +0.000 C 
ENDBRANCH   6   7
BRANCH   2  17
ATOM     17  C   UNL     1      -6.555  11.642  19.359  0.00  0.00    +0.000 C 
ATOM     18  C   UNL     1      -7.377  10.648  20.189  0.00  0.00    +0.000 C 
ATOM     19  C   UNL     1      -7.453  12.786  18.879  0.00  0.00    +0.000 C 
ENDBRANCH   2  17
BRANCH   4  20
ATOM     20  C   UNL     1      -5.083  13.300  23.644  0.00  0.00    +0.000 C 
ATOM     21  C   UNL     1      -5.365  14.806  23.635  0.00  0.00    +0.000 C 
ATOM     22  C   UNL     1      -6.318  12.534  24.132  0.00  0.00    +0.000 C 
ENDBRANCH   4  20
BRANCH   1  23
ATOM     23  C   UNL     1      -3.824  11.710  18.182  0.00  0.00    +0.000 C 
BRANCH  23  24
ATOM     24  C   UNL     1      -3.595  10.215  17.957  0.00  0.00    +0.000 C 
BRANCH  24  25
ATOM     25  C   UNL     1      -2.542  10.009  16.863  0.00  0.00    +0.000 C 
BRANCH  25  27
ATOM     26  C   UNL     1      -3.092  10.071  14.409  0.00  0.00    +0.000 C 
ATOM     27  C   UNL     1      -2.787  10.901  15.651  0.00  0.00    +0.000 C 
ENDBRANCH  25  27
ENDBRANCH  24  25
ENDBRANCH  23  24
ENDBRANCH   1  23
BRANCH   5  28
ATOM     28  C   UNL     1      -2.217  13.488  22.813  0.00  0.00    +0.000 C 
BRANCH  28  29
ATOM     29  O   UNL     1      -1.255  12.594  23.347  0.00  0.00    +0.000 OA
ATOM     30  H   UNL     1      -0.603  12.410  22.651  0.00  0.00    +0.000 HD
ENDBRANCH  28  29
ENDBRANCH   5  28
TORSDOF 9
ENDMDL
MODEL 3
REMARK VINA RESULT:      -7.1      1.936      4.554
REMARK  Name = 
REMARK  14 active torsions:
REMARK  status: ('A' for Active; 'I' for Inactive)
REMARK    1  A    between atoms: C_1  and  C_2
REMARK    2  A    between atoms: C_2  and  C_3
REMARK    3  A    between atoms: C_3  and  C_4
REMARK    4  A    between atoms: C_4  and  C_5
REMARK    5  A    between atoms: C_5  and  C_6
REMARK    6  A    between atoms: C_7  and  C_8
REMARK    7  A    between atoms: C_8  and  C_9
REMARK    8  A    between atoms: C_8  and  C_10
REMARK    9  A    between atoms: C_12  and  C_13
REMARK   10  A    between atoms: C_13  and  C_14
REMARK   11  A    between atoms: C_13  and  C_15
REMARK   12  A    between atoms: C_16  and  C_17
REMARK   13  A    between atoms: C_17  and  O_18
REMARK   14  A    between atoms: C_19  and  C_20
REMARK                            x       y       z     vdW  Elec       q    Type
REMARK                         _______ _______ _______ _____ _____    ______ ____
ROOT
ATOM      1  C   UNL     1       2.584   4.687  18.040  0.00  0.00    +0.000 A 
ATOM      2  C   UNL     1       3.310   3.575  17.569  0.00  0.00    +0.000 A 
ATOM      3  N   UNL     1       4.482   3.715  16.908  0.00  0.00    +0.000 NA
ATOM      4  C   UNL     1       5.015   4.943  16.700  0.00  0.00    +0.000 A 
ATOM      5  C   UNL     1       4.383   6.131  17.141  0.00  0.00    +0.000 A 
ATOM      6  C   UNL     1       3.127   6.010  17.838  0.00  0.00    +0.000 A 
ENDROOT
BRANCH   6   7
ATOM      7  C   UNL     1       2.402   7.217  18.369  0.00  0.00    +0.000 A 
ATOM      8  C   UNL     1       2.041   8.297  17.544  0.00  0.00    +0.000 A 
ATOM      9  C   UNL     1       1.281   9.375  18.014  0.00  0.00    +0.000 A 
ATOM     10  C   UNL     1       0.987   9.493  19.373  0.00  0.00    +0.000 A 
ATOM     11  C   UNL     1       1.450   8.504  20.248  0.00  0.00    +0.000 A 
ATOM     12  C   UNL     1       2.060   7.344  19.727  0.00  0.00    +0.000 A 
ATOM     13  C   UNL     1       1.327   8.655  21.746  0.00  0.00    +0.000 C 
ATOM     14  C   UNL     1       0.936  10.064  22.187  0.00  0.00    +0.000 C 
ATOM     15  C   UNL     1      -0.198  10.595  21.319  0.00  0.00    +0.000 C 
ATOM     16  C   UNL     1       0.268  10.721  19.872  0.00  0.00    +0.000 C 
ENDBRANCH   6   7
BRANCH   2  17
ATOM     17  C   UNL     1       2.809   2.136  17.692  0.00  0.00    +0.000 C 
ATOM     18  C   UNL     1       3.774   1.322  18.562  0.00  0.00    +0.000 C 
ATOM     19  C   UNL     1       1.385   2.019  18.245  0.00  0.00    +0.000 C 
ENDBRANCH   2  17
BRANCH   4  20
ATOM     20  C   UNL     1       6.392   4.910  16.035  0.00  0.00    +0.000 C 
ATOM     21  C   UNL     1       7.459   4.471  17.043  0.00  0.00    +0.000 C 
ATOM     22  C   UNL     1       6.438   4.013  14.793  0.00  0.00    +0.000 C 
ENDBRANCH   4  20
BRANCH   1  23
ATOM     23  C   UNL     1       1.276   4.440  18.783  0.00  0.00    +0.000 C 
BRANCH  23  24
ATOM     24  C   UNL     1       1.381   4.547  20.304  0.00  0.00    +0.000 C 
BRANCH  24  25
ATOM     25  C   UNL     1       2.767   4.079  20.765  0.00  0.00    +0.000 C 
BRANCH  25  27
ATOM     26  C   UNL     1       1.248   2.401  21.863  0.00  0.00    +0.000 C 
ATOM     27  C   UNL     1       2.690   2.863  21.681  0.00  0.00    +0.000 C 
ENDBRANCH  25  27
ENDBRANCH  24  25
ENDBRANCH  23  24
ENDBRANCH   1  23
BRANCH   5  28
ATOM     28  C   UNL     1       5.134   7.451  16.984  0.00  0.00    +0.000 C 
BRANCH  28  29
ATOM     29  O   UNL     1       6.360   7.577  17.686  0.00  0.00    +0.000 OA
ATOM     30  H   UNL     1       6.584   8.521  17.722  0.00  0.00    +0.000 HD
ENDBRANCH  28  29
ENDBRANCH   5  28
TORSDOF 9
ENDMDL
MODEL 4
REMARK VINA RESULT:      -7.1      1.795      4.595
REMARK  Name = 
REMARK  14 active torsions:
REMARK  status: ('A' for Active; 'I' for Inactive)
REMARK    1  A    between atoms: C_1  and  C_2
REMARK    2  A    between atoms: C_2  and  C_3
REMARK    3  A    between atoms: C_3  and  C_4
REMARK    4  A    between atoms: C_4  and  C_5
REMARK    5  A    between atoms: C_5  and  C_6
REMARK    6  A    between atoms: C_7  and  C_8
REMARK    7  A    between atoms: C_8  and  C_9
REMARK    8  A    between atoms: C_8  and  C_10
REMARK    9  A    between atoms: C_12  and  C_13
REMARK   10  A    between atoms: C_13  and  C_14
REMARK   11  A    between atoms: C_13  and  C_15
REMARK   12  A    between atoms: C_16  and  C_17
REMARK   13  A    between atoms: C_17  and  O_18
REMARK   14  A    between atoms: C_19  and  C_20
REMARK                            x       y       z     vdW  Elec       q    Type
REMARK                         _______ _______ _______ _____ _____    ______ ____
ROOT
ATOM      1  C   UNL     1       3.310   4.775  19.521  0.00  0.00    +0.000 A 
ATOM      2  C   UNL     1       4.176   3.688  19.282  0.00  0.00    +0.000 A 
ATOM      3  N   UNL     1       5.139   3.737  18.334  0.00  0.00    +0.000 NA
ATOM      4  C   UNL     1       5.322   4.857  17.593  0.00  0.00    +0.000 A 
ATOM      5  C   UNL     1       4.524   6.015  17.755  0.00  0.00    +0.000 A 
ATOM      6  C   UNL     1       3.482   5.984  18.751  0.00  0.00    +0.000 A 
ENDROOT
BRANCH   6   7
ATOM      7  C   UNL     1       2.608   7.181  19.012  0.00  0.00    +0.000 A 
ATOM      8  C   UNL     1       2.289   8.109  18.005  0.00  0.00    +0.000 A 
ATOM      9  C   UNL     1       1.397   9.167  18.219  0.00  0.00    +0.000 A 
ATOM     10  C   UNL     1       0.911   9.434  19.499  0.00  0.00    +0.000 A 
ATOM     11  C   UNL     1       1.317   8.610  20.556  0.00  0.00    +0.000 A 
ATOM     12  C   UNL     1       2.073   7.451  20.284  0.00  0.00    +0.000 A 
ATOM     13  C   UNL     1       0.977   8.942  21.989  0.00  0.00    +0.000 C 
ATOM     14  C   UNL     1       0.430  10.355  22.176  0.00  0.00    +0.000 C 
ATOM     15  C   UNL     1      -0.606  10.667  21.105  0.00  0.00    +0.000 C 
ATOM     16  C   UNL     1       0.045  10.647  19.726  0.00  0.00    +0.000 C 
ENDBRANCH   6   7
BRANCH   2  17
ATOM     17  C   UNL     1       4.056   2.349  20.009  0.00  0.00    +0.000 C 
ATOM     18  C   UNL     1       3.798   1.228  18.994  0.00  0.00    +0.000 C 
ATOM     19  C   UNL     1       5.272   1.999  20.872  0.00  0.00    +0.000 C 
ENDBRANCH   2  17
BRANCH   4  20
ATOM     20  C   UNL     1       6.521   4.776  16.646  0.00  0.00    +0.000 C 
ATOM     21  C   UNL     1       7.794   4.432  17.427  0.00  0.00    +0.000 C 
ATOM     22  C   UNL     1       6.317   3.777  15.501  0.00  0.00    +0.000 C 
ENDBRANCH   4  20
BRANCH   1  23
ATOM     23  C   UNL     1       2.258   4.640  20.615  0.00  0.00    +0.000 C 
BRANCH  23  24
ATOM     24  C   UNL     1       0.844   4.363  20.104  0.00  0.00    +0.000 C 
BRANCH  24  25
ATOM     25  C   UNL     1       0.613   2.851  20.004  0.00  0.00    +0.000 C 
BRANCH  25  27
ATOM     26  C   UNL     1       1.001   3.485  17.601  0.00  0.00    +0.000 C 
ATOM     27  C   UNL     1       0.643   2.356  18.562  0.00  0.00    +0.000 C 
ENDBRANCH  25  27
ENDBRANCH  24  25
ENDBRANCH  23  24
ENDBRANCH   1  23
BRANCH   5  28
ATOM     28  C   UNL     1       4.904   7.270  16.972  0.00  0.00    +0.000 C 
BRANCH  28  29
ATOM     29  O   UNL     1       4.835   7.186  15.558  0.00  0.00    +0.000 OA
ATOM     30  H   UNL     1       5.389   6.440  15.278  0.00  0.00    +0.000 HD
ENDBRANCH  28  29
ENDBRANCH   5  28
TORSDOF 9
ENDMDL
MODEL 5
REMARK VINA RESULT:      -7.0      6.907     10.791
REMARK  Name = 
REMARK  14 active torsions:
REMARK  status: ('A' for Active; 'I' for Inactive)
REMARK    1  A    between atoms: C_1  and  C_2
REMARK    2  A    between atoms: C_2  and  C_3
REMARK    3  A    between atoms: C_3  and  C_4
REMARK    4  A    between atoms: C_4  and  C_5
REMARK    5  A    between atoms: C_5  and  C_6
REMARK    6  A    between atoms: C_7  and  C_8
REMARK    7  A    between atoms: C_8  and  C_9
REMARK    8  A    between atoms: C_8  and  C_10
REMARK    9  A    between atoms: C_12  and  C_13
REMARK   10  A    between atoms: C_13  and  C_14
REMARK   11  A    between atoms: C_13  and  C_15
REMARK   12  A    between atoms: C_16  and  C_17
REMARK   13  A    between atoms: C_17  and  O_18
REMARK   14  A    between atoms: C_19  and  C_20
REMARK                            x       y       z     vdW  Elec       q    Type
REMARK                         _______ _______ _______ _____ _____    ______ ____
ROOT
ATOM      1  C   UNL     1      -3.232  13.005  21.737  0.00  0.00    +0.000 A 
ATOM      2  C   UNL     1      -4.548  12.889  22.229  0.00  0.00    +0.000 A 
ATOM      3  N   UNL     1      -5.574  12.499  21.439  0.00  0.00    +0.000 NA
ATOM      4  C   UNL     1      -5.361  12.177  20.140  0.00  0.00    +0.000 A 
ATOM      5  C   UNL     1      -4.081  12.241  19.540  0.00  0.00    +0.000 A 
ATOM      6  C   UNL     1      -2.972  12.666  20.358  0.00  0.00    +0.000 A 
ENDROOT
BRANCH   6   7
ATOM      7  C   UNL     1      -1.571  12.732  19.812  0.00  0.00    +0.000 A 
ATOM      8  C   UNL     1      -0.829  11.576  19.511  0.00  0.00    +0.000 A 
ATOM      9  C   UNL     1       0.435  11.634  18.911  0.00  0.00    +0.000 A 
ATOM     10  C   UNL     1       1.078  12.859  18.735  0.00  0.00    +0.000 A 
ATOM     11  C   UNL     1       0.425  14.025  19.150  0.00  0.00    +0.000 A 
ATOM     12  C   UNL     1      -0.914  13.955  19.589  0.00  0.00    +0.000 A 
ATOM     13  C   UNL     1       1.126  15.363  19.157  0.00  0.00    +0.000 C 
ATOM     14  C   UNL     1       2.637  15.261  18.956  0.00  0.00    +0.000 C 
ATOM     15  C   UNL     1       2.956  14.291  17.826  0.00  0.00    +0.000 C 
ATOM     16  C   UNL     1       2.484  12.887  18.194  0.00  0.00    +0.000 C 
ENDBRANCH   6   7
BRANCH   2  17
ATOM     17  C   UNL     1      -4.943  13.262  23.658  0.00  0.00    +0.000 C 
ATOM     18  C   UNL     1      -6.414  13.692  23.695  0.00  0.00    +0.000 C 
ATOM     19  C   UNL     1      -4.700  12.147  24.680  0.00  0.00    +0.000 C 
ENDBRANCH   2  17
BRANCH   4  20
ATOM     20  C   UNL     1      -6.609  11.655  19.425  0.00  0.00    +0.000 C 
ATOM     21  C   UNL     1      -7.364  10.670  20.323  0.00  0.00    +0.000 C 
ATOM     22  C   UNL     1      -7.549  12.774  18.961  0.00  0.00    +0.000 C 
ENDBRANCH   4  20
BRANCH   1  23
ATOM     23  C   UNL     1      -2.133  13.443  22.698  0.00  0.00    +0.000 C 
BRANCH  23  24
ATOM     24  C   UNL     1      -0.975  12.453  22.830  0.00  0.00    +0.000 C 
BRANCH  24  25
ATOM     25  C   UNL     1      -1.517  11.060  23.171  0.00  0.00    +0.000 C 
BRANCH  25  27
ATOM     26  C   UNL     1      -0.485   9.021  22.121  0.00  0.00    +0.000 C 
ATOM     27  C   UNL     1      -0.408  10.019  23.271  0.00  0.00    +0.000 C 
ENDBRANCH  25  27
ENDBRANCH  24  25
ENDBRANCH  23  24
ENDBRANCH   1  23
BRANCH   5  28
ATOM     28  C   UNL     1      -3.923  11.722  18.113  0.00  0.00    +0.000 C 
BRANCH  28  29
ATOM     29  O   UNL     1      -3.821  10.317  17.952  0.00  0.00    +0.000 OA
ATOM     30  H   UNL     1      -3.148   9.995  18.575  0.00  0.00    +0.000 HD
ENDBRANCH  28  29
ENDBRANCH   5  28
TORSDOF 9
ENDMDL
MODEL 6
REMARK VINA RESULT:      -6.8      1.031      1.392
REMARK  Name = 
REMARK  14 active torsions:
REMARK  status: ('A' for Active; 'I' for Inactive)
REMARK    1  A    between atoms: C_1  and  C_2
REMARK    2  A    between atoms: C_2  and  C_3
REMARK    3  A    between atoms: C_3  and  C_4
REMARK    4  A    between atoms: C_4  and  C_5
REMARK    5  A    between atoms: C_5  and  C_6
REMARK    6  A    between atoms: C_7  and  C_8
REMARK    7  A    between atoms: C_8  and  C_9
REMARK    8  A    between atoms: C_8  and  C_10
REMARK    9  A    between atoms: C_12  and  C_13
REMARK   10  A    between atoms: C_13  and  C_14
REMARK   11  A    between atoms: C_13  and  C_15
REMARK   12  A    between atoms: C_16  and  C_17
REMARK   13  A    between atoms: C_17  and  O_18
REMARK   14  A    between atoms: C_19  and  C_20
REMARK                            x       y       z     vdW  Elec       q    Type
REMARK                         _______ _______ _______ _____ _____    ______ ____
ROOT
ATOM      1  C   UNL     1       4.368   5.919  17.044  0.00  0.00    +0.000 A 
ATOM      2  C   UNL     1       4.962   4.737  16.557  0.00  0.00    +0.000 A 
ATOM      3  N   UNL     1       4.515   3.512  16.917  0.00  0.00    +0.000 NA
ATOM      4  C   UNL     1       3.451   3.382  17.747  0.00  0.00    +0.000 A 
ATOM      5  C   UNL     1       2.766   4.497  18.285  0.00  0.00    +0.000 A 
ATOM      6  C   UNL     1       3.230   5.814  17.927  0.00  0.00    +0.000 A 
ENDROOT
BRANCH   6   7
ATOM      7  C   UNL     1       2.541   7.055  18.428  0.00  0.00    +0.000 A 
ATOM      8  C   UNL     1       2.269   8.151  17.589  0.00  0.00    +0.000 A 
ATOM      9  C   UNL     1       1.542   9.264  18.027  0.00  0.00    +0.000 A 
ATOM     10  C   UNL     1       1.194   9.397  19.371  0.00  0.00    +0.000 A 
ATOM     11  C   UNL     1       1.570   8.387  20.264  0.00  0.00    +0.000 A 
ATOM     12  C   UNL     1       2.146   7.199  19.769  0.00  0.00    +0.000 A 
ATOM     13  C   UNL     1       1.387   8.544  21.755  0.00  0.00    +0.000 C 
ATOM     14  C   UNL     1       1.045   9.970  22.181  0.00  0.00    +0.000 C 
ATOM     15  C   UNL     1      -0.022  10.555  21.265  0.00  0.00    +0.000 C 
ATOM     16  C   UNL     1       0.514  10.658  19.840  0.00  0.00    +0.000 C 
ENDBRANCH   6   7
BRANCH   2  17
ATOM     17  C   UNL     1       6.194   4.731  15.653  0.00  0.00    +0.000 C 
ATOM     18  C   UNL     1       7.398   4.168  16.418  0.00  0.00    +0.000 C 
ATOM     19  C   UNL     1       6.001   3.958  14.345  0.00  0.00    +0.000 C 
ENDBRANCH   2  17
BRANCH   4  20
ATOM     20  C   UNL     1       3.015   1.931  17.962  0.00  0.00    +0.000 C 
ATOM     21  C   UNL     1       3.840   1.288  19.081  0.00  0.00    +0.000 C 
ATOM     22  C   UNL     1       1.518   1.791  18.259  0.00  0.00    +0.000 C 
ENDBRANCH   4  20
BRANCH   1  23
ATOM     23  C   UNL     1       4.928   7.258  16.580  0.00  0.00    +0.000 C 
BRANCH  23  24
ATOM     24  C   UNL     1       5.862   7.936  17.582  0.00  0.00    +0.000 C 
BRANCH  24  25
ATOM     25  C   UNL     1       7.320   7.601  17.244  0.00  0.00    +0.000 C 
BRANCH  25  27
ATOM     26  C   UNL     1       7.592   6.000  19.166  0.00  0.00    +0.000 C 
ATOM     27  C   UNL     1       8.134   7.253  18.486  0.00  0.00    +0.000 C 
ENDBRANCH  25  27
ENDBRANCH  24  25
ENDBRANCH  23  24
ENDBRANCH   1  23
BRANCH   5  28
ATOM     28  C   UNL     1       1.495   4.244  19.093  0.00  0.00    +0.000 C 
BRANCH  28  29
ATOM     29  O   UNL     1       1.647   4.101  20.496  0.00  0.00    +0.000 OA
ATOM     30  H   UNL     1       1.689   3.152  20.694  0.00  0.00    +0.000 HD
ENDBRANCH  28  29
ENDBRANCH   5  28
TORSDOF 9
ENDMDL
MODEL 7
REMARK VINA RESULT:      -6.8      1.816      4.721
REMARK  Name = 
REMARK  14 active torsions:
REMARK  status: ('A' for Active; 'I' for Inactive)
REMARK    1  A    between atoms: C_1  and  C_2
REMARK    2  A    between atoms: C_2  and  C_3
REMARK    3  A    between atoms: C_3  and  C_4
REMARK    4  A    between atoms: C_4  and  C_5
REMARK    5  A    between atoms: C_5  and  C_6
REMARK    6  A    between atoms: C_7  and  C_8
REMARK    7  A    between atoms: C_8  and  C_9
REMARK    8  A    between atoms: C_8  and  C_10
REMARK    9  A    between atoms: C_12  and  C_13
REMARK   10  A    between atoms: C_13  and  C_14
REMARK   11  A    between atoms: C_13  and  C_15
REMARK   12  A    between atoms: C_16  and  C_17
REMARK   13  A    between atoms: C_17  and  O_18
REMARK   14  A    between atoms: C_19  and  C_20
REMARK                            x       y       z     vdW  Elec       q    Type
REMARK                         _______ _______ _______ _____ _____    ______ ____
ROOT
ATOM      1  C   UNL     1       3.198   4.949  18.867  0.00  0.00    +0.000 A 
ATOM      2  C   UNL     1       4.060   3.856  18.643  0.00  0.00    +0.000 A 
ATOM      3  N   UNL     1       5.171   3.968  17.881  0.00  0.00    +0.000 NA
ATOM      4  C   UNL     1       5.511   5.156  17.325  0.00  0.00    +0.000 A 
ATOM      5  C   UNL     1       4.731   6.325  17.494  0.00  0.00    +0.000 A 
ATOM      6  C   UNL     1       3.534   6.230  18.292  0.00  0.00    +0.000 A 
ENDROOT
BRANCH   6   7
ATOM      7  C   UNL     1       2.662   7.430  18.550  0.00  0.00    +0.000 A 
ATOM      8  C   UNL     1       2.404   8.395  17.560  0.00  0.00    +0.000 A 
ATOM      9  C   UNL     1       1.516   9.457  17.767  0.00  0.00    +0.000 A 
ATOM     10  C   UNL     1       0.972   9.689  19.030  0.00  0.00    +0.000 A 
ATOM     11  C   UNL     1       1.316   8.826  20.077  0.00  0.00    +0.000 A 
ATOM     12  C   UNL     1       2.071   7.666  19.803  0.00  0.00    +0.000 A 
ATOM     13  C   UNL     1       0.912   9.115  21.503  0.00  0.00    +0.000 C 
ATOM     14  C   UNL     1       0.374  10.529  21.710  0.00  0.00    +0.000 C 
ATOM     15  C   UNL     1      -0.606  10.891  20.601  0.00  0.00    +0.000 C 
ATOM     16  C   UNL     1       0.112  10.905  19.255  0.00  0.00    +0.000 C 
ENDBRANCH   6   7
BRANCH   2  17
ATOM     17  C   UNL     1       3.779   2.449  19.168  0.00  0.00    +0.000 C 
ATOM     18  C   UNL     1       3.585   1.484  17.992  0.00  0.00    +0.000 C 
ATOM     19  C   UNL     1       4.860   1.910  20.110  0.00  0.00    +0.000 C 
ENDBRANCH   2  17
BRANCH   4  20
ATOM     20  C   UNL     1       6.851   5.127  16.587  0.00  0.00    +0.000 C 
ATOM     21  C   UNL     1       7.921   4.455  17.454  0.00  0.00    +0.000 C 
ATOM     22  C   UNL     1       6.770   4.441  15.219  0.00  0.00    +0.000 C 
ENDBRANCH   4  20
BRANCH   1  23
ATOM     23  C   UNL     1       1.971   4.739  19.747  0.00  0.00    +0.000 C 
BRANCH  23  24
ATOM     24  C   UNL     1       0.954   3.743  19.188  0.00  0.00    +0.000 C 
BRANCH  24  25
ATOM     25  C   UNL     1       0.489   2.795  20.299  0.00  0.00    +0.000 C 
BRANCH  25  27
ATOM     26  C   UNL     1       2.019   1.891  22.080  0.00  0.00    +0.000 C 
ATOM     27  C   UNL     1       1.180   3.081  21.628  0.00  0.00    +0.000 C 
ENDBRANCH  25  27
ENDBRANCH  24  25
ENDBRANCH  23  24
ENDBRANCH   1  23
BRANCH   5  28
ATOM     28  C   UNL     1       5.274   7.643  16.946  0.00  0.00    +0.000 C 
BRANCH  28  29
ATOM     29  O   UNL     1       6.632   7.940  17.227  0.00  0.00    +0.000 OA
ATOM     30  H   UNL     1       7.117   7.931  16.386  0.00  0.00    +0.000 HD
ENDBRANCH  28  29
ENDBRANCH   5  28
TORSDOF 9
ENDMDL
MODEL 8
REMARK VINA RESULT:      -6.7      7.522     10.145
REMARK  Name = 
REMARK  14 active torsions:
REMARK  status: ('A' for Active; 'I' for Inactive)
REMARK    1  A    between atoms: C_1  and  C_2
REMARK    2  A    between atoms: C_2  and  C_3
REMARK    3  A    between atoms: C_3  and  C_4
REMARK    4  A    between atoms: C_4  and  C_5
REMARK    5  A    between atoms: C_5  and  C_6
REMARK    6  A    between atoms: C_7  and  C_8
REMARK    7  A    between atoms: C_8  and  C_9
REMARK    8  A    between atoms: C_8  and  C_10
REMARK    9  A    between atoms: C_12  and  C_13
REMARK   10  A    between atoms: C_13  and  C_14
REMARK   11  A    between atoms: C_13  and  C_15
REMARK   12  A    between atoms: C_16  and  C_17
REMARK   13  A    between atoms: C_17  and  O_18
REMARK   14  A    between atoms: C_19  and  C_20
REMARK                            x       y       z     vdW  Elec       q    Type
REMARK                         _______ _______ _______ _____ _____    ______ ____
ROOT
ATOM      1  C   UNL     1      -2.372  12.396  19.196  0.00  0.00    +0.000 A 
ATOM      2  C   UNL     1      -2.998  11.692  18.147  0.00  0.00    +0.000 A 
ATOM      3  N   UNL     1      -4.323  11.419  18.160  0.00  0.00    +0.000 NA
ATOM      4  C   UNL     1      -5.105  11.845  19.182  0.00  0.00    +0.000 A 
ATOM      5  C   UNL     1      -4.591  12.574  20.281  0.00  0.00    +0.000 A 
ATOM      6  C   UNL     1      -3.179  12.867  20.297  0.00  0.00    +0.000 A 
ENDROOT
BRANCH   6   7
ATOM      7  C   UNL     1      -2.553  13.664  21.410  0.00  0.00    +0.000 A 
ATOM      8  C   UNL     1      -2.124  13.067  22.608  0.00  0.00    +0.000 A 
ATOM      9  C   UNL     1      -1.453  13.788  23.603  0.00  0.00    +0.000 A 
ATOM     10  C   UNL     1      -1.326  15.174  23.508  0.00  0.00    +0.000 A 
ATOM     11  C   UNL     1      -1.864  15.822  22.390  0.00  0.00    +0.000 A 
ATOM     12  C   UNL     1      -2.378  15.056  21.323  0.00  0.00    +0.000 A 
ATOM     13  C   UNL     1      -1.923  17.328  22.304  0.00  0.00    +0.000 C 
ATOM     14  C   UNL     1      -1.622  18.028  23.628  0.00  0.00    +0.000 C 
ATOM     15  C   UNL     1      -0.408  17.397  24.296  0.00  0.00    +0.000 C 
ATOM     16  C   UNL     1      -0.702  15.941  24.646  0.00  0.00    +0.000 C 
ENDBRANCH   6   7
BRANCH   2  17
ATOM     17  C   UNL     1      -2.235  11.113  16.957  0.00  0.00    +0.000 C 
ATOM     18  C   UNL     1      -1.700   9.719  17.309  0.00  0.00    +0.000 C 
ATOM     19  C   UNL     1      -3.057  11.043  15.666  0.00  0.00    +0.000 C 
ENDBRANCH   2  17
BRANCH   4  20
ATOM     20  C   UNL     1      -6.592  11.545  18.982  0.00  0.00    +0.000 C 
ATOM     21  C   UNL     1      -7.098  12.198  17.692  0.00  0.00    +0.000 C 
ATOM     22  C   UNL     1      -6.906  10.044  18.974  0.00  0.00    +0.000 C 
ENDBRANCH   4  20
BRANCH   1  23
ATOM     23  C   UNL     1      -0.876  12.669  19.097  0.00  0.00    +0.000 C 
BRANCH  23  24
ATOM     24  C   UNL     1      -0.004  11.726  19.926  0.00  0.00    +0.000 C 
BRANCH  24  25
ATOM     25  C   UNL     1       1.218  12.481  20.461  0.00  0.00    +0.000 C 
BRANCH  25  27
ATOM     26  C   UNL     1       1.713  14.658  21.621  0.00  0.00    +0.000 C 
ATOM     27  C   UNL     1       1.016  13.992  20.439  0.00  0.00    +0.000 C 
ENDBRANCH  25  27
ENDBRANCH  24  25
ENDBRANCH  23  24
ENDBRANCH   1  23
BRANCH   5  28
ATOM     28  C   UNL     1      -5.577  13.130  21.305  0.00  0.00    +0.000 C 
BRANCH  28  29
ATOM     29  O   UNL     1      -5.816  12.338  22.457  0.00  0.00    +0.000 OA
ATOM     30  H   UNL     1      -6.045  11.443  22.159  0.00  0.00    +0.000 HD
ENDBRANCH  28  29
ENDBRANCH   5  28
TORSDOF 9
ENDMDL
MODEL 9
REMARK VINA RESULT:      -6.7      1.917      4.843
REMARK  Name = 
REMARK  14 active torsions:
REMARK  status: ('A' for Active; 'I' for Inactive)
REMARK    1  A    between atoms: C_1  and  C_2
REMARK    2  A    between atoms: C_2  and  C_3
REMARK    3  A    between atoms: C_3  and  C_4
REMARK    4  A    between atoms: C_4  and  C_5
REMARK    5  A    between atoms: C_5  and  C_6
REMARK    6  A    between atoms: C_7  and  C_8
REMARK    7  A    between atoms: C_8  and  C_9
REMARK    8  A    between atoms: C_8  and  C_10
REMARK    9  A    between atoms: C_12  and  C_13
REMARK   10  A    between atoms: C_13  and  C_14
REMARK   11  A    between atoms: C_13  and  C_15
REMARK   12  A    between atoms: C_16  and  C_17
REMARK   13  A    between atoms: C_17  and  O_18
REMARK   14  A    between atoms: C_19  and  C_20
REMARK                            x       y       z     vdW  Elec       q    Type
REMARK                         _______ _______ _______ _____ _____    ______ ____
ROOT
ATOM      1  C   UNL     1       3.269   4.600  19.671  0.00  0.00    +0.000 A 
ATOM      2  C   UNL     1       4.110   3.542  19.270  0.00  0.00    +0.000 A 
ATOM      3  N   UNL     1       5.002   3.680  18.264  0.00  0.00    +0.000 NA
ATOM      4  C   UNL     1       5.138   4.865  17.619  0.00  0.00    +0.000 A 
ATOM      5  C   UNL     1       4.360   6.001  17.946  0.00  0.00    +0.000 A 
ATOM      6  C   UNL     1       3.392   5.877  19.007  0.00  0.00    +0.000 A 
ENDROOT
BRANCH   6   7
ATOM      7  C   UNL     1       2.545   7.042  19.441  0.00  0.00    +0.000 A 
ATOM      8  C   UNL     1       2.191   7.251  20.786  0.00  0.00    +0.000 A 
ATOM      9  C   UNL     1       1.487   8.386  21.205  0.00  0.00    +0.000 A 
ATOM     10  C   UNL     1       0.969   9.282  20.270  0.00  0.00    +0.000 A 
ATOM     11  C   UNL     1       1.185   9.032  18.910  0.00  0.00    +0.000 A 
ATOM     12  C   UNL     1       2.042   7.981  18.523  0.00  0.00    +0.000 A 
ATOM     13  C   UNL     1       0.507   9.854  17.839  0.00  0.00    +0.000 C 
ATOM     14  C   UNL     1      -0.614  10.745  18.372  0.00  0.00    +0.000 C 
ATOM     15  C   UNL     1      -0.167  11.455  19.643  0.00  0.00    +0.000 C 
ATOM     16  C   UNL     1       0.116  10.433  20.740  0.00  0.00    +0.000 C 
ENDBRANCH   6   7
BRANCH   2  17
ATOM     17  C   UNL     1       4.035   2.140  19.875  0.00  0.00    +0.000 C 
ATOM     18  C   UNL     1       3.932   1.096  18.757  0.00  0.00    +0.000 C 
ATOM     19  C   UNL     1       5.209   1.799  20.798  0.00  0.00    +0.000 C 
ENDBRANCH   2  17
BRANCH   4  20
ATOM     20  C   UNL     1       6.266   4.875  16.585  0.00  0.00    +0.000 C 
ATOM     21  C   UNL     1       7.606   4.561  17.257  0.00  0.00    +0.000 C 
ATOM     22  C   UNL     1       6.020   3.911  15.419  0.00  0.00    +0.000 C 
ENDBRANCH   4  20
BRANCH   1  23
ATOM     23  C   UNL     1       2.298   4.362  20.821  0.00  0.00    +0.000 C 
BRANCH  23  24
ATOM     24  C   UNL     1       0.854   4.105  20.388  0.00  0.00    +0.000 C 
BRANCH  24  25
ATOM     25  C   UNL     1       0.658   2.615  20.086  0.00  0.00    +0.000 C 
BRANCH  25  27
ATOM     26  C   UNL     1       0.882   3.593  17.779  0.00  0.00    +0.000 C 
ATOM     27  C   UNL     1       0.596   2.333  18.589  0.00  0.00    +0.000 C 
ENDBRANCH  25  27
ENDBRANCH  24  25
ENDBRANCH  23  24
ENDBRANCH   1  23
BRANCH   5  28
ATOM     28  C   UNL     1       4.689   7.325  17.258  0.00  0.00    +0.000 C 
BRANCH  28  29
ATOM     29  O   UNL     1       6.015   7.806  17.400  0.00  0.00    +0.000 OA
ATOM     30  H   UNL     1       6.101   8.178  18.293  0.00  0.00    +0.000 HD
ENDBRANCH  28  29
ENDBRANCH   5  28
TORSDOF 9
ENDMDL
