MODEL 1
REMARK VINA RESULT:      -6.0      0.000      0.000
REMARK  Name = 
REMARK  7 active torsions:
REMARK  status: ('A' for Active; 'I' for Inactive)
REMARK    1  A    between atoms: C_1  and  C_2
REMARK    2  A    between atoms: C_2  and  O_3
REMARK    3  A    between atoms: O_3  and  C_4
REMARK    4  A    between atoms: C_6  and  O_7
REMARK    5  A    between atoms: O_7  and  C_8
REMARK    6  A    between atoms: C_11  and  C_12
REMARK    7  A    between atoms: C_12  and  C_13
REMARK                            x       y       z     vdW  Elec       q    Type
REMARK                         _______ _______ _______ _____ _____    ______ ____
ROOT
ATOM      1  C   UNL     1       6.538   4.868  17.410  0.00  0.00    +0.000 A 
ATOM      2  C   UNL     1       5.835   4.517  18.578  0.00  0.00    +0.000 A 
ATOM      3  C   UNL     1       4.564   3.946  18.522  0.00  0.00    +0.000 A 
ATOM      4  C   UNL     1       3.947   3.784  17.289  0.00  0.00    +0.000 A 
ATOM      5  C   UNL     1       4.641   4.097  16.117  0.00  0.00    +0.000 A 
ATOM      6  C   UNL     1       5.953   4.605  16.158  0.00  0.00    +0.000 A 
ENDROOT
BRANCH   6   7
ATOM      7  C   UNL     1       6.704   4.701  14.870  0.00  0.00    +0.000 C 
ATOM      8  C   UNL     1       6.252   3.891  13.676  0.00  0.00    +0.000 C 
ATOM      9  O   UNL     1       7.675   5.448  14.774  0.00  0.00    +0.000 OA
ENDBRANCH   6   7
BRANCH   3  10
ATOM     10  O   UNL     1       4.003   3.597  19.720  0.00  0.00    +0.000 OA
ATOM     11  C   UNL     1       3.128   2.475  19.667  0.00  0.00    +0.000 C 
ENDBRANCH   3  10
BRANCH   1  12
ATOM     12  O   UNL     1       7.774   5.385  17.684  0.00  0.00    +0.000 OA
BRANCH  12  14
ATOM     13  C   UNL     1       7.692   7.781  17.582  0.00  0.00    +0.000 C 
ATOM     14  C   UNL     1       7.857   6.566  18.481  0.00  0.00    +0.000 C 
ENDBRANCH  12  14
ENDBRANCH   1  12
TORSDOF 4
ENDMDL
MODEL 2
REMARK VINA RESULT:      -5.9      1.770      1.793
REMARK  Name = 
REMARK  7 active torsions:
REMARK  status: ('A' for Active; 'I' for Inactive)
REMARK    1  A    between atoms: C_1  and  C_2
REMARK    2  A    between atoms: C_2  and  O_3
REMARK    3  A    between atoms: O_3  and  C_4
REMARK    4  A    between atoms: C_6  and  O_7
REMARK    5  A    between atoms: O_7  and  C_8
REMARK    6  A    between atoms: C_11  and  C_12
REMARK    7  A    between atoms: C_12  and  C_13
REMARK                            x       y       z     vdW  Elec       q    Type
REMARK                         _______ _______ _______ _____ _____    ______ ____
ROOT
ATOM      1  C   UNL     1       5.470   6.240  16.867  0.00  0.00    +0.000 A 
ATOM      2  C   UNL     1       4.464   6.570  17.794  0.00  0.00    +0.000 A 
ATOM      3  C   UNL     1       3.446   5.673  18.116  0.00  0.00    +0.000 A 
ATOM      4  C   UNL     1       3.382   4.453  17.456  0.00  0.00    +0.000 A 
ATOM      5  C   UNL     1       4.390   4.096  16.556  0.00  0.00    +0.000 A 
ATOM      6  C   UNL     1       5.463   4.963  16.278  0.00  0.00    +0.000 A 
ENDROOT
BRANCH   6   7
ATOM      7  C   UNL     1       6.608   4.423  15.485  0.00  0.00    +0.000 C 
ATOM      8  C   UNL     1       6.390   3.989  14.054  0.00  0.00    +0.000 C 
ATOM      9  O   UNL     1       7.727   4.347  15.988  0.00  0.00    +0.000 OA
ENDBRANCH   6   7
BRANCH   3  10
ATOM     10  O   UNL     1       2.556   6.083  19.071  0.00  0.00    +0.000 OA
ATOM     11  C   UNL     1       2.453   5.225  20.203  0.00  0.00    +0.000 C 
ENDBRANCH   3  10
BRANCH   1  12
ATOM     12  O   UNL     1       6.385   7.246  16.716  0.00  0.00    +0.000 OA
BRANCH  12  14
ATOM     13  C   UNL     1       7.921   8.771  17.750  0.00  0.00    +0.000 C 
ATOM     14  C   UNL     1       7.473   7.323  17.636  0.00  0.00    +0.000 C 
ENDBRANCH  12  14
ENDBRANCH   1  12
TORSDOF 4
ENDMDL
MODEL 3
REMARK VINA RESULT:      -5.9      1.707      4.554
REMARK  Name = 
REMARK  7 active torsions:
REMARK  status: ('A' for Active; 'I' for Inactive)
REMARK    1  A    between atoms: C_1  and  C_2
REMARK    2  A    between atoms: C_2  and  O_3
REMARK    3  A    between atoms: O_3  and  C_4
REMARK    4  A    between atoms: C_6  and  O_7
REMARK    5  A    between atoms: O_7  and  C_8
REMARK    6  A    between atoms: C_11  and  C_12
REMARK    7  A    between atoms: C_12  and  C_13
REMARK                            x       y       z     vdW  Elec       q    Type
REMARK                         _______ _______ _______ _____ _____    ______ ____
ROOT
ATOM      1  C   UNL     1       4.915   4.904  18.295  0.00  0.00    +0.000 A 
ATOM      2  C   UNL     1       5.939   5.815  17.977  0.00  0.00    +0.000 A 
ATOM      3  C   UNL     1       6.623   5.750  16.764  0.00  0.00    +0.000 A 
ATOM      4  C   UNL     1       6.337   4.720  15.878  0.00  0.00    +0.000 A 
ATOM      5  C   UNL     1       5.302   3.825  16.162  0.00  0.00    +0.000 A 
ATOM      6  C   UNL     1       4.554   3.926  17.350  0.00  0.00    +0.000 A 
ENDROOT
BRANCH   6   7
ATOM      7  C   UNL     1       3.329   3.081  17.477  0.00  0.00    +0.000 C 
ATOM      8  C   UNL     1       3.404   1.754  18.198  0.00  0.00    +0.000 C 
ATOM      9  O   UNL     1       2.259   3.468  17.012  0.00  0.00    +0.000 OA
ENDBRANCH   6   7
BRANCH   3  10
ATOM     10  O   UNL     1       7.561   6.721  16.544  0.00  0.00    +0.000 OA
ATOM     11  C   UNL     1       7.636   7.721  17.556  0.00  0.00    +0.000 C 
ENDBRANCH   3  10
BRANCH   1  12
ATOM     12  O   UNL     1       4.355   5.158  19.517  0.00  0.00    +0.000 OA
BRANCH  12  14
ATOM     13  C   UNL     1       2.125   5.198  20.400  0.00  0.00    +0.000 C 
ATOM     14  C   UNL     1       3.163   5.939  19.572  0.00  0.00    +0.000 C 
ENDBRANCH  12  14
ENDBRANCH   1  12
TORSDOF 4
ENDMDL
MODEL 4
REMARK VINA RESULT:      -5.8      1.559      3.282
REMARK  Name = 
REMARK  7 active torsions:
REMARK  status: ('A' for Active; 'I' for Inactive)
REMARK    1  A    between atoms: C_1  and  C_2
REMARK    2  A    between atoms: C_2  and  O_3
REMARK    3  A    between atoms: O_3  and  C_4
REMARK    4  A    between atoms: C_6  and  O_7
REMARK    5  A    between atoms: O_7  and  C_8
REMARK    6  A    between atoms: C_11  and  C_12
REMARK    7  A    between atoms: C_12  and  C_13
REMARK                            x       y       z     vdW  Elec       q    Type
REMARK                         _______ _______ _______ _____ _____    ______ ____
ROOT
ATOM      1  C   UNL     1       5.152   4.126  17.087  0.00  0.00    +0.000 A 
ATOM      2  C   UNL     1       3.754   3.991  17.179  0.00  0.00    +0.000 A 
ATOM      3  C   UNL     1       3.045   4.471  18.279  0.00  0.00    +0.000 A 
ATOM      4  C   UNL     1       3.740   5.031  19.342  0.00  0.00    +0.000 A 
ATOM      5  C   UNL     1       5.124   5.203  19.256  0.00  0.00    +0.000 A 
ATOM      6  C   UNL     1       5.842   4.790  18.118  0.00  0.00    +0.000 A 
ENDROOT
BRANCH   6   7
ATOM      7  C   UNL     1       7.272   5.208  18.005  0.00  0.00    +0.000 C 
ATOM      8  C   UNL     1       7.627   6.677  18.018  0.00  0.00    +0.000 C 
ATOM      9  O   UNL     1       8.159   4.361  17.920  0.00  0.00    +0.000 OA
ENDBRANCH   6   7
BRANCH   3  10
ATOM     10  O   UNL     1       1.685   4.331  18.232  0.00  0.00    +0.000 OA
ATOM     11  C   UNL     1       1.158   3.312  19.075  0.00  0.00    +0.000 C 
ENDBRANCH   3  10
BRANCH   1  12
ATOM     12  O   UNL     1       5.646   3.616  15.918  0.00  0.00    +0.000 OA
BRANCH  12  14
ATOM     13  C   UNL     1       6.949   4.833  14.314  0.00  0.00    +0.000 C 
ATOM     14  C   UNL     1       5.552   4.406  14.734  0.00  0.00    +0.000 C 
ENDBRANCH  12  14
ENDBRANCH   1  12
TORSDOF 4
ENDMDL
MODEL 5
REMARK VINA RESULT:      -5.8      1.644      2.251
REMARK  Name = 
REMARK  7 active torsions:
REMARK  status: ('A' for Active; 'I' for Inactive)
REMARK    1  A    between atoms: C_1  and  C_2
REMARK    2  A    between atoms: C_2  and  O_3
REMARK    3  A    between atoms: O_3  and  C_4
REMARK    4  A    between atoms: C_6  and  O_7
REMARK    5  A    between atoms: O_7  and  C_8
REMARK    6  A    between atoms: C_11  and  C_12
REMARK    7  A    between atoms: C_12  and  C_13
REMARK                            x       y       z     vdW  Elec       q    Type
REMARK                         _______ _______ _______ _____ _____    ______ ____
ROOT
ATOM      1  C   UNL     1       4.792   3.950  18.586  0.00  0.00    +0.000 A 
ATOM      2  C   UNL     1       3.991   3.278  19.528  0.00  0.00    +0.000 A 
ATOM      3  C   UNL     1       2.663   2.952  19.257  0.00  0.00    +0.000 A 
ATOM      4  C   UNL     1       2.094   3.362  18.058  0.00  0.00    +0.000 A 
ATOM      5  C   UNL     1       2.882   4.001  17.097  0.00  0.00    +0.000 A 
ATOM      6  C   UNL     1       4.244   4.270  17.330  0.00  0.00    +0.000 A 
ENDROOT
BRANCH   6   7
ATOM      7  C   UNL     1       5.066   4.748  16.179  0.00  0.00    +0.000 C 
ATOM      8  C   UNL     1       5.931   3.770  15.416  0.00  0.00    +0.000 C 
ATOM      9  O   UNL     1       5.030   5.929  15.840  0.00  0.00    +0.000 OA
ENDBRANCH   6   7
BRANCH   3  10
ATOM     10  O   UNL     1       2.001   2.251  20.228  0.00  0.00    +0.000 OA
ATOM     11  C   UNL     1       2.107   2.797  21.539  0.00  0.00    +0.000 C 
ENDBRANCH   3  10
BRANCH   1  12
ATOM     12  O   UNL     1       6.068   4.149  19.037  0.00  0.00    +0.000 OA
BRANCH  12  14
ATOM     13  C   UNL     1       7.761   5.811  18.685  0.00  0.00    +0.000 C 
ATOM     14  C   UNL     1       6.464   5.470  19.401  0.00  0.00    +0.000 C 
ENDBRANCH  12  14
ENDBRANCH   1  12
TORSDOF 4
ENDMDL
MODEL 6
REMARK VINA RESULT:      -5.8      1.140      1.215
REMARK  Name = 
REMARK  7 active torsions:
REMARK  status: ('A' for Active; 'I' for Inactive)
REMARK    1  A    between atoms: C_1  and  C_2
REMARK    2  A    between atoms: C_2  and  O_3
REMARK    3  A    between atoms: O_3  and  C_4
REMARK    4  A    between atoms: C_6  and  O_7
REMARK    5  A    between atoms: O_7  and  C_8
REMARK    6  A    between atoms: C_11  and  C_12
REMARK    7  A    between atoms: C_12  and  C_13
REMARK                            x       y       z     vdW  Elec       q    Type
REMARK                         _______ _______ _______ _____ _____    ______ ____
ROOT
ATOM      1  C   UNL     1       6.023   4.425  18.151  0.00  0.00    +0.000 A 
ATOM      2  C   UNL     1       5.038   4.218  19.133  0.00  0.00    +0.000 A 
ATOM      3  C   UNL     1       3.704   3.997  18.794  0.00  0.00    +0.000 A 
ATOM      4  C   UNL     1       3.325   4.051  17.459  0.00  0.00    +0.000 A 
ATOM      5  C   UNL     1       4.295   4.223  16.467  0.00  0.00    +0.000 A 
ATOM      6  C   UNL     1       5.655   4.374  16.794  0.00  0.00    +0.000 A 
ENDROOT
BRANCH   6   7
ATOM      7  C   UNL     1       6.649   4.327  15.680  0.00  0.00    +0.000 C 
ATOM      8  C   UNL     1       6.202   3.923  14.293  0.00  0.00    +0.000 C 
ATOM      9  O   UNL     1       7.822   4.632  15.883  0.00  0.00    +0.000 OA
ENDBRANCH   6   7
BRANCH   3  10
ATOM     10  O   UNL     1       2.846   3.754  19.832  0.00  0.00    +0.000 OA
ATOM     11  C   UNL     1       2.458   4.909  20.570  0.00  0.00    +0.000 C 
ENDBRANCH   3  10
BRANCH   1  12
ATOM     12  O   UNL     1       7.268   4.595  18.692  0.00  0.00    +0.000 OA
BRANCH  12  14
ATOM     13  C   UNL     1       7.870   6.897  18.387  0.00  0.00    +0.000 C 
ATOM     14  C   UNL     1       7.547   5.806  19.394  0.00  0.00    +0.000 C 
ENDBRANCH  12  14
ENDBRANCH   1  12
TORSDOF 4
ENDMDL
MODEL 7
REMARK VINA RESULT:      -5.7      1.521      1.973
REMARK  Name = 
REMARK  7 active torsions:
REMARK  status: ('A' for Active; 'I' for Inactive)
REMARK    1  A    between atoms: C_1  and  C_2
REMARK    2  A    between atoms: C_2  and  O_3
REMARK    3  A    between atoms: O_3  and  C_4
REMARK    4  A    between atoms: C_6  and  O_7
REMARK    5  A    between atoms: O_7  and  C_8
REMARK    6  A    between atoms: C_11  and  C_12
REMARK    7  A    between atoms: C_12  and  C_13
REMARK                            x       y       z     vdW  Elec       q    Type
REMARK                         _______ _______ _______ _____ _____    ______ ____
ROOT
ATOM      1  C   UNL     1       5.275   4.031  18.458  0.00  0.00    +0.000 A 
ATOM      2  C   UNL     1       4.559   3.498  19.546  0.00  0.00    +0.000 A 
ATOM      3  C   UNL     1       3.223   3.120  19.425  0.00  0.00    +0.000 A 
ATOM      4  C   UNL     1       2.562   3.339  18.224  0.00  0.00    +0.000 A 
ATOM      5  C   UNL     1       3.264   3.837  17.123  0.00  0.00    +0.000 A 
ATOM      6  C   UNL     1       4.633   4.153  17.212  0.00  0.00    +0.000 A 
ENDROOT
BRANCH   6   7
ATOM      7  C   UNL     1       5.360   4.464  15.945  0.00  0.00    +0.000 C 
ATOM      8  C   UNL     1       5.337   5.871  15.393  0.00  0.00    +0.000 C 
ATOM      9  O   UNL     1       5.990   3.584  15.362  0.00  0.00    +0.000 OA
ENDBRANCH   6   7
BRANCH   3  10
ATOM     10  O   UNL     1       2.647   2.565  20.535  0.00  0.00    +0.000 OA
ATOM     11  C   UNL     1       2.076   3.500  21.445  0.00  0.00    +0.000 C 
ENDBRANCH   3  10
BRANCH   1  12
ATOM     12  O   UNL     1       6.576   4.310  18.780  0.00  0.00    +0.000 OA
BRANCH  12  14
ATOM     13  C   UNL     1       7.649   6.405  18.319  0.00  0.00    +0.000 C 
ATOM     14  C   UNL     1       6.881   5.585  19.342  0.00  0.00    +0.000 C 
ENDBRANCH  12  14
ENDBRANCH   1  12
TORSDOF 4
ENDMDL
MODEL 8
REMARK VINA RESULT:      -5.7      1.261      1.479
REMARK  Name = 
REMARK  7 active torsions:
REMARK  status: ('A' for Active; 'I' for Inactive)
REMARK    1  A    between atoms: C_1  and  C_2
REMARK    2  A    between atoms: C_2  and  O_3
REMARK    3  A    between atoms: O_3  and  C_4
REMARK    4  A    between atoms: C_6  and  O_7
REMARK    5  A    between atoms: O_7  and  C_8
REMARK    6  A    between atoms: C_11  and  C_12
REMARK    7  A    between atoms: C_12  and  C_13
REMARK                            x       y       z     vdW  Elec       q    Type
REMARK                         _______ _______ _______ _____ _____    ______ ____
ROOT
ATOM      1  C   UNL     1       5.622   4.469  18.237  0.00  0.00    +0.000 A 
ATOM      2  C   UNL     1       4.977   3.917  19.359  0.00  0.00    +0.000 A 
ATOM      3  C   UNL     1       3.597   3.716  19.382  0.00  0.00    +0.000 A 
ATOM      4  C   UNL     1       2.833   4.136  18.301  0.00  0.00    +0.000 A 
ATOM      5  C   UNL     1       3.459   4.656  17.166  0.00  0.00    +0.000 A 
ATOM      6  C   UNL     1       4.858   4.795  17.102  0.00  0.00    +0.000 A 
ENDROOT
BRANCH   6   7
ATOM      7  C   UNL     1       5.464   5.145  15.782  0.00  0.00    +0.000 C 
ATOM      8  C   UNL     1       6.023   4.051  14.900  0.00  0.00    +0.000 C 
ATOM      9  O   UNL     1       5.495   6.314  15.406  0.00  0.00    +0.000 OA
ENDBRANCH   6   7
BRANCH   3  10
ATOM     10  O   UNL     1       3.090   3.123  20.505  0.00  0.00    +0.000 OA
ATOM     11  C   UNL     1       1.828   2.486  20.328  0.00  0.00    +0.000 C 
ENDBRANCH   3  10
BRANCH   1  12
ATOM     12  O   UNL     1       6.977   4.556  18.408  0.00  0.00    +0.000 OA
BRANCH  12  14
ATOM     13  C   UNL     1       7.763   6.799  18.088  0.00  0.00    +0.000 C 
ATOM     14  C   UNL     1       7.507   5.689  19.095  0.00  0.00    +0.000 C 
ENDBRANCH  12  14
ENDBRANCH   1  12
TORSDOF 4
ENDMDL
MODEL 9
REMARK VINA RESULT:      -5.7      1.890      3.354
REMARK  Name = 
REMARK  7 active torsions:
REMARK  status: ('A' for Active; 'I' for Inactive)
REMARK    1  A    between atoms: C_1  and  C_2
REMARK    2  A    between atoms: C_2  and  O_3
REMARK    3  A    between atoms: O_3  and  C_4
REMARK    4  A    between atoms: C_6  and  O_7
REMARK    5  A    between atoms: O_7  and  C_8
REMARK    6  A    between atoms: C_11  and  C_12
REMARK    7  A    between atoms: C_12  and  C_13
REMARK                            x       y       z     vdW  Elec       q    Type
REMARK                         _______ _______ _______ _____ _____    ______ ____
ROOT
ATOM      1  C   UNL     1       4.832   4.345  16.895  0.00  0.00    +0.000 A 
ATOM      2  C   UNL     1       3.555   3.754  16.910  0.00  0.00    +0.000 A 
ATOM      3  C   UNL     1       2.546   4.218  17.753  0.00  0.00    +0.000 A 
ATOM      4  C   UNL     1       2.827   5.241  18.648  0.00  0.00    +0.000 A 
ATOM      5  C   UNL     1       4.079   5.862  18.625  0.00  0.00    +0.000 A 
ATOM      6  C   UNL     1       5.081   5.451  17.728  0.00  0.00    +0.000 A 
ENDROOT
BRANCH   6   7
ATOM      7  C   UNL     1       6.303   6.303  17.610  0.00  0.00    +0.000 C 
ATOM      8  C   UNL     1       7.483   6.052  18.521  0.00  0.00    +0.000 C 
ATOM      9  O   UNL     1       6.357   7.193  16.764  0.00  0.00    +0.000 OA
ENDBRANCH   6   7
BRANCH   3  10
ATOM     10  O   UNL     1       1.330   3.601  17.640  0.00  0.00    +0.000 OA
ATOM     11  C   UNL     1       1.024   2.687  18.689  0.00  0.00    +0.000 C 
ENDBRANCH   3  10
BRANCH   1  12
ATOM     12  O   UNL     1       5.663   3.759  15.980  0.00  0.00    +0.000 OA
BRANCH  12  14
ATOM     13  C   UNL     1       6.956   4.774  14.232  0.00  0.00    +0.000 C 
ATOM     14  C   UNL     1       5.604   4.200  14.624  0.00  0.00    +0.000 C 
ENDBRANCH  12  14
ENDBRANCH   1  12
TORSDOF 4
ENDMDL
