MODEL 1
REMARK VINA RESULT:      -7.4      0.000      0.000
REMARK  Name = 
REMARK  7 active torsions:
REMARK  status: ('A' for Active; 'I' for Inactive)
REMARK    1  A    between atoms: C_2  and  C_3
REMARK    2  A    between atoms: C_2  and  C_4
REMARK    3  A    between atoms: C_8  and  C_9
REMARK    4  A    between atoms: C_9  and  C_10
REMARK    5  A    between atoms: C_9  and  C_11
REMARK    6  A    between atoms: C_9  and  N_12
REMARK    7  A    between atoms: C_18  and  C_19
REMARK                            x       y       z     vdW  Elec       q    Type
REMARK                         _______ _______ _______ _____ _____    ______ ____
ROOT
ATOM      1  C   UNL     1       2.756   4.439  18.899  0.00  0.00    +0.000 C 
ATOM      2  C   UNL     1       1.692   3.829  17.967  0.00  0.00    +0.000 C 
ATOM      3  C   UNL     1       2.984   3.531  20.128  0.00  0.00    +0.000 C 
ENDROOT
BRANCH   1   4
ATOM      4  N   UNL     1       2.349   5.764  19.392  0.00  0.00    +0.000 N 
ATOM      5  C   UNL     1       2.190   6.876  18.605  0.00  0.00    +0.000 C 
ATOM      6  O   UNL     1       2.407   6.876  17.398  0.00  0.00    +0.000 OA
ATOM      7  N   UNL     1       1.788   8.019  19.288  0.00  0.00    +0.000 N 
ATOM      8  C   UNL     1       1.684   8.141  20.741  0.00  0.00    +0.000 C 
ATOM      9  C   UNL     1       0.476   8.984  21.135  0.00  0.00    +0.000 C 
ATOM     10  C   UNL     1       0.477  10.345  20.432  0.00  0.00    +0.000 C 
ATOM     11  C   UNL     1      -0.802  11.110  20.760  0.00  0.00    +0.000 C 
ATOM     12  C   UNL     1       0.630  10.169  18.915  0.00  0.00    +0.000 C 
ATOM     13  C   UNL     1       1.830   9.292  18.571  0.00  0.00    +0.000 C 
ATOM     14  H   UNL     1       1.684   5.701  20.144  0.00  0.00    +0.000 HD
ENDBRANCH   1   4
BRANCH   1  19
ATOM     15  C   UNL     1       6.369   5.465  17.852  0.00  0.00    +0.000 A 
ATOM     16  C   UNL     1       6.442   4.911  16.572  0.00  0.00    +0.000 A 
ATOM     17  C   UNL     1       5.362   4.195  16.045  0.00  0.00    +0.000 A 
ATOM     18  C   UNL     1       4.187   4.036  16.788  0.00  0.00    +0.000 A 
ATOM     19  C   UNL     1       4.060   4.599  18.069  0.00  0.00    +0.000 A 
ATOM     20  C   UNL     1       5.177   5.288  18.580  0.00  0.00    +0.000 A 
BRANCH  15  22
ATOM     21  C   UNL     1       8.178   5.841  19.501  0.00  0.00    +0.000 C 
ATOM     22  C   UNL     1       7.486   6.262  18.424  0.00  0.00    +0.000 C 
ATOM     23  C   UNL     1       7.818   7.575  17.768  0.00  0.00    +0.000 C 
ENDBRANCH  15  22
ENDBRANCH   1  19
TORSDOF 3
ENDMDL
MODEL 2
REMARK VINA RESULT:      -7.2      4.185      6.297
REMARK  Name = 
REMARK  7 active torsions:
REMARK  status: ('A' for Active; 'I' for Inactive)
REMARK    1  A    between atoms: C_2  and  C_3
REMARK    2  A    between atoms: C_2  and  C_4
REMARK    3  A    between atoms: C_8  and  C_9
REMARK    4  A    between atoms: C_9  and  C_10
REMARK    5  A    between atoms: C_9  and  C_11
REMARK    6  A    between atoms: C_9  and  N_12
REMARK    7  A    between atoms: C_18  and  C_19
REMARK                            x       y       z     vdW  Elec       q    Type
REMARK                         _______ _______ _______ _____ _____    ______ ____
ROOT
ATOM      1  C   UNL     1       6.732   5.236  16.305  0.00  0.00    +0.000 C 
ATOM      2  C   UNL     1       7.978   4.680  17.020  0.00  0.00    +0.000 C 
ATOM      3  C   UNL     1       6.555   6.739  16.615  0.00  0.00    +0.000 C 
ENDROOT
BRANCH   1   4
ATOM      4  N   UNL     1       5.507   4.544  16.734  0.00  0.00    +0.000 N 
ATOM      5  C   UNL     1       5.316   3.986  17.973  0.00  0.00    +0.000 C 
ATOM      6  O   UNL     1       6.179   3.985  18.843  0.00  0.00    +0.000 OA
ATOM      7  N   UNL     1       4.072   3.393  18.157  0.00  0.00    +0.000 N 
ATOM      8  C   UNL     1       3.066   3.197  17.115  0.00  0.00    +0.000 C 
ATOM      9  C   UNL     1       1.661   3.420  17.661  0.00  0.00    +0.000 C 
ATOM     10  C   UNL     1       1.389   2.565  18.903  0.00  0.00    +0.000 C 
ATOM     11  C   UNL     1       0.019   2.900  19.487  0.00  0.00    +0.000 C 
ATOM     12  C   UNL     1       2.491   2.771  19.951  0.00  0.00    +0.000 C 
ATOM     13  C   UNL     1       3.880   2.571  19.352  0.00  0.00    +0.000 C 
ATOM     14  H   UNL     1       4.678   4.964  16.347  0.00  0.00    +0.000 HD
ENDBRANCH   1   4
BRANCH   1  19
ATOM     15  C   UNL     1       6.201   3.926  12.671  0.00  0.00    +0.000 A 
ATOM     16  C   UNL     1       7.269   4.536  12.011  0.00  0.00    +0.000 A 
ATOM     17  C   UNL     1       8.146   5.378  12.702  0.00  0.00    +0.000 A 
ATOM     18  C   UNL     1       7.972   5.609  14.072  0.00  0.00    +0.000 A 
ATOM     19  C   UNL     1       6.927   4.995  14.782  0.00  0.00    +0.000 A 
ATOM     20  C   UNL     1       6.047   4.178  14.048  0.00  0.00    +0.000 A 
BRANCH  15  22
ATOM     21  C   UNL     1       3.998   3.338  11.703  0.00  0.00    +0.000 C 
ATOM     22  C   UNL     1       5.274   2.998  11.970  0.00  0.00    +0.000 C 
ATOM     23  C   UNL     1       5.804   1.647  11.575  0.00  0.00    +0.000 C 
ENDBRANCH  15  22
ENDBRANCH   1  19
TORSDOF 3
ENDMDL
MODEL 3
REMARK VINA RESULT:      -7.2      0.959      2.224
REMARK  Name = 
REMARK  7 active torsions:
REMARK  status: ('A' for Active; 'I' for Inactive)
REMARK    1  A    between atoms: C_2  and  C_3
REMARK    2  A    between atoms: C_2  and  C_4
REMARK    3  A    between atoms: C_8  and  C_9
REMARK    4  A    between atoms: C_9  and  C_10
REMARK    5  A    between atoms: C_9  and  C_11
REMARK    6  A    between atoms: C_9  and  N_12
REMARK    7  A    between atoms: C_18  and  C_19
REMARK                            x       y       z     vdW  Elec       q    Type
REMARK                         _______ _______ _______ _____ _____    ______ ____
ROOT
ATOM      1  C   UNL     1       3.182   4.428  18.707  0.00  0.00    +0.000 C 
ATOM      2  C   UNL     1       2.284   3.866  17.589  0.00  0.00    +0.000 C 
ATOM      3  C   UNL     1       3.232   3.451  19.903  0.00  0.00    +0.000 C 
ENDROOT
BRANCH   1   4
ATOM      4  N   UNL     1       2.683   5.719  19.206  0.00  0.00    +0.000 N 
ATOM      5  C   UNL     1       2.543   6.851  18.444  0.00  0.00    +0.000 C 
ATOM      6  O   UNL     1       2.858   6.901  17.260  0.00  0.00    +0.000 OA
ATOM      7  N   UNL     1       2.040   7.953  19.127  0.00  0.00    +0.000 N 
ATOM      8  C   UNL     1       1.813   8.021  20.569  0.00  0.00    +0.000 C 
ATOM      9  C   UNL     1       0.545   8.803  20.888  0.00  0.00    +0.000 C 
ATOM     10  C   UNL     1       0.548  10.187  20.232  0.00  0.00    +0.000 C 
ATOM     11  C   UNL     1      -0.784  10.891  20.476  0.00  0.00    +0.000 C 
ATOM     12  C   UNL     1       0.831  10.070  18.728  0.00  0.00    +0.000 C 
ATOM     13  C   UNL     1       2.089   9.251  18.456  0.00  0.00    +0.000 C 
ATOM     14  H   UNL     1       1.961   5.605  19.898  0.00  0.00    +0.000 HD
ENDBRANCH   1   4
BRANCH   1  19
ATOM     15  C   UNL     1       6.092   4.719  16.128  0.00  0.00    +0.000 A 
ATOM     16  C   UNL     1       7.161   5.033  16.969  0.00  0.00    +0.000 A 
ATOM     17  C   UNL     1       6.965   5.174  18.347  0.00  0.00    +0.000 A 
ATOM     18  C   UNL     1       5.694   4.989  18.903  0.00  0.00    +0.000 A 
ATOM     19  C   UNL     1       4.594   4.646  18.099  0.00  0.00    +0.000 A 
ATOM     20  C   UNL     1       4.823   4.541  16.713  0.00  0.00    +0.000 A 
BRANCH  15  22
ATOM     21  C   UNL     1       5.390   3.834  13.924  0.00  0.00    +0.000 C 
ATOM     22  C   UNL     1       6.276   4.526  14.665  0.00  0.00    +0.000 C 
ATOM     23  C   UNL     1       7.504   5.122  14.031  0.00  0.00    +0.000 C 
ENDBRANCH  15  22
ENDBRANCH   1  19
TORSDOF 3
ENDMDL
MODEL 4
REMARK VINA RESULT:      -6.9      1.248      1.745
REMARK  Name = 
REMARK  7 active torsions:
REMARK  status: ('A' for Active; 'I' for Inactive)
REMARK    1  A    between atoms: C_2  and  C_3
REMARK    2  A    between atoms: C_2  and  C_4
REMARK    3  A    between atoms: C_8  and  C_9
REMARK    4  A    between atoms: C_9  and  C_10
REMARK    5  A    between atoms: C_9  and  C_11
REMARK    6  A    between atoms: C_9  and  N_12
REMARK    7  A    between atoms: C_18  and  C_19
REMARK                            x       y       z     vdW  Elec       q    Type
REMARK                         _______ _______ _______ _____ _____    ______ ____
ROOT
ATOM      1  C   UNL     1       2.592   5.170  18.612  0.00  0.00    +0.000 C 
ATOM      2  C   UNL     1       1.594   4.279  17.849  0.00  0.00    +0.000 C 
ATOM      3  C   UNL     1       2.650   4.766  20.102  0.00  0.00    +0.000 C 
ENDROOT
BRANCH   1   4
ATOM      4  N   UNL     1       2.209   6.590  18.548  0.00  0.00    +0.000 N 
ATOM      5  C   UNL     1       1.745   7.323  19.610  0.00  0.00    +0.000 C 
ATOM      6  O   UNL     1       1.572   6.845  20.726  0.00  0.00    +0.000 OA
ATOM      7  N   UNL     1       1.456   8.651  19.317  0.00  0.00    +0.000 N 
ATOM      8  C   UNL     1       1.466   9.243  17.980  0.00  0.00    +0.000 C 
ATOM      9  C   UNL     1       2.019  10.663  18.013  0.00  0.00    +0.000 C 
ATOM     10  C   UNL     1       1.283  11.538  19.033  0.00  0.00    +0.000 C 
ATOM     11  C   UNL     1       1.939  12.913  19.121  0.00  0.00    +0.000 C 
ATOM     12  C   UNL     1       1.262  10.859  20.410  0.00  0.00    +0.000 C 
ATOM     13  C   UNL     1       0.734   9.430  20.322  0.00  0.00    +0.000 C 
ATOM     14  H   UNL     1       2.796   7.113  17.920  0.00  0.00    +0.000 HD
ENDBRANCH   1   4
BRANCH   1  19
ATOM     15  C   UNL     1       6.385   5.563  17.798  0.00  0.00    +0.000 A 
ATOM     16  C   UNL     1       6.508   4.715  16.695  0.00  0.00    +0.000 A 
ATOM     17  C   UNL     1       5.404   4.002  16.219  0.00  0.00    +0.000 A 
ATOM     18  C   UNL     1       4.154   4.140  16.834  0.00  0.00    +0.000 A 
ATOM     19  C   UNL     1       3.977   5.002  17.929  0.00  0.00    +0.000 A 
ATOM     20  C   UNL     1       5.117   5.681  18.400  0.00  0.00    +0.000 A 
BRANCH  15  22
ATOM     21  C   UNL     1       8.276   5.951  19.349  0.00  0.00    +0.000 C 
ATOM     22  C   UNL     1       7.532   6.362  18.304  0.00  0.00    +0.000 C 
ATOM     23  C   UNL     1       7.836   7.665  17.616  0.00  0.00    +0.000 C 
ENDBRANCH  15  22
ENDBRANCH   1  19
TORSDOF 3
ENDMDL
MODEL 5
REMARK VINA RESULT:      -6.9      3.438      7.865
REMARK  Name = 
REMARK  7 active torsions:
REMARK  status: ('A' for Active; 'I' for Inactive)
REMARK    1  A    between atoms: C_2  and  C_3
REMARK    2  A    between atoms: C_2  and  C_4
REMARK    3  A    between atoms: C_8  and  C_9
REMARK    4  A    between atoms: C_9  and  C_10
REMARK    5  A    between atoms: C_9  and  C_11
REMARK    6  A    between atoms: C_9  and  N_12
REMARK    7  A    between atoms: C_18  and  C_19
REMARK                            x       y       z     vdW  Elec       q    Type
REMARK                         _______ _______ _______ _____ _____    ______ ____
ROOT
ATOM      1  C   UNL     1       5.874   5.669  17.157  0.00  0.00    +0.000 C 
ATOM      2  C   UNL     1       6.497   7.077  17.107  0.00  0.00    +0.000 C 
ATOM      3  C   UNL     1       6.724   4.732  18.043  0.00  0.00    +0.000 C 
ENDROOT
BRANCH   1   4
ATOM      4  N   UNL     1       5.792   5.066  15.817  0.00  0.00    +0.000 N 
ATOM      5  C   UNL     1       6.814   5.050  14.902  0.00  0.00    +0.000 C 
ATOM      6  O   UNL     1       7.902   5.577  15.108  0.00  0.00    +0.000 OA
ATOM      7  N   UNL     1       6.511   4.412  13.705  0.00  0.00    +0.000 N 
ATOM      8  C   UNL     1       5.189   3.921  13.319  0.00  0.00    +0.000 C 
ATOM      9  C   UNL     1       5.293   2.603  12.562  0.00  0.00    +0.000 C 
ATOM     10  C   UNL     1       6.249   2.703  11.369  0.00  0.00    +0.000 C 
ATOM     11  C   UNL     1       6.416   1.338  10.708  0.00  0.00    +0.000 C 
ATOM     12  C   UNL     1       7.608   3.261  11.813  0.00  0.00    +0.000 C 
ATOM     13  C   UNL     1       7.453   4.562  12.596  0.00  0.00    +0.000 C 
ATOM     14  H   UNL     1       5.230   4.231  15.812  0.00  0.00    +0.000 HD
ENDBRANCH   1   4
BRANCH   1  19
ATOM     15  C   UNL     1       2.413   4.816  18.736  0.00  0.00    +0.000 A 
ATOM     16  C   UNL     1       1.806   6.074  18.740  0.00  0.00    +0.000 A 
ATOM     17  C   UNL     1       2.492   7.196  18.265  0.00  0.00    +0.000 A 
ATOM     18  C   UNL     1       3.794   7.071  17.766  0.00  0.00    +0.000 A 
ATOM     19  C   UNL     1       4.434   5.821  17.718  0.00  0.00    +0.000 A 
ATOM     20  C   UNL     1       3.724   4.719  18.232  0.00  0.00    +0.000 A 
BRANCH  15  22
ATOM     21  C   UNL     1       0.990   3.586  20.347  0.00  0.00    +0.000 C 
ATOM     22  C   UNL     1       1.695   3.599  19.200  0.00  0.00    +0.000 C 
ATOM     23  C   UNL     1       1.792   2.363  18.348  0.00  0.00    +0.000 C 
ENDBRANCH  15  22
ENDBRANCH   1  19
TORSDOF 3
ENDMDL
MODEL 6
REMARK VINA RESULT:      -6.9      3.389      5.608
REMARK  Name = 
REMARK  7 active torsions:
REMARK  status: ('A' for Active; 'I' for Inactive)
REMARK    1  A    between atoms: C_2  and  C_3
REMARK    2  A    between atoms: C_2  and  C_4
REMARK    3  A    between atoms: C_8  and  C_9
REMARK    4  A    between atoms: C_9  and  C_10
REMARK    5  A    between atoms: C_9  and  C_11
REMARK    6  A    between atoms: C_9  and  N_12
REMARK    7  A    between atoms: C_18  and  C_19
REMARK                            x       y       z     vdW  Elec       q    Type
REMARK                         _______ _______ _______ _____ _____    ______ ____
ROOT
ATOM      1  C   UNL     1       0.986   8.853  21.226  0.00  0.00    +0.000 C 
ATOM      2  C   UNL     1      -0.493   8.555  21.537  0.00  0.00    +0.000 C 
ATOM      3  C   UNL     1       1.797   8.993  22.534  0.00  0.00    +0.000 C 
ENDROOT
BRANCH   1   4
ATOM      4  N   UNL     1       1.139  10.105  20.469  0.00  0.00    +0.000 N 
ATOM      5  C   UNL     1       0.785  11.347  20.930  0.00  0.00    +0.000 C 
ATOM      6  O   UNL     1       0.268  11.528  22.027  0.00  0.00    +0.000 OA
ATOM      7  N   UNL     1       1.032  12.389  20.043  0.00  0.00    +0.000 N 
ATOM      8  C   UNL     1       1.476  12.232  18.659  0.00  0.00    +0.000 C 
ATOM      9  C   UNL     1       2.475  13.318  18.277  0.00  0.00    +0.000 C 
ATOM     10  C   UNL     1       1.928  14.721  18.560  0.00  0.00    +0.000 C 
ATOM     11  C   UNL     1       2.996  15.773  18.276  0.00  0.00    +0.000 C 
ATOM     12  C   UNL     1       1.436  14.826  20.010  0.00  0.00    +0.000 C 
ATOM     13  C   UNL     1       0.466  13.700  20.357  0.00  0.00    +0.000 C 
ATOM     14  H   UNL     1       1.970  10.105  19.900  0.00  0.00    +0.000 HD
ENDBRANCH   1   4
BRANCH   1  19
ATOM     15  C   UNL     1       1.789   5.251  19.966  0.00  0.00    +0.000 A 
ATOM     16  C   UNL     1       2.490   5.532  18.792  0.00  0.00    +0.000 A 
ATOM     17  C   UNL     1       2.694   6.854  18.383  0.00  0.00    +0.000 A 
ATOM     18  C   UNL     1       2.208   7.915  19.154  0.00  0.00    +0.000 A 
ATOM     19  C   UNL     1       1.520   7.681  20.357  0.00  0.00    +0.000 A 
ATOM     20  C   UNL     1       1.308   6.338  20.722  0.00  0.00    +0.000 A 
BRANCH  15  22
ATOM     21  C   UNL     1       0.861   2.966  19.746  0.00  0.00    +0.000 C 
ATOM     22  C   UNL     1       1.589   3.858  20.445  0.00  0.00    +0.000 C 
ATOM     23  C   UNL     1       2.218   3.471  21.756  0.00  0.00    +0.000 C 
ENDBRANCH  15  22
ENDBRANCH   1  19
TORSDOF 3
ENDMDL
MODEL 7
REMARK VINA RESULT:      -6.8      2.353      5.853
REMARK  Name = 
REMARK  7 active torsions:
REMARK  status: ('A' for Active; 'I' for Inactive)
REMARK    1  A    between atoms: C_2  and  C_3
REMARK    2  A    between atoms: C_2  and  C_4
REMARK    3  A    between atoms: C_8  and  C_9
REMARK    4  A    between atoms: C_9  and  C_10
REMARK    5  A    between atoms: C_9  and  C_11
REMARK    6  A    between atoms: C_9  and  N_12
REMARK    7  A    between atoms: C_18  and  C_19
REMARK                            x       y       z     vdW  Elec       q    Type
REMARK                         _______ _______ _______ _____ _____    ______ ____
ROOT
ATOM      1  C   UNL     1       4.353   2.494  19.354  0.00  0.00    +0.000 C 
ATOM      2  C   UNL     1       4.817   1.621  20.535  0.00  0.00    +0.000 C 
ATOM      3  C   UNL     1       4.133   1.628  18.094  0.00  0.00    +0.000 C 
ENDROOT
BRANCH   1   4
ATOM      4  N   UNL     1       5.347   3.526  19.019  0.00  0.00    +0.000 N 
ATOM      5  C   UNL     1       5.274   4.359  17.931  0.00  0.00    +0.000 C 
ATOM      6  O   UNL     1       4.372   4.297  17.103  0.00  0.00    +0.000 OA
ATOM      7  N   UNL     1       6.323   5.265  17.822  0.00  0.00    +0.000 N 
ATOM      8  C   UNL     1       7.518   5.279  18.664  0.00  0.00    +0.000 C 
ATOM      9  C   UNL     1       7.954   6.706  18.974  0.00  0.00    +0.000 C 
ATOM     10  C   UNL     1       8.127   7.539  17.700  0.00  0.00    +0.000 C 
ATOM     11  C   UNL     1       8.448   8.989  18.055  0.00  0.00    +0.000 C 
ATOM     12  C   UNL     1       6.865   7.461  16.829  0.00  0.00    +0.000 C 
ATOM     13  C   UNL     1       6.448   6.016  16.574  0.00  0.00    +0.000 C 
ATOM     14  H   UNL     1       5.730   3.964  19.840  0.00  0.00    +0.000 HD
ENDBRANCH   1   4
BRANCH   1  19
ATOM     15  C   UNL     1       1.756   5.274  20.208  0.00  0.00    +0.000 A 
ATOM     16  C   UNL     1       0.656   4.502  20.586  0.00  0.00    +0.000 A 
ATOM     17  C   UNL     1       0.721   3.105  20.552  0.00  0.00    +0.000 A 
ATOM     18  C   UNL     1       1.898   2.462  20.152  0.00  0.00    +0.000 A 
ATOM     19  C   UNL     1       3.038   3.198  19.789  0.00  0.00    +0.000 A 
ATOM     20  C   UNL     1       2.926   4.602  19.807  0.00  0.00    +0.000 A 
BRANCH  15  22
ATOM     21  C   UNL     1       1.146   7.417  21.290  0.00  0.00    +0.000 C 
ATOM     22  C   UNL     1       1.728   6.759  20.268  0.00  0.00    +0.000 C 
ATOM     23  C   UNL     1       2.364   7.518  19.135  0.00  0.00    +0.000 C 
ENDBRANCH  15  22
ENDBRANCH   1  19
TORSDOF 3
ENDMDL
MODEL 8
REMARK VINA RESULT:      -6.8      1.535      2.804
REMARK  Name = 
REMARK  7 active torsions:
REMARK  status: ('A' for Active; 'I' for Inactive)
REMARK    1  A    between atoms: C_2  and  C_3
REMARK    2  A    between atoms: C_2  and  C_4
REMARK    3  A    between atoms: C_8  and  C_9
REMARK    4  A    between atoms: C_9  and  C_10
REMARK    5  A    between atoms: C_9  and  C_11
REMARK    6  A    between atoms: C_9  and  N_12
REMARK    7  A    between atoms: C_18  and  C_19
REMARK                            x       y       z     vdW  Elec       q    Type
REMARK                         _______ _______ _______ _____ _____    ______ ____
ROOT
ATOM      1  C   UNL     1       3.087   5.251  18.649  0.00  0.00    +0.000 C 
ATOM      2  C   UNL     1       2.206   4.283  17.838  0.00  0.00    +0.000 C 
ATOM      3  C   UNL     1       3.068   4.875  20.148  0.00  0.00    +0.000 C 
ENDROOT
BRANCH   1   4
ATOM      4  N   UNL     1       2.616   6.640  18.531  0.00  0.00    +0.000 N 
ATOM      5  C   UNL     1       1.973   7.335  19.523  0.00  0.00    +0.000 C 
ATOM      6  O   UNL     1       1.696   6.842  20.611  0.00  0.00    +0.000 OA
ATOM      7  N   UNL     1       1.630   8.641  19.189  0.00  0.00    +0.000 N 
ATOM      8  C   UNL     1       1.764   9.236  17.861  0.00  0.00    +0.000 C 
ATOM      9  C   UNL     1       2.207  10.691  17.955  0.00  0.00    +0.000 C 
ATOM     10  C   UNL     1       1.291  11.508  18.871  0.00  0.00    +0.000 C 
ATOM     11  C   UNL     1       1.832  12.927  19.032  0.00  0.00    +0.000 C 
ATOM     12  C   UNL     1       1.146  10.825  20.237  0.00  0.00    +0.000 C 
ATOM     13  C   UNL     1       0.735   9.362  20.093  0.00  0.00    +0.000 C 
ATOM     14  H   UNL     1       3.239   7.206  17.978  0.00  0.00    +0.000 HD
ENDBRANCH   1   4
BRANCH   1  19
ATOM     15  C   UNL     1       6.038   4.890  16.126  0.00  0.00    +0.000 A 
ATOM     16  C   UNL     1       7.135   5.000  16.984  0.00  0.00    +0.000 A 
ATOM     17  C   UNL     1       6.948   5.210  18.354  0.00  0.00    +0.000 A 
ATOM     18  C   UNL     1       5.657   5.298  18.887  0.00  0.00    +0.000 A 
ATOM     19  C   UNL     1       4.525   5.166  18.066  0.00  0.00    +0.000 A 
ATOM     20  C   UNL     1       4.750   4.985  16.688  0.00  0.00    +0.000 A 
BRANCH  15  22
ATOM     21  C   UNL     1       5.279   3.958  13.961  0.00  0.00    +0.000 C 
ATOM     22  C   UNL     1       6.204   4.631  14.672  0.00  0.00    +0.000 C 
ATOM     23  C   UNL     1       7.457   5.136  14.010  0.00  0.00    +0.000 C 
ENDBRANCH  15  22
ENDBRANCH   1  19
TORSDOF 3
ENDMDL
MODEL 9
REMARK VINA RESULT:      -6.8      1.911      8.052
REMARK  Name = 
REMARK  7 active torsions:
REMARK  status: ('A' for Active; 'I' for Inactive)
REMARK    1  A    between atoms: C_2  and  C_3
REMARK    2  A    between atoms: C_2  and  C_4
REMARK    3  A    between atoms: C_8  and  C_9
REMARK    4  A    between atoms: C_9  and  C_10
REMARK    5  A    between atoms: C_9  and  C_11
REMARK    6  A    between atoms: C_9  and  N_12
REMARK    7  A    between atoms: C_18  and  C_19
REMARK                            x       y       z     vdW  Elec       q    Type
REMARK                         _______ _______ _______ _____ _____    ______ ____
ROOT
ATOM      1  C   UNL     1       0.532  10.112  19.319  0.00  0.00    +0.000 C 
ATOM      2  C   UNL     1      -0.706  10.091  18.404  0.00  0.00    +0.000 C 
ATOM      3  C   UNL     1       1.442  11.311  18.971  0.00  0.00    +0.000 C 
ENDROOT
BRANCH   1   4
ATOM      4  N   UNL     1       1.334   8.887  19.176  0.00  0.00    +0.000 N 
ATOM      5  C   UNL     1       2.221   8.647  18.158  0.00  0.00    +0.000 C 
ATOM      6  O   UNL     1       2.408   9.434  17.237  0.00  0.00    +0.000 OA
ATOM      7  N   UNL     1       2.876   7.422  18.234  0.00  0.00    +0.000 N 
ATOM      8  C   UNL     1       2.575   6.362  19.195  0.00  0.00    +0.000 C 
ATOM      9  C   UNL     1       3.850   5.670  19.664  0.00  0.00    +0.000 C 
ATOM     10  C   UNL     1       4.693   5.170  18.487  0.00  0.00    +0.000 C 
ATOM     11  C   UNL     1       6.012   4.589  18.990  0.00  0.00    +0.000 C 
ATOM     12  C   UNL     1       4.948   6.304  17.485  0.00  0.00    +0.000 C 
ATOM     13  C   UNL     1       3.648   6.989  17.071  0.00  0.00    +0.000 C 
ATOM     14  H   UNL     1       1.629   8.520  20.065  0.00  0.00    +0.000 HD
ENDBRANCH   1   4
BRANCH   1  19
ATOM     15  C   UNL     1      -1.184  11.427  22.564  0.00  0.00    +0.000 A 
ATOM     16  C   UNL     1      -0.910  10.384  23.450  0.00  0.00    +0.000 A 
ATOM     17  C   UNL     1      -0.203   9.255  23.023  0.00  0.00    +0.000 A 
ATOM     18  C   UNL     1       0.252   9.162  21.703  0.00  0.00    +0.000 A 
ATOM     19  C   UNL     1       0.022  10.200  20.784  0.00  0.00    +0.000 A 
ATOM     20  C   UNL     1      -0.718  11.307  21.240  0.00  0.00    +0.000 A 
BRANCH  15  22
ATOM     21  C   UNL     1      -3.164  12.612  23.464  0.00  0.00    +0.000 C 
ATOM     22  C   UNL     1      -1.901  12.655  22.998  0.00  0.00    +0.000 C 
ATOM     23  C   UNL     1      -1.172  13.967  22.888  0.00  0.00    +0.000 C 
ENDBRANCH  15  22
ENDBRANCH   1  19
TORSDOF 3
ENDMDL
