MODEL 1
REMARK VINA RESULT:      -8.3      0.000      0.000
REMARK  Name = 
REMARK  5 active torsions:
REMARK  status: ('A' for Active; 'I' for Inactive)
REMARK    1  A    between atoms: C_2  and  C_3
REMARK    2  A    between atoms: C_3  and  N_4
REMARK    3  A    between atoms: C_7  and  S_8
REMARK    4  A    between atoms: S_8  and  C_9
REMARK    5  A    between atoms: N_25  and  C_26
REMARK                            x       y       z     vdW  Elec       q    Type
REMARK                         _______ _______ _______ _____ _____    ______ ____
ROOT
ATOM      1  N   UNL     1       2.140   7.954  19.276  0.00  0.00    +0.000 N 
ATOM      2  N   UNL     1       2.928   7.220  18.394  0.00  0.00    +0.000 NA
ATOM      3  C   UNL     1       2.923   6.027  18.916  0.00  0.00    +0.000 A 
ATOM      4  C   UNL     1       3.535   4.742  18.453  0.00  0.00    +0.000 A 
ATOM      5  N   UNL     1       3.411   3.606  19.072  0.00  0.00    +0.000 NA
ATOM      6  C   UNL     1       2.665   3.632  20.235  0.00  0.00    +0.000 A 
ATOM      7  C   UNL     1       2.085   4.733  20.745  0.00  0.00    +0.000 A 
ATOM      8  N   UNL     1       2.225   5.910  20.075  0.00  0.00    +0.000 N 
ATOM      9  C   UNL     1       1.737   7.157  20.361  0.00  0.00    +0.000 A 
ATOM     10  O   UNL     1       1.084   7.499  21.333  0.00  0.00    +0.000 OA
ENDROOT
BRANCH   1  11
ATOM     11  C   UNL     1       1.934   9.383  19.171  0.00  0.00    +0.000 C 
BRANCH  11  13
ATOM     12  O   UNL     1       0.206   9.526  17.520  0.00  0.00    +0.000 OA
ATOM     13  C   UNL     1       0.514   9.715  18.701  0.00  0.00    +0.000 C 
ATOM     14  N   UNL     1      -0.418  10.153  19.624  0.00  0.00    +0.000 N 
ATOM     15  C   UNL     1      -0.227  10.253  21.077  0.00  0.00    +0.000 C 
ATOM     16  C   UNL     1      -0.424  11.705  21.558  0.00  0.00    +0.000 C 
ATOM     17  N   UNL     1      -1.755  12.156  21.125  0.00  0.00    +0.000 N 
ATOM     18  C   UNL     1      -1.997  12.074  19.670  0.00  0.00    +0.000 C 
ATOM     19  C   UNL     1      -1.730  10.639  19.169  0.00  0.00    +0.000 C 
BRANCH  17  20
ATOM     20  C   UNL     1      -2.610  12.834  21.968  0.00  0.00    +0.000 A 
ATOM     21  C   UNL     1      -3.049  14.138  21.696  0.00  0.00    +0.000 A 
ATOM     22  C   UNL     1      -3.887  14.831  22.578  0.00  0.00    +0.000 A 
ATOM     23  C   UNL     1      -4.297  14.232  23.764  0.00  0.00    +0.000 A 
ATOM     24  C   UNL     1      -3.872  12.943  24.062  0.00  0.00    +0.000 A 
ATOM     25  C   UNL     1      -3.042  12.256  23.171  0.00  0.00    +0.000 A 
ENDBRANCH  17  20
ENDBRANCH  11  13
ENDBRANCH   1  11
BRANCH   4  26
ATOM     26  S   UNL     1       4.426   5.005  17.003  0.00  0.00    +0.000 S 
BRANCH  26  27
ATOM     27  C   UNL     1       5.897   5.789  17.636  0.00  0.00    +0.000 A 
ATOM     28  C   UNL     1       6.308   7.005  17.075  0.00  0.00    +0.000 A 
ATOM     29  C   UNL     1       7.464   7.644  17.534  0.00  0.00    +0.000 A 
ATOM     30  C   UNL     1       8.208   7.074  18.564  0.00  0.00    +0.000 A 
ATOM     31  C   UNL     1       7.782   5.881  19.135  0.00  0.00    +0.000 A 
ATOM     32  F   UNL     1       8.493   5.341  20.134  0.00  0.00    +0.000 F 
ATOM     33  C   UNL     1       6.633   5.236  18.687  0.00  0.00    +0.000 A 
ENDBRANCH  26  27
ENDBRANCH   4  26
TORSDOF 5
ENDMDL
MODEL 2
REMARK VINA RESULT:      -8.3      1.661      2.318
REMARK  Name = 
REMARK  5 active torsions:
REMARK  status: ('A' for Active; 'I' for Inactive)
REMARK    1  A    between atoms: C_2  and  C_3
REMARK    2  A    between atoms: C_3  and  N_4
REMARK    3  A    between atoms: C_7  and  S_8
REMARK    4  A    between atoms: S_8  and  C_9
REMARK    5  A    between atoms: N_25  and  C_26
REMARK                            x       y       z     vdW  Elec       q    Type
REMARK                         _______ _______ _______ _____ _____    ______ ____
ROOT
ATOM      1  N   UNL     1       2.206   5.678  20.286  0.00  0.00    +0.000 N 
ATOM      2  N   UNL     1       2.923   5.884  19.111  0.00  0.00    +0.000 NA
ATOM      3  C   UNL     1       3.256   4.677  18.753  0.00  0.00    +0.000 A 
ATOM      4  C   UNL     1       3.997   4.168  17.556  0.00  0.00    +0.000 A 
ATOM      5  N   UNL     1       4.226   2.912  17.315  0.00  0.00    +0.000 NA
ATOM      6  C   UNL     1       3.745   2.021  18.254  0.00  0.00    +0.000 A 
ATOM      7  C   UNL     1       3.080   2.372  19.370  0.00  0.00    +0.000 A 
ATOM      8  N   UNL     1       2.849   3.694  19.597  0.00  0.00    +0.000 N 
ATOM      9  C   UNL     1       2.198   4.315  20.629  0.00  0.00    +0.000 A 
ATOM     10  O   UNL     1       1.706   3.801  21.620  0.00  0.00    +0.000 OA
ENDROOT
BRANCH   1  11
ATOM     11  C   UNL     1       1.710   6.750  21.122  0.00  0.00    +0.000 C 
BRANCH  11  13
ATOM     12  O   UNL     1       2.123   8.223  19.280  0.00  0.00    +0.000 OA
ATOM     13  C   UNL     1       1.479   8.033  20.317  0.00  0.00    +0.000 C 
ATOM     14  N   UNL     1       0.500   8.920  20.726  0.00  0.00    +0.000 N 
ATOM     15  C   UNL     1      -0.446   8.726  21.833  0.00  0.00    +0.000 C 
ATOM     16  C   UNL     1      -0.287   9.837  22.891  0.00  0.00    +0.000 C 
ATOM     17  N   UNL     1      -0.451  11.136  22.221  0.00  0.00    +0.000 N 
ATOM     18  C   UNL     1       0.477  11.379  21.099  0.00  0.00    +0.000 C 
ATOM     19  C   UNL     1       0.378  10.232  20.071  0.00  0.00    +0.000 C 
BRANCH  17  20
ATOM     20  C   UNL     1      -1.228  12.142  22.753  0.00  0.00    +0.000 A 
ATOM     21  C   UNL     1      -0.764  13.461  22.874  0.00  0.00    +0.000 A 
ATOM     22  C   UNL     1      -1.548  14.467  23.451  0.00  0.00    +0.000 A 
ATOM     23  C   UNL     1      -2.819  14.170  23.932  0.00  0.00    +0.000 A 
ATOM     24  C   UNL     1      -3.302  12.871  23.831  0.00  0.00    +0.000 A 
ATOM     25  C   UNL     1      -2.514  11.875  23.246  0.00  0.00    +0.000 A 
ENDBRANCH  17  20
ENDBRANCH  11  13
ENDBRANCH   1  11
BRANCH   4  26
ATOM     26  S   UNL     1       4.501   5.490  16.573  0.00  0.00    +0.000 S 
BRANCH  26  27
ATOM     27  C   UNL     1       5.961   6.031  17.441  0.00  0.00    +0.000 A 
ATOM     28  C   UNL     1       6.489   5.213  18.449  0.00  0.00    +0.000 A 
ATOM     29  C   UNL     1       7.625   5.608  19.163  0.00  0.00    +0.000 A 
ATOM     30  C   UNL     1       8.243   6.820  18.865  0.00  0.00    +0.000 A 
ATOM     31  C   UNL     1       7.731   7.616  17.847  0.00  0.00    +0.000 A 
ATOM     32  F   UNL     1       8.335   8.775  17.555  0.00  0.00    +0.000 F 
ATOM     33  C   UNL     1       6.602   7.232  17.129  0.00  0.00    +0.000 A 
ENDBRANCH  26  27
ENDBRANCH   4  26
TORSDOF 5
ENDMDL
MODEL 3
REMARK VINA RESULT:      -8.3      1.169      1.456
REMARK  Name = 
REMARK  5 active torsions:
REMARK  status: ('A' for Active; 'I' for Inactive)
REMARK    1  A    between atoms: C_2  and  C_3
REMARK    2  A    between atoms: C_3  and  N_4
REMARK    3  A    between atoms: C_7  and  S_8
REMARK    4  A    between atoms: S_8  and  C_9
REMARK    5  A    between atoms: N_25  and  C_26
REMARK                            x       y       z     vdW  Elec       q    Type
REMARK                         _______ _______ _______ _____ _____    ______ ____
ROOT
ATOM      1  N   UNL     1       2.454   7.187  19.224  0.00  0.00    +0.000 N 
ATOM      2  N   UNL     1       3.293   6.771  18.194  0.00  0.00    +0.000 NA
ATOM      3  C   UNL     1       3.245   5.472  18.281  0.00  0.00    +0.000 A 
ATOM      4  C   UNL     1       3.877   4.401  17.449  0.00  0.00    +0.000 A 
ATOM      5  N   UNL     1       3.705   3.127  17.640  0.00  0.00    +0.000 NA
ATOM      6  C   UNL     1       2.885   2.782  18.697  0.00  0.00    +0.000 A 
ATOM      7  C   UNL     1       2.281   3.663  19.514  0.00  0.00    +0.000 A 
ATOM      8  N   UNL     1       2.473   4.992  19.290  0.00  0.00    +0.000 N 
ATOM      9  C   UNL     1       1.976   6.083  19.951  0.00  0.00    +0.000 A 
ATOM     10  O   UNL     1       1.264   6.097  20.941  0.00  0.00    +0.000 OA
ENDROOT
BRANCH   1  11
ATOM     11  C   UNL     1       2.266   8.573  19.595  0.00  0.00    +0.000 C 
BRANCH  11  13
ATOM     12  O   UNL     1       1.092   9.237  17.617  0.00  0.00    +0.000 OA
ATOM     13  C   UNL     1       1.083   9.201  18.851  0.00  0.00    +0.000 C 
ATOM     14  N   UNL     1      -0.008   9.650  19.574  0.00  0.00    +0.000 N 
ATOM     15  C   UNL     1      -0.215   9.507  21.021  0.00  0.00    +0.000 C 
ATOM     16  C   UNL     1      -0.360  10.887  21.693  0.00  0.00    +0.000 C 
ATOM     17  N   UNL     1      -1.454  11.610  21.029  0.00  0.00    +0.000 N 
ATOM     18  C   UNL     1      -1.293  11.780  19.571  0.00  0.00    +0.000 C 
ATOM     19  C   UNL     1      -1.074  10.408  18.899  0.00  0.00    +0.000 C 
BRANCH  17  20
ATOM     20  C   UNL     1      -2.419  12.292  21.739  0.00  0.00    +0.000 A 
ATOM     21  C   UNL     1      -3.330  13.161  21.118  0.00  0.00    +0.000 A 
ATOM     22  C   UNL     1      -4.281  13.878  21.853  0.00  0.00    +0.000 A 
ATOM     23  C   UNL     1      -4.336  13.747  23.237  0.00  0.00    +0.000 A 
ATOM     24  C   UNL     1      -3.442  12.898  23.879  0.00  0.00    +0.000 A 
ATOM     25  C   UNL     1      -2.500  12.180  23.134  0.00  0.00    +0.000 A 
ENDBRANCH  17  20
ENDBRANCH  11  13
ENDBRANCH   1  11
BRANCH   4  26
ATOM     26  S   UNL     1       4.861   5.111  16.227  0.00  0.00    +0.000 S 
BRANCH  26  27
ATOM     27  C   UNL     1       6.175   5.814  17.205  0.00  0.00    +0.000 A 
ATOM     28  C   UNL     1       6.751   5.037  18.220  0.00  0.00    +0.000 A 
ATOM     29  C   UNL     1       7.775   5.557  19.017  0.00  0.00    +0.000 A 
ATOM     30  C   UNL     1       8.233   6.854  18.798  0.00  0.00    +0.000 A 
ATOM     31  C   UNL     1       7.677   7.611  17.774  0.00  0.00    +0.000 A 
ATOM     32  F   UNL     1       8.129   8.853  17.557  0.00  0.00    +0.000 F 
ATOM     33  C   UNL     1       6.659   7.104  16.972  0.00  0.00    +0.000 A 
ENDBRANCH  26  27
ENDBRANCH   4  26
TORSDOF 5
ENDMDL
MODEL 4
REMARK VINA RESULT:      -8.2      0.720      1.072
REMARK  Name = 
REMARK  5 active torsions:
REMARK  status: ('A' for Active; 'I' for Inactive)
REMARK    1  A    between atoms: C_2  and  C_3
REMARK    2  A    between atoms: C_3  and  N_4
REMARK    3  A    between atoms: C_7  and  S_8
REMARK    4  A    between atoms: S_8  and  C_9
REMARK    5  A    between atoms: N_25  and  C_26
REMARK                            x       y       z     vdW  Elec       q    Type
REMARK                         _______ _______ _______ _____ _____    ______ ____
ROOT
ATOM      1  N   UNL     1       2.426   7.440  19.226  0.00  0.00    +0.000 N 
ATOM      2  N   UNL     1       3.265   6.969  18.219  0.00  0.00    +0.000 NA
ATOM      3  C   UNL     1       3.243   5.679  18.395  0.00  0.00    +0.000 A 
ATOM      4  C   UNL     1       3.889   4.566  17.633  0.00  0.00    +0.000 A 
ATOM      5  N   UNL     1       3.744   3.305  17.912  0.00  0.00    +0.000 NA
ATOM      6  C   UNL     1       2.939   3.017  18.997  0.00  0.00    +0.000 A 
ATOM      7  C   UNL     1       2.324   3.941  19.757  0.00  0.00    +0.000 A 
ATOM      8  N   UNL     1       2.488   5.255  19.441  0.00  0.00    +0.000 N 
ATOM      9  C   UNL     1       1.975   6.379  20.030  0.00  0.00    +0.000 A 
ATOM     10  O   UNL     1       1.271   6.448  21.024  0.00  0.00    +0.000 OA
ENDROOT
BRANCH   1  11
ATOM     11  C   UNL     1       2.214   8.844  19.503  0.00  0.00    +0.000 C 
BRANCH  11  13
ATOM     12  O   UNL     1       0.865   9.349  17.590  0.00  0.00    +0.000 OA
ATOM     13  C   UNL     1       0.945   9.368  18.822  0.00  0.00    +0.000 C 
ATOM     14  N   UNL     1      -0.118   9.784  19.604  0.00  0.00    +0.000 N 
ATOM     15  C   UNL     1      -0.213   9.694  21.067  0.00  0.00    +0.000 C 
ATOM     16  C   UNL     1      -0.394  11.092  21.692  0.00  0.00    +0.000 C 
ATOM     17  N   UNL     1      -1.575  11.720  21.080  0.00  0.00    +0.000 N 
ATOM     18  C   UNL     1      -1.528  11.834  19.609  0.00  0.00    +0.000 C 
ATOM     19  C   UNL     1      -1.273  10.448  18.978  0.00  0.00    +0.000 C 
BRANCH  17  20
ATOM     20  C   UNL     1      -2.528  12.376  21.830  0.00  0.00    +0.000 A 
ATOM     21  C   UNL     1      -2.640  12.199  23.217  0.00  0.00    +0.000 A 
ATOM     22  C   UNL     1      -3.636  12.841  23.963  0.00  0.00    +0.000 A 
ATOM     23  C   UNL     1      -4.555  13.671  23.330  0.00  0.00    +0.000 A 
ATOM     24  C   UNL     1      -4.471  13.859  21.955  0.00  0.00    +0.000 A 
ATOM     25  C   UNL     1      -3.468  13.220  21.220  0.00  0.00    +0.000 A 
ENDBRANCH  17  20
ENDBRANCH  11  13
ENDBRANCH   1  11
BRANCH   4  26
ATOM     26  S   UNL     1       4.851   5.208  16.356  0.00  0.00    +0.000 S 
BRANCH  26  27
ATOM     27  C   UNL     1       6.184   5.959  17.271  0.00  0.00    +0.000 A 
ATOM     28  C   UNL     1       6.589   7.257  16.930  0.00  0.00    +0.000 A 
ATOM     29  C   UNL     1       7.640   7.875  17.614  0.00  0.00    +0.000 A 
ATOM     30  C   UNL     1       8.285   7.202  18.648  0.00  0.00    +0.000 A 
ATOM     31  C   UNL     1       7.863   5.925  19.000  0.00  0.00    +0.000 A 
ATOM     32  F   UNL     1       8.476   5.285  20.004  0.00  0.00    +0.000 F 
ATOM     33  C   UNL     1       6.817   5.300  18.327  0.00  0.00    +0.000 A 
ENDBRANCH  26  27
ENDBRANCH   4  26
TORSDOF 5
ENDMDL
MODEL 5
REMARK VINA RESULT:      -8.2      1.473      2.105
REMARK  Name = 
REMARK  5 active torsions:
REMARK  status: ('A' for Active; 'I' for Inactive)
REMARK    1  A    between atoms: C_2  and  C_3
REMARK    2  A    between atoms: C_3  and  N_4
REMARK    3  A    between atoms: C_7  and  S_8
REMARK    4  A    between atoms: S_8  and  C_9
REMARK    5  A    between atoms: N_25  and  C_26
REMARK                            x       y       z     vdW  Elec       q    Type
REMARK                         _______ _______ _______ _____ _____    ______ ____
ROOT
ATOM      1  N   UNL     1       2.304   5.760  20.321  0.00  0.00    +0.000 N 
ATOM      2  N   UNL     1       3.003   5.989  19.139  0.00  0.00    +0.000 NA
ATOM      3  C   UNL     1       3.374   4.794  18.778  0.00  0.00    +0.000 A 
ATOM      4  C   UNL     1       4.120   4.310  17.575  0.00  0.00    +0.000 A 
ATOM      5  N   UNL     1       4.389   3.062  17.332  0.00  0.00    +0.000 NA
ATOM      6  C   UNL     1       3.947   2.156  18.276  0.00  0.00    +0.000 A 
ATOM      7  C   UNL     1       3.281   2.486  19.398  0.00  0.00    +0.000 A 
ATOM      8  N   UNL     1       3.008   3.799  19.627  0.00  0.00    +0.000 N 
ATOM      9  C   UNL     1       2.346   4.398  20.665  0.00  0.00    +0.000 A 
ATOM     10  O   UNL     1       1.881   3.869  21.660  0.00  0.00    +0.000 OA
ENDROOT
BRANCH   1  11
ATOM     11  C   UNL     1       1.780   6.816  21.161  0.00  0.00    +0.000 C 
BRANCH  11  13
ATOM     12  O   UNL     1       1.967   8.254  19.255  0.00  0.00    +0.000 OA
ATOM     13  C   UNL     1       1.416   8.060  20.343  0.00  0.00    +0.000 C 
ATOM     14  N   UNL     1       0.423   8.904  20.805  0.00  0.00    +0.000 N 
ATOM     15  C   UNL     1      -0.423   8.692  21.988  0.00  0.00    +0.000 C 
ATOM     16  C   UNL     1      -0.246   9.842  23.000  0.00  0.00    +0.000 C 
ATOM     17  N   UNL     1      -0.534  11.109  22.313  0.00  0.00    +0.000 N 
ATOM     18  C   UNL     1       0.290  11.369  21.115  0.00  0.00    +0.000 C 
ATOM     19  C   UNL     1       0.177  10.188  20.128  0.00  0.00    +0.000 C 
BRANCH  17  20
ATOM     20  C   UNL     1      -1.324  12.088  22.878  0.00  0.00    +0.000 A 
ATOM     21  C   UNL     1      -2.623  11.827  23.337  0.00  0.00    +0.000 A 
ATOM     22  C   UNL     1      -3.431  12.837  23.874  0.00  0.00    +0.000 A 
ATOM     23  C   UNL     1      -2.953  14.141  23.955  0.00  0.00    +0.000 A 
ATOM     24  C   UNL     1      -1.671  14.429  23.502  0.00  0.00    +0.000 A 
ATOM     25  C   UNL     1      -0.870  13.411  22.975  0.00  0.00    +0.000 A 
ENDBRANCH  17  20
ENDBRANCH  11  13
ENDBRANCH   1  11
BRANCH   4  26
ATOM     26  S   UNL     1       4.570   5.647  16.587  0.00  0.00    +0.000 S 
BRANCH  26  27
ATOM     27  C   UNL     1       6.036   6.219  17.424  0.00  0.00    +0.000 A 
ATOM     28  C   UNL     1       6.564   7.472  17.081  0.00  0.00    +0.000 A 
ATOM     29  C   UNL     1       7.720   7.950  17.705  0.00  0.00    +0.000 A 
ATOM     30  C   UNL     1       8.349   7.182  18.681  0.00  0.00    +0.000 A 
ATOM     31  C   UNL     1       7.808   5.952  19.037  0.00  0.00    +0.000 A 
ATOM     32  F   UNL     1       8.408   5.221  19.985  0.00  0.00    +0.000 F 
ATOM     33  C   UNL     1       6.657   5.466  18.424  0.00  0.00    +0.000 A 
ENDBRANCH  26  27
ENDBRANCH   4  26
TORSDOF 5
ENDMDL
MODEL 6
REMARK VINA RESULT:      -8.1      0.997      1.313
REMARK  Name = 
REMARK  5 active torsions:
REMARK  status: ('A' for Active; 'I' for Inactive)
REMARK    1  A    between atoms: C_2  and  C_3
REMARK    2  A    between atoms: C_3  and  N_4
REMARK    3  A    between atoms: C_7  and  S_8
REMARK    4  A    between atoms: S_8  and  C_9
REMARK    5  A    between atoms: N_25  and  C_26
REMARK                            x       y       z     vdW  Elec       q    Type
REMARK                         _______ _______ _______ _____ _____    ______ ____
ROOT
ATOM      1  N   UNL     1       2.179   7.851  19.225  0.00  0.00    +0.000 N 
ATOM      2  N   UNL     1       2.969   7.102  18.357  0.00  0.00    +0.000 NA
ATOM      3  C   UNL     1       2.948   5.914  18.890  0.00  0.00    +0.000 A 
ATOM      4  C   UNL     1       3.553   4.620  18.445  0.00  0.00    +0.000 A 
ATOM      5  N   UNL     1       3.415   3.491  19.075  0.00  0.00    +0.000 NA
ATOM      6  C   UNL     1       2.659   3.535  20.230  0.00  0.00    +0.000 A 
ATOM      7  C   UNL     1       2.084   4.646  20.724  0.00  0.00    +0.000 A 
ATOM      8  N   UNL     1       2.240   5.815  20.044  0.00  0.00    +0.000 N 
ATOM      9  C   UNL     1       1.760   7.068  20.314  0.00  0.00    +0.000 A 
ATOM     10  O   UNL     1       1.103   7.426  21.277  0.00  0.00    +0.000 OA
ENDROOT
BRANCH   1  11
ATOM     11  C   UNL     1       1.986   9.280  19.104  0.00  0.00    +0.000 C 
BRANCH  11  13
ATOM     12  O   UNL     1       0.302   9.324  17.402  0.00  0.00    +0.000 OA
ATOM     13  C   UNL     1       0.592   9.619  18.566  0.00  0.00    +0.000 C 
ATOM     14  N   UNL     1      -0.341  10.182  19.417  0.00  0.00    +0.000 N 
ATOM     15  C   UNL     1      -0.178  10.419  20.858  0.00  0.00    +0.000 C 
ATOM     16  C   UNL     1      -0.326  11.919  21.186  0.00  0.00    +0.000 C 
ATOM     17  N   UNL     1      -1.628  12.375  20.677  0.00  0.00    +0.000 N 
ATOM     18  C   UNL     1      -1.842  12.157  19.232  0.00  0.00    +0.000 C 
ATOM     19  C   UNL     1      -1.623  10.670  18.882  0.00  0.00    +0.000 C 
BRANCH  17  20
ATOM     20  C   UNL     1      -2.473  13.166  21.426  0.00  0.00    +0.000 A 
ATOM     21  C   UNL     1      -2.011  14.272  22.154  0.00  0.00    +0.000 A 
ATOM     22  C   UNL     1      -2.871  15.046  22.943  0.00  0.00    +0.000 A 
ATOM     23  C   UNL     1      -4.221  14.720  23.026  0.00  0.00    +0.000 A 
ATOM     24  C   UNL     1      -4.705  13.626  22.319  0.00  0.00    +0.000 A 
ATOM     25  C   UNL     1      -3.838  12.864  21.529  0.00  0.00    +0.000 A 
ENDBRANCH  17  20
ENDBRANCH  11  13
ENDBRANCH   1  11
BRANCH   4  26
ATOM     26  S   UNL     1       4.458   4.860  17.000  0.00  0.00    +0.000 S 
BRANCH  26  27
ATOM     27  C   UNL     1       5.899   5.700  17.628  0.00  0.00    +0.000 A 
ATOM     28  C   UNL     1       6.648   5.088  18.643  0.00  0.00    +0.000 A 
ATOM     29  C   UNL     1       7.777   5.721  19.172  0.00  0.00    +0.000 A 
ATOM     30  C   UNL     1       8.168   6.964  18.682  0.00  0.00    +0.000 A 
ATOM     31  C   UNL     1       7.439   7.555  17.658  0.00  0.00    +0.000 A 
ATOM     32  F   UNL     1       7.825   8.745  17.179  0.00  0.00    +0.000 F 
ATOM     33  C   UNL     1       6.314   6.934  17.122  0.00  0.00    +0.000 A 
ENDBRANCH  26  27
ENDBRANCH   4  26
TORSDOF 5
ENDMDL
MODEL 7
REMARK VINA RESULT:      -8.0      2.527      3.091
REMARK  Name = 
REMARK  5 active torsions:
REMARK  status: ('A' for Active; 'I' for Inactive)
REMARK    1  A    between atoms: C_2  and  C_3
REMARK    2  A    between atoms: C_3  and  N_4
REMARK    3  A    between atoms: C_7  and  S_8
REMARK    4  A    between atoms: S_8  and  C_9
REMARK    5  A    between atoms: N_25  and  C_26
REMARK                            x       y       z     vdW  Elec       q    Type
REMARK                         _______ _______ _______ _____ _____    ______ ____
ROOT
ATOM      1  N   UNL     1       2.270   5.656  20.153  0.00  0.00    +0.000 N 
ATOM      2  N   UNL     1       3.533   5.544  19.579  0.00  0.00    +0.000 NA
ATOM      3  C   UNL     1       3.497   4.374  19.010  0.00  0.00    +0.000 A 
ATOM      4  C   UNL     1       4.506   3.646  18.179  0.00  0.00    +0.000 A 
ATOM      5  N   UNL     1       4.309   2.479  17.641  0.00  0.00    +0.000 NA
ATOM      6  C   UNL     1       3.077   1.904  17.885  0.00  0.00    +0.000 A 
ATOM      7  C   UNL     1       2.106   2.465  18.628  0.00  0.00    +0.000 A 
ATOM      8  N   UNL     1       2.336   3.690  19.177  0.00  0.00    +0.000 N 
ATOM      9  C   UNL     1       1.529   4.478  19.953  0.00  0.00    +0.000 A 
ATOM     10  O   UNL     1       0.410   4.225  20.367  0.00  0.00    +0.000 OA
ENDROOT
BRANCH   1  11
ATOM     11  C   UNL     1       1.865   6.760  20.996  0.00  0.00    +0.000 C 
BRANCH  11  13
ATOM     12  O   UNL     1       2.117   8.193  19.094  0.00  0.00    +0.000 OA
ATOM     13  C   UNL     1       1.541   8.010  20.171  0.00  0.00    +0.000 C 
ATOM     14  N   UNL     1       0.554   8.873  20.612  0.00  0.00    +0.000 N 
ATOM     15  C   UNL     1      -0.319   8.678  21.777  0.00  0.00    +0.000 C 
ATOM     16  C   UNL     1      -0.142   9.825  22.793  0.00  0.00    +0.000 C 
ATOM     17  N   UNL     1      -0.392  11.096  22.099  0.00  0.00    +0.000 N 
ATOM     18  C   UNL     1       0.461  11.340  20.919  0.00  0.00    +0.000 C 
ATOM     19  C   UNL     1       0.346  10.161  19.930  0.00  0.00    +0.000 C 
BRANCH  17  20
ATOM     20  C   UNL     1      -1.175  12.090  22.648  0.00  0.00    +0.000 A 
ATOM     21  C   UNL     1      -0.765  13.431  22.685  0.00  0.00    +0.000 A 
ATOM     22  C   UNL     1      -1.551  14.425  23.279  0.00  0.00    +0.000 A 
ATOM     23  C   UNL     1      -2.769  14.094  23.862  0.00  0.00    +0.000 A 
ATOM     24  C   UNL     1      -3.198  12.772  23.846  0.00  0.00    +0.000 A 
ATOM     25  C   UNL     1      -2.409  11.787  23.243  0.00  0.00    +0.000 A 
ENDBRANCH  17  20
ENDBRANCH  11  13
ENDBRANCH   1  11
BRANCH   4  26
ATOM     26  S   UNL     1       5.950   4.577  18.060  0.00  0.00    +0.000 S 
BRANCH  26  27
ATOM     27  C   UNL     1       6.228   4.563  16.299  0.00  0.00    +0.000 A 
ATOM     28  C   UNL     1       7.487   4.940  15.812  0.00  0.00    +0.000 A 
ATOM     29  C   UNL     1       7.741   4.955  14.437  0.00  0.00    +0.000 A 
ATOM     30  C   UNL     1       6.739   4.584  13.543  0.00  0.00    +0.000 A 
ATOM     31  C   UNL     1       5.500   4.186  14.032  0.00  0.00    +0.000 A 
ATOM     32  F   UNL     1       4.543   3.817  13.172  0.00  0.00    +0.000 F 
ATOM     33  C   UNL     1       5.237   4.165  15.399  0.00  0.00    +0.000 A 
ENDBRANCH  26  27
ENDBRANCH   4  26
TORSDOF 5
ENDMDL
MODEL 8
REMARK VINA RESULT:      -8.0      1.150      1.395
REMARK  Name = 
REMARK  5 active torsions:
REMARK  status: ('A' for Active; 'I' for Inactive)
REMARK    1  A    between atoms: C_2  and  C_3
REMARK    2  A    between atoms: C_3  and  N_4
REMARK    3  A    between atoms: C_7  and  S_8
REMARK    4  A    between atoms: S_8  and  C_9
REMARK    5  A    between atoms: N_25  and  C_26
REMARK                            x       y       z     vdW  Elec       q    Type
REMARK                         _______ _______ _______ _____ _____    ______ ____
ROOT
ATOM      1  N   UNL     1       2.570   6.578  19.584  0.00  0.00    +0.000 N 
ATOM      2  N   UNL     1       3.392   6.508  18.462  0.00  0.00    +0.000 NA
ATOM      3  C   UNL     1       3.532   5.226  18.278  0.00  0.00    +0.000 A 
ATOM      4  C   UNL     1       4.253   4.452  17.221  0.00  0.00    +0.000 A 
ATOM      5  N   UNL     1       4.274   3.154  17.147  0.00  0.00    +0.000 NA
ATOM      6  C   UNL     1       3.579   2.484  18.136  0.00  0.00    +0.000 A 
ATOM      7  C   UNL     1       2.911   3.083  19.139  0.00  0.00    +0.000 A 
ATOM      8  N   UNL     1       2.901   4.443  19.190  0.00  0.00    +0.000 N 
ATOM      9  C   UNL     1       2.299   5.291  20.080  0.00  0.00    +0.000 A 
ATOM     10  O   UNL     1       1.657   4.999  21.075  0.00  0.00    +0.000 OA
ENDROOT
BRANCH   1  11
ATOM     11  C   UNL     1       2.214   7.816  20.242  0.00  0.00    +0.000 C 
BRANCH  11  13
ATOM     12  O   UNL     1       1.645   8.810  18.139  0.00  0.00    +0.000 OA
ATOM     13  C   UNL     1       1.361   8.712  19.337  0.00  0.00    +0.000 C 
ATOM     14  N   UNL     1       0.244   9.335  19.862  0.00  0.00    +0.000 N 
ATOM     15  C   UNL     1      -0.297   9.160  21.217  0.00  0.00    +0.000 C 
ATOM     16  C   UNL     1      -0.321  10.503  21.975  0.00  0.00    +0.000 C 
ATOM     17  N   UNL     1      -1.089  11.468  21.174  0.00  0.00    +0.000 N 
ATOM     18  C   UNL     1      -0.585  11.679  19.802  0.00  0.00    +0.000 C 
ATOM     19  C   UNL     1      -0.488  10.329  19.061  0.00  0.00    +0.000 C 
BRANCH  17  20
ATOM     20  C   UNL     1      -2.039  12.295  21.735  0.00  0.00    +0.000 A 
ATOM     21  C   UNL     1      -2.772  13.217  20.973  0.00  0.00    +0.000 A 
ATOM     22  C   UNL     1      -3.708  14.078  21.559  0.00  0.00    +0.000 A 
ATOM     23  C   UNL     1      -3.924  14.040  22.932  0.00  0.00    +0.000 A 
ATOM     24  C   UNL     1      -3.208  13.141  23.713  0.00  0.00    +0.000 A 
ATOM     25  C   UNL     1      -2.281  12.280  23.117  0.00  0.00    +0.000 A 
ENDBRANCH  17  20
ENDBRANCH  11  13
ENDBRANCH   1  11
BRANCH   4  26
ATOM     26  S   UNL     1       5.048   5.533  16.141  0.00  0.00    +0.000 S 
BRANCH  26  27
ATOM     27  C   UNL     1       6.336   6.183  17.187  0.00  0.00    +0.000 A 
ATOM     28  C   UNL     1       6.731   7.518  17.021  0.00  0.00    +0.000 A 
ATOM     29  C   UNL     1       7.747   8.061  17.813  0.00  0.00    +0.000 A 
ATOM     30  C   UNL     1       8.367   7.275  18.781  0.00  0.00    +0.000 A 
ATOM     31  C   UNL     1       7.954   5.960  18.960  0.00  0.00    +0.000 A 
ATOM     32  F   UNL     1       8.543   5.210  19.901  0.00  0.00    +0.000 F 
ATOM     33  C   UNL     1       6.943   5.408  18.179  0.00  0.00    +0.000 A 
ENDBRANCH  26  27
ENDBRANCH   4  26
TORSDOF 5
ENDMDL
MODEL 9
REMARK VINA RESULT:      -8.0      1.591      2.000
REMARK  Name = 
REMARK  5 active torsions:
REMARK  status: ('A' for Active; 'I' for Inactive)
REMARK    1  A    between atoms: C_2  and  C_3
REMARK    2  A    between atoms: C_3  and  N_4
REMARK    3  A    between atoms: C_7  and  S_8
REMARK    4  A    between atoms: S_8  and  C_9
REMARK    5  A    between atoms: N_25  and  C_26
REMARK                            x       y       z     vdW  Elec       q    Type
REMARK                         _______ _______ _______ _____ _____    ______ ____
ROOT
ATOM      1  N   UNL     1       2.484   6.820  19.212  0.00  0.00    +0.000 N 
ATOM      2  N   UNL     1       3.361   6.545  18.167  0.00  0.00    +0.000 NA
ATOM      3  C   UNL     1       3.410   5.244  18.157  0.00  0.00    +0.000 A 
ATOM      4  C   UNL     1       4.128   4.287  17.257  0.00  0.00    +0.000 A 
ATOM      5  N   UNL     1       4.051   2.994  17.351  0.00  0.00    +0.000 NA
ATOM      6  C   UNL     1       3.249   2.511  18.368  0.00  0.00    +0.000 A 
ATOM      7  C   UNL     1       2.573   3.282  19.239  0.00  0.00    +0.000 A 
ATOM      8  N   UNL     1       2.667   4.634  19.116  0.00  0.00    +0.000 N 
ATOM      9  C   UNL     1       2.084   5.633  19.848  0.00  0.00    +0.000 A 
ATOM     10  O   UNL     1       1.364   5.520  20.827  0.00  0.00    +0.000 OA
ENDROOT
BRANCH   1  11
ATOM     11  C   UNL     1       2.189   8.157  19.682  0.00  0.00    +0.000 C 
BRANCH  11  13
ATOM     12  O   UNL     1       1.722   8.900  17.454  0.00  0.00    +0.000 OA
ATOM     13  C   UNL     1       1.396   8.958  18.644  0.00  0.00    +0.000 C 
ATOM     14  N   UNL     1       0.283   9.672  19.049  0.00  0.00    +0.000 N 
ATOM     15  C   UNL     1      -0.307   9.681  20.394  0.00  0.00    +0.000 C 
ATOM     16  C   UNL     1      -0.312  11.107  20.981  0.00  0.00    +0.000 C 
ATOM     17  N   UNL     1      -1.021  11.988  20.041  0.00  0.00    +0.000 N 
ATOM     18  C   UNL     1      -0.467  12.014  18.673  0.00  0.00    +0.000 C 
ATOM     19  C   UNL     1      -0.389  10.581  18.106  0.00  0.00    +0.000 C 
BRANCH  17  20
ATOM     20  C   UNL     1      -1.962  12.903  20.462  0.00  0.00    +0.000 A 
ATOM     21  C   UNL     1      -3.340  12.683  20.313  0.00  0.00    +0.000 A 
ATOM     22  C   UNL     1      -4.285  13.636  20.709  0.00  0.00    +0.000 A 
ATOM     23  C   UNL     1      -3.869  14.844  21.258  0.00  0.00    +0.000 A 
ATOM     24  C   UNL     1      -2.510  15.092  21.412  0.00  0.00    +0.000 A 
ATOM     25  C   UNL     1      -1.573  14.130  21.021  0.00  0.00    +0.000 A 
ENDBRANCH  17  20
ENDBRANCH  11  13
ENDBRANCH   1  11
BRANCH   4  26
ATOM     26  S   UNL     1       5.068   5.158  16.105  0.00  0.00    +0.000 S 
BRANCH  26  27
ATOM     27  C   UNL     1       6.324   5.870  17.150  0.00  0.00    +0.000 A 
ATOM     28  C   UNL     1       6.918   5.068  18.135  0.00  0.00    +0.000 A 
ATOM     29  C   UNL     1       7.897   5.593  18.983  0.00  0.00    +0.000 A 
ATOM     30  C   UNL     1       8.295   6.921  18.844  0.00  0.00    +0.000 A 
ATOM     31  C   UNL     1       7.723   7.705  17.849  0.00  0.00    +0.000 A 
ATOM     32  F   UNL     1       8.116   8.977  17.709  0.00  0.00    +0.000 F 
ATOM     33  C   UNL     1       6.748   7.192  16.998  0.00  0.00    +0.000 A 
ENDBRANCH  26  27
ENDBRANCH   4  26
TORSDOF 5
ENDMDL
