MODEL 1
REMARK VINA RESULT:      -8.3      0.000      0.000
REMARK  Name = 
REMARK  6 active torsions:
REMARK  status: ('A' for Active; 'I' for Inactive)
REMARK    1  A    between atoms: C_1  and  C_2
REMARK    2  A    between atoms: C_5  and  C_6
REMARK    3  A    between atoms: C_7  and  C_8
REMARK    4  A    between atoms: C_8  and  S_9
REMARK    5  A    between atoms: S_9  and  C_10
REMARK    6  A    between atoms: C_15  and  C_16
REMARK                            x       y       z     vdW  Elec       q    Type
REMARK                         _______ _______ _______ _____ _____    ______ ____
ROOT
ATOM      1  C   UNL     1       3.119   4.038  19.132  0.00  0.00    +0.000 A 
ATOM      2  C   UNL     1       3.406   2.745  19.633  0.00  0.00    +0.000 A 
ATOM      3  C   UNL     1       3.002   2.325  20.901  0.00  0.00    +0.000 A 
ATOM      4  C   UNL     1       2.303   3.184  21.720  0.00  0.00    +0.000 A 
ATOM      5  C   UNL     1       2.037   4.474  21.272  0.00  0.00    +0.000 A 
ATOM      6  C   UNL     1       2.441   4.939  19.992  0.00  0.00    +0.000 A 
ENDROOT
BRANCH   6   7
ATOM      7  C   UNL     1       2.081   6.388  19.748  0.00  0.00    +0.000 C 
ATOM      8  O   UNL     1       2.288   6.833  18.620  0.00  0.00    +0.000 OA
ATOM      9  N   UNL     1       1.589   7.130  20.792  0.00  0.00    +0.000 N 
ATOM     10  C   UNL     1       1.287   8.461  20.644  0.00  0.00    +0.000 A 
ATOM     11  N   UNL     1       1.233   9.181  19.553  0.00  0.00    +0.000 NA
ATOM     12  C   UNL     1       0.965  10.493  19.876  0.00  0.00    +0.000 A 
ATOM     13  C   UNL     1       0.823  10.750  21.223  0.00  0.00    +0.000 A 
ATOM     14  S   UNL     1       0.966   9.283  22.106  0.00  0.00    +0.000 S 
ATOM     15  H   UNL     1       1.506   6.735  21.718  0.00  0.00    +0.000 HD
ENDBRANCH   6   7
BRANCH   1  16
ATOM     16  S   UNL     1       3.626   4.454  17.441  0.00  0.00    +0.000 S 
BRANCH  16  17
ATOM     17  C   UNL     1       5.350   3.845  17.345  0.00  0.00    +0.000 C 
BRANCH  17  24
ATOM     18  C   UNL     1       5.840   3.753  14.127  0.00  0.00    +0.000 C 
ATOM     19  C   UNL     1       6.454   4.663  15.124  0.00  0.00    +0.000 A 
ATOM     20  N   UNL     1       7.370   5.558  14.741  0.00  0.00    +0.000 NA
ATOM     21  O   UNL     1       7.763   6.212  15.891  0.00  0.00    +0.000 OA
ATOM     22  C   UNL     1       7.088   5.707  16.955  0.00  0.00    +0.000 A 
ATOM     23  C   UNL     1       7.424   6.277  18.274  0.00  0.00    +0.000 C 
ATOM     24  C   UNL     1       6.225   4.718  16.528  0.00  0.00    +0.000 A 
ENDBRANCH  17  24
ENDBRANCH  16  17
ENDBRANCH   1  16
TORSDOF 4
ENDMDL
MODEL 2
REMARK VINA RESULT:      -8.2      0.443      1.690
REMARK  Name = 
REMARK  6 active torsions:
REMARK  status: ('A' for Active; 'I' for Inactive)
REMARK    1  A    between atoms: C_1  and  C_2
REMARK    2  A    between atoms: C_5  and  C_6
REMARK    3  A    between atoms: C_7  and  C_8
REMARK    4  A    between atoms: C_8  and  S_9
REMARK    5  A    between atoms: S_9  and  C_10
REMARK    6  A    between atoms: C_15  and  C_16
REMARK                            x       y       z     vdW  Elec       q    Type
REMARK                         _______ _______ _______ _____ _____    ______ ____
ROOT
ATOM      1  C   UNL     1       3.117   4.125  19.102  0.00  0.00    +0.000 A 
ATOM      2  C   UNL     1       3.412   2.829  19.588  0.00  0.00    +0.000 A 
ATOM      3  C   UNL     1       3.041   2.404  20.865  0.00  0.00    +0.000 A 
ATOM      4  C   UNL     1       2.367   3.262  21.706  0.00  0.00    +0.000 A 
ATOM      5  C   UNL     1       2.095   4.555  21.272  0.00  0.00    +0.000 A 
ATOM      6  C   UNL     1       2.466   5.024  19.984  0.00  0.00    +0.000 A 
ENDROOT
BRANCH   6   7
ATOM      7  C   UNL     1       2.106   6.477  19.757  0.00  0.00    +0.000 C 
ATOM      8  O   UNL     1       2.354   6.948  18.648  0.00  0.00    +0.000 OA
ATOM      9  N   UNL     1       1.566   7.192  20.796  0.00  0.00    +0.000 N 
ATOM     10  C   UNL     1       1.261   8.524  20.664  0.00  0.00    +0.000 A 
ATOM     11  N   UNL     1       1.245   9.267  19.588  0.00  0.00    +0.000 NA
ATOM     12  C   UNL     1       0.955  10.571  19.928  0.00  0.00    +0.000 A 
ATOM     13  C   UNL     1       0.757  10.797  21.273  0.00  0.00    +0.000 A 
ATOM     14  S   UNL     1       0.874   9.312  22.129  0.00  0.00    +0.000 S 
ATOM     15  H   UNL     1       1.448   6.777  21.709  0.00  0.00    +0.000 HD
ENDBRANCH   6   7
BRANCH   1  16
ATOM     16  S   UNL     1       3.581   4.548  17.400  0.00  0.00    +0.000 S 
BRANCH  16  17
ATOM     17  C   UNL     1       5.213   3.747  17.185  0.00  0.00    +0.000 C 
BRANCH  17  24
ATOM     18  C   UNL     1       7.056   6.086  18.502  0.00  0.00    +0.000 C 
ATOM     19  C   UNL     1       6.990   5.657  17.084  0.00  0.00    +0.000 A 
ATOM     20  N   UNL     1       7.714   6.292  16.157  0.00  0.00    +0.000 NA
ATOM     21  O   UNL     1       7.406   5.685  14.956  0.00  0.00    +0.000 OA
ATOM     22  C   UNL     1       6.499   4.697  15.165  0.00  0.00    +0.000 A 
ATOM     23  C   UNL     1       6.034   3.971  13.967  0.00  0.00    +0.000 C 
ATOM     24  C   UNL     1       6.200   4.621  16.510  0.00  0.00    +0.000 A 
ENDBRANCH  17  24
ENDBRANCH  16  17
ENDBRANCH   1  16
TORSDOF 4
ENDMDL
MODEL 3
REMARK VINA RESULT:      -8.1      1.678      1.897
REMARK  Name = 
REMARK  6 active torsions:
REMARK  status: ('A' for Active; 'I' for Inactive)
REMARK    1  A    between atoms: C_1  and  C_2
REMARK    2  A    between atoms: C_5  and  C_6
REMARK    3  A    between atoms: C_7  and  C_8
REMARK    4  A    between atoms: C_8  and  S_9
REMARK    5  A    between atoms: S_9  and  C_10
REMARK    6  A    between atoms: C_15  and  C_16
REMARK                            x       y       z     vdW  Elec       q    Type
REMARK                         _______ _______ _______ _____ _____    ______ ____
ROOT
ATOM      1  C   UNL     1       3.680   3.930  19.112  0.00  0.00    +0.000 A 
ATOM      2  C   UNL     1       3.799   2.597  18.650  0.00  0.00    +0.000 A 
ATOM      3  C   UNL     1       2.691   1.785  18.408  0.00  0.00    +0.000 A 
ATOM      4  C   UNL     1       1.421   2.272  18.626  0.00  0.00    +0.000 A 
ATOM      5  C   UNL     1       1.271   3.565  19.116  0.00  0.00    +0.000 A 
ATOM      6  C   UNL     1       2.376   4.416  19.383  0.00  0.00    +0.000 A 
ENDROOT
BRANCH   6   7
ATOM      7  C   UNL     1       1.967   5.757  19.953  0.00  0.00    +0.000 C 
ATOM      8  O   UNL     1       1.535   5.767  21.105  0.00  0.00    +0.000 OA
ATOM      9  N   UNL     1       2.059   6.869  19.154  0.00  0.00    +0.000 N 
ATOM     10  C   UNL     1       1.661   8.104  19.600  0.00  0.00    +0.000 A 
ATOM     11  N   UNL     1       1.322   8.479  20.807  0.00  0.00    +0.000 NA
ATOM     12  C   UNL     1       0.917   9.797  20.786  0.00  0.00    +0.000 A 
ATOM     13  C   UNL     1       0.953  10.404  19.550  0.00  0.00    +0.000 A 
ATOM     14  S   UNL     1       1.578   9.303  18.387  0.00  0.00    +0.000 S 
ATOM     15  H   UNL     1       2.353   6.795  18.191  0.00  0.00    +0.000 HD
ENDBRANCH   6   7
BRANCH   1  16
ATOM     16  S   UNL     1       5.185   4.920  19.324  0.00  0.00    +0.000 S 
BRANCH  16  17
ATOM     17  C   UNL     1       5.027   6.223  18.047  0.00  0.00    +0.000 C 
BRANCH  17  24
ATOM     18  C   UNL     1       5.283   4.130  15.566  0.00  0.00    +0.000 C 
ATOM     19  C   UNL     1       6.210   5.224  15.944  0.00  0.00    +0.000 A 
ATOM     20  N   UNL     1       7.342   5.411  15.258  0.00  0.00    +0.000 NA
ATOM     21  O   UNL     1       7.987   6.465  15.875  0.00  0.00    +0.000 OA
ATOM     22  C   UNL     1       7.246   6.900  16.925  0.00  0.00    +0.000 A 
ATOM     23  C   UNL     1       7.819   8.005  17.717  0.00  0.00    +0.000 C 
ATOM     24  C   UNL     1       6.090   6.153  17.017  0.00  0.00    +0.000 A 
ENDBRANCH  17  24
ENDBRANCH  16  17
ENDBRANCH   1  16
TORSDOF 4
ENDMDL
MODEL 4
REMARK VINA RESULT:      -8.0      1.164      2.020
REMARK  Name = 
REMARK  6 active torsions:
REMARK  status: ('A' for Active; 'I' for Inactive)
REMARK    1  A    between atoms: C_1  and  C_2
REMARK    2  A    between atoms: C_5  and  C_6
REMARK    3  A    between atoms: C_7  and  C_8
REMARK    4  A    between atoms: C_8  and  S_9
REMARK    5  A    between atoms: S_9  and  C_10
REMARK    6  A    between atoms: C_15  and  C_16
REMARK                            x       y       z     vdW  Elec       q    Type
REMARK                         _______ _______ _______ _____ _____    ______ ____
ROOT
ATOM      1  C   UNL     1       2.948   4.020  18.740  0.00  0.00    +0.000 A 
ATOM      2  C   UNL     1       2.960   2.818  19.487  0.00  0.00    +0.000 A 
ATOM      3  C   UNL     1       2.587   2.767  20.831  0.00  0.00    +0.000 A 
ATOM      4  C   UNL     1       2.196   3.916  21.481  0.00  0.00    +0.000 A 
ATOM      5  C   UNL     1       2.209   5.120  20.784  0.00  0.00    +0.000 A 
ATOM      6  C   UNL     1       2.591   5.212  19.420  0.00  0.00    +0.000 A 
ENDROOT
BRANCH   6   7
ATOM      7  C   UNL     1       2.571   6.630  18.893  0.00  0.00    +0.000 C 
ATOM      8  O   UNL     1       3.384   6.912  18.013  0.00  0.00    +0.000 OA
ATOM      9  N   UNL     1       1.688   7.525  19.443  0.00  0.00    +0.000 N 
ATOM     10  C   UNL     1       1.654   8.836  19.038  0.00  0.00    +0.000 A 
ATOM     11  N   UNL     1       2.257   9.406  18.027  0.00  0.00    +0.000 NA
ATOM     12  C   UNL     1       2.002  10.761  18.039  0.00  0.00    +0.000 A 
ATOM     13  C   UNL     1       1.205  11.201  19.074  0.00  0.00    +0.000 A 
ATOM     14  S   UNL     1       0.706   9.859  20.024  0.00  0.00    +0.000 S 
ATOM     15  H   UNL     1       1.091   7.261  20.214  0.00  0.00    +0.000 HD
ENDBRANCH   6   7
BRANCH   1  16
ATOM     16  S   UNL     1       3.381   3.960  16.980  0.00  0.00    +0.000 S 
BRANCH  16  17
ATOM     17  C   UNL     1       5.107   3.349  16.979  0.00  0.00    +0.000 C 
BRANCH  17  24
ATOM     18  C   UNL     1       6.593   5.642  18.751  0.00  0.00    +0.000 C 
ATOM     19  C   UNL     1       6.713   5.383  17.296  0.00  0.00    +0.000 A 
ATOM     20  N   UNL     1       7.473   6.177  16.535  0.00  0.00    +0.000 NA
ATOM     21  O   UNL     1       7.345   5.699  15.246  0.00  0.00    +0.000 OA
ATOM     22  C   UNL     1       6.511   4.628  15.238  0.00  0.00    +0.000 A 
ATOM     23  C   UNL     1       6.238   4.020  13.921  0.00  0.00    +0.000 C 
ATOM     24  C   UNL     1       6.080   4.369  16.523  0.00  0.00    +0.000 A 
ENDBRANCH  17  24
ENDBRANCH  16  17
ENDBRANCH   1  16
TORSDOF 4
ENDMDL
MODEL 5
REMARK VINA RESULT:      -8.0      1.298      1.384
REMARK  Name = 
REMARK  6 active torsions:
REMARK  status: ('A' for Active; 'I' for Inactive)
REMARK    1  A    between atoms: C_1  and  C_2
REMARK    2  A    between atoms: C_5  and  C_6
REMARK    3  A    between atoms: C_7  and  C_8
REMARK    4  A    between atoms: C_8  and  S_9
REMARK    5  A    between atoms: S_9  and  C_10
REMARK    6  A    between atoms: C_15  and  C_16
REMARK                            x       y       z     vdW  Elec       q    Type
REMARK                         _______ _______ _______ _____ _____    ______ ____
ROOT
ATOM      1  C   UNL     1       3.221   4.152  19.125  0.00  0.00    +0.000 A 
ATOM      2  C   UNL     1       3.694   2.835  19.338  0.00  0.00    +0.000 A 
ATOM      3  C   UNL     1       3.418   2.118  20.503  0.00  0.00    +0.000 A 
ATOM      4  C   UNL     1       2.666   2.694  21.503  0.00  0.00    +0.000 A 
ATOM      5  C   UNL     1       2.217   4.001  21.340  0.00  0.00    +0.000 A 
ATOM      6  C   UNL     1       2.487   4.763  20.173  0.00  0.00    +0.000 A 
ENDROOT
BRANCH   6   7
ATOM      7  C   UNL     1       1.938   6.172  20.245  0.00  0.00    +0.000 C 
ATOM      8  O   UNL     1       1.151   6.419  21.158  0.00  0.00    +0.000 OA
ATOM      9  N   UNL     1       2.310   7.074  19.281  0.00  0.00    +0.000 N 
ATOM     10  C   UNL     1       1.810   8.352  19.268  0.00  0.00    +0.000 A 
ATOM     11  N   UNL     1       1.099   8.973  20.174  0.00  0.00    +0.000 NA
ATOM     12  C   UNL     1       0.748  10.223  19.713  0.00  0.00    +0.000 A 
ATOM     13  C   UNL     1       1.201  10.532  18.448  0.00  0.00    +0.000 A 
ATOM     14  S   UNL     1       2.153   9.234  17.846  0.00  0.00    +0.000 S 
ATOM     15  H   UNL     1       2.903   6.799  18.512  0.00  0.00    +0.000 HD
ENDBRANCH   6   7
BRANCH   1  16
ATOM     16  S   UNL     1       3.577   4.964  17.543  0.00  0.00    +0.000 S 
BRANCH  16  17
ATOM     17  C   UNL     1       4.913   3.941  16.822  0.00  0.00    +0.000 C 
BRANCH  17  24
ATOM     18  C   UNL     1       5.922   3.905  13.726  0.00  0.00    +0.000 C 
ATOM     19  C   UNL     1       6.442   4.718  14.852  0.00  0.00    +0.000 A 
ATOM     20  N   UNL     1       7.487   5.530  14.666  0.00  0.00    +0.000 NA
ATOM     21  O   UNL     1       7.741   6.105  15.896  0.00  0.00    +0.000 OA
ATOM     22  C   UNL     1       6.855   5.635  16.810  0.00  0.00    +0.000 A 
ATOM     23  C   UNL     1       7.017   6.126  18.192  0.00  0.00    +0.000 C 
ATOM     24  C   UNL     1       5.989   4.749  16.201  0.00  0.00    +0.000 A 
ENDBRANCH  17  24
ENDBRANCH  16  17
ENDBRANCH   1  16
TORSDOF 4
ENDMDL
MODEL 6
REMARK VINA RESULT:      -8.0      1.128      1.225
REMARK  Name = 
REMARK  6 active torsions:
REMARK  status: ('A' for Active; 'I' for Inactive)
REMARK    1  A    between atoms: C_1  and  C_2
REMARK    2  A    between atoms: C_5  and  C_6
REMARK    3  A    between atoms: C_7  and  C_8
REMARK    4  A    between atoms: C_8  and  S_9
REMARK    5  A    between atoms: S_9  and  C_10
REMARK    6  A    between atoms: C_15  and  C_16
REMARK                            x       y       z     vdW  Elec       q    Type
REMARK                         _______ _______ _______ _____ _____    ______ ____
ROOT
ATOM      1  C   UNL     1       3.011   4.104  18.678  0.00  0.00    +0.000 A 
ATOM      2  C   UNL     1       2.983   2.909  19.435  0.00  0.00    +0.000 A 
ATOM      3  C   UNL     1       2.523   2.866  20.752  0.00  0.00    +0.000 A 
ATOM      4  C   UNL     1       2.081   4.018  21.364  0.00  0.00    +0.000 A 
ATOM      5  C   UNL     1       2.131   5.216  20.659  0.00  0.00    +0.000 A 
ATOM      6  C   UNL     1       2.601   5.299  19.322  0.00  0.00    +0.000 A 
ENDROOT
BRANCH   6   7
ATOM      7  C   UNL     1       2.605   6.713  18.782  0.00  0.00    +0.000 C 
ATOM      8  O   UNL     1       3.442   6.981  17.921  0.00  0.00    +0.000 OA
ATOM      9  N   UNL     1       1.715   7.619  19.302  0.00  0.00    +0.000 N 
ATOM     10  C   UNL     1       1.701   8.926  18.885  0.00  0.00    +0.000 A 
ATOM     11  N   UNL     1       2.333   9.483  17.884  0.00  0.00    +0.000 NA
ATOM     12  C   UNL     1       2.088  10.840  17.878  0.00  0.00    +0.000 A 
ATOM     13  C   UNL     1       1.269  11.294  18.888  0.00  0.00    +0.000 A 
ATOM     14  S   UNL     1       0.736   9.965  19.838  0.00  0.00    +0.000 S 
ATOM     15  H   UNL     1       1.097   7.366  20.060  0.00  0.00    +0.000 HD
ENDBRANCH   6   7
BRANCH   1  16
ATOM     16  S   UNL     1       3.559   4.033  16.950  0.00  0.00    +0.000 S 
BRANCH  16  17
ATOM     17  C   UNL     1       5.331   3.591  17.077  0.00  0.00    +0.000 C 
BRANCH  17  24
ATOM     18  C   UNL     1       6.061   3.712  13.905  0.00  0.00    +0.000 C 
ATOM     19  C   UNL     1       6.550   4.591  14.994  0.00  0.00    +0.000 A 
ATOM     20  N   UNL     1       7.443   5.550  14.731  0.00  0.00    +0.000 NA
ATOM     21  O   UNL     1       7.716   6.154  15.943  0.00  0.00    +0.000 OA
ATOM     22  C   UNL     1       6.992   5.555  16.923  0.00  0.00    +0.000 A 
ATOM     23  C   UNL     1       7.200   6.063  18.293  0.00  0.00    +0.000 C 
ATOM     24  C   UNL     1       6.217   4.552  16.378  0.00  0.00    +0.000 A 
ENDBRANCH  17  24
ENDBRANCH  16  17
ENDBRANCH   1  16
TORSDOF 4
ENDMDL
MODEL 7
REMARK VINA RESULT:      -7.9      1.081      1.953
REMARK  Name = 
REMARK  6 active torsions:
REMARK  status: ('A' for Active; 'I' for Inactive)
REMARK    1  A    between atoms: C_1  and  C_2
REMARK    2  A    between atoms: C_5  and  C_6
REMARK    3  A    between atoms: C_7  and  C_8
REMARK    4  A    between atoms: C_8  and  S_9
REMARK    5  A    between atoms: S_9  and  C_10
REMARK    6  A    between atoms: C_15  and  C_16
REMARK                            x       y       z     vdW  Elec       q    Type
REMARK                         _______ _______ _______ _____ _____    ______ ____
ROOT
ATOM      1  C   UNL     1       3.089   4.252  19.018  0.00  0.00    +0.000 A 
ATOM      2  C   UNL     1       3.441   2.953  19.457  0.00  0.00    +0.000 A 
ATOM      3  C   UNL     1       3.143   2.487  20.738  0.00  0.00    +0.000 A 
ATOM      4  C   UNL     1       2.488   3.305  21.632  0.00  0.00    +0.000 A 
ATOM      5  C   UNL     1       2.160   4.600  21.244  0.00  0.00    +0.000 A 
ATOM      6  C   UNL     1       2.457   5.111  19.953  0.00  0.00    +0.000 A 
ENDROOT
BRANCH   6   7
ATOM      7  C   UNL     1       2.048   6.558  19.781  0.00  0.00    +0.000 C 
ATOM      8  O   UNL     1       2.233   7.064  18.675  0.00  0.00    +0.000 OA
ATOM      9  N   UNL     1       1.536   7.232  20.861  0.00  0.00    +0.000 N 
ATOM     10  C   UNL     1       1.189   8.557  20.778  0.00  0.00    +0.000 A 
ATOM     11  N   UNL     1       1.106   9.326  19.723  0.00  0.00    +0.000 NA
ATOM     12  C   UNL     1       0.796  10.612  20.111  0.00  0.00    +0.000 A 
ATOM     13  C   UNL     1       0.652  10.799  21.469  0.00  0.00    +0.000 A 
ATOM     14  S   UNL     1       0.848   9.296  22.279  0.00  0.00    +0.000 S 
ATOM     15  H   UNL     1       1.471   6.790  21.767  0.00  0.00    +0.000 HD
ENDBRANCH   6   7
BRANCH   1  16
ATOM     16  S   UNL     1       3.459   4.729  17.308  0.00  0.00    +0.000 S 
BRANCH  16  17
ATOM     17  C   UNL     1       4.910   5.834  17.472  0.00  0.00    +0.000 C 
BRANCH  17  24
ATOM     18  C   UNL     1       7.286   5.449  19.665  0.00  0.00    +0.000 C 
ATOM     19  C   UNL     1       7.245   4.972  18.262  0.00  0.00    +0.000 A 
ATOM     20  N   UNL     1       8.297   4.335  17.739  0.00  0.00    +0.000 NA
ATOM     21  O   UNL     1       7.960   4.061  16.429  0.00  0.00    +0.000 OA
ATOM     22  C   UNL     1       6.715   4.536  16.171  0.00  0.00    +0.000 A 
ATOM     23  C   UNL     1       6.219   4.356  14.792  0.00  0.00    +0.000 C 
ATOM     24  C   UNL     1       6.199   5.122  17.308  0.00  0.00    +0.000 A 
ENDBRANCH  17  24
ENDBRANCH  16  17
ENDBRANCH   1  16
TORSDOF 4
ENDMDL
MODEL 8
REMARK VINA RESULT:      -7.8      3.135      7.071
REMARK  Name = 
REMARK  6 active torsions:
REMARK  status: ('A' for Active; 'I' for Inactive)
REMARK    1  A    between atoms: C_1  and  C_2
REMARK    2  A    between atoms: C_5  and  C_6
REMARK    3  A    between atoms: C_7  and  C_8
REMARK    4  A    between atoms: C_8  and  S_9
REMARK    5  A    between atoms: S_9  and  C_10
REMARK    6  A    between atoms: C_15  and  C_16
REMARK                            x       y       z     vdW  Elec       q    Type
REMARK                         _______ _______ _______ _____ _____    ______ ____
ROOT
ATOM      1  C   UNL     1       4.257   5.410  18.710  0.00  0.00    +0.000 A 
ATOM      2  C   UNL     1       3.270   5.817  19.639  0.00  0.00    +0.000 A 
ATOM      3  C   UNL     1       2.472   6.945  19.440  0.00  0.00    +0.000 A 
ATOM      4  C   UNL     1       2.637   7.713  18.308  0.00  0.00    +0.000 A 
ATOM      5  C   UNL     1       3.624   7.360  17.394  0.00  0.00    +0.000 A 
ATOM      6  C   UNL     1       4.460   6.226  17.569  0.00  0.00    +0.000 A 
ENDROOT
BRANCH   6   7
ATOM      7  C   UNL     1       5.488   6.074  16.469  0.00  0.00    +0.000 C 
ATOM      8  O   UNL     1       6.388   6.912  16.424  0.00  0.00    +0.000 OA
ATOM      9  N   UNL     1       5.344   5.048  15.569  0.00  0.00    +0.000 N 
ATOM     10  C   UNL     1       6.219   4.885  14.525  0.00  0.00    +0.000 A 
ATOM     11  N   UNL     1       7.356   5.490  14.295  0.00  0.00    +0.000 NA
ATOM     12  C   UNL     1       7.868   5.072  13.085  0.00  0.00    +0.000 A 
ATOM     13  C   UNL     1       7.100   4.149  12.409  0.00  0.00    +0.000 A 
ATOM     14  S   UNL     1       5.722   3.745  13.354  0.00  0.00    +0.000 S 
ATOM     15  H   UNL     1       4.547   4.429  15.608  0.00  0.00    +0.000 HD
ENDBRANCH   6   7
BRANCH   1  16
ATOM     16  S   UNL     1       5.186   3.887  19.033  0.00  0.00    +0.000 S 
BRANCH  16  17
ATOM     17  C   UNL     1       4.057   2.906  20.089  0.00  0.00    +0.000 C 
BRANCH  17  24
ATOM     18  C   UNL     1       1.209   2.799  21.663  0.00  0.00    +0.000 C 
ATOM     19  C   UNL     1       1.456   2.705  20.204  0.00  0.00    +0.000 A 
ATOM     20  N   UNL     1       0.437   2.503  19.363  0.00  0.00    +0.000 NA
ATOM     21  O   UNL     1       0.997   2.428  18.103  0.00  0.00    +0.000 OA
ATOM     22  C   UNL     1       2.343   2.580  18.194  0.00  0.00    +0.000 A 
ATOM     23  C   UNL     1       3.099   2.486  16.929  0.00  0.00    +0.000 C 
ATOM     24  C   UNL     1       2.699   2.772  19.513  0.00  0.00    +0.000 A 
ENDBRANCH  17  24
ENDBRANCH  16  17
ENDBRANCH   1  16
TORSDOF 4
ENDMDL
MODEL 9
REMARK VINA RESULT:      -7.8      1.352      2.176
REMARK  Name = 
REMARK  6 active torsions:
REMARK  status: ('A' for Active; 'I' for Inactive)
REMARK    1  A    between atoms: C_1  and  C_2
REMARK    2  A    between atoms: C_5  and  C_6
REMARK    3  A    between atoms: C_7  and  C_8
REMARK    4  A    between atoms: C_8  and  S_9
REMARK    5  A    between atoms: S_9  and  C_10
REMARK    6  A    between atoms: C_15  and  C_16
REMARK                            x       y       z     vdW  Elec       q    Type
REMARK                         _______ _______ _______ _____ _____    ______ ____
ROOT
ATOM      1  C   UNL     1       3.140   4.245  19.212  0.00  0.00    +0.000 A 
ATOM      2  C   UNL     1       3.547   2.905  19.421  0.00  0.00    +0.000 A 
ATOM      3  C   UNL     1       3.201   2.186  20.566  0.00  0.00    +0.000 A 
ATOM      4  C   UNL     1       2.443   2.781  21.549  0.00  0.00    +0.000 A 
ATOM      5  C   UNL     1       2.059   4.109  21.392  0.00  0.00    +0.000 A 
ATOM      6  C   UNL     1       2.400   4.874  20.245  0.00  0.00    +0.000 A 
ENDROOT
BRANCH   6   7
ATOM      7  C   UNL     1       1.911   6.304  20.321  0.00  0.00    +0.000 C 
ATOM      8  O   UNL     1       1.230   6.612  21.298  0.00  0.00    +0.000 OA
ATOM      9  N   UNL     1       2.215   7.160  19.292  0.00  0.00    +0.000 N 
ATOM     10  C   UNL     1       1.763   8.455  19.282  0.00  0.00    +0.000 A 
ATOM     11  N   UNL     1       1.169   9.132  20.232  0.00  0.00    +0.000 NA
ATOM     12  C   UNL     1       0.818  10.380  19.762  0.00  0.00    +0.000 A 
ATOM     13  C   UNL     1       1.151  10.629  18.448  0.00  0.00    +0.000 A 
ATOM     14  S   UNL     1       1.991   9.276  17.802  0.00  0.00    +0.000 S 
ATOM     15  H   UNL     1       2.717   6.837  18.477  0.00  0.00    +0.000 HD
ENDBRANCH   6   7
BRANCH   1  16
ATOM     16  S   UNL     1       3.583   5.061  17.654  0.00  0.00    +0.000 S 
BRANCH  16  17
ATOM     17  C   UNL     1       4.830   3.941  16.918  0.00  0.00    +0.000 C 
BRANCH  17  24
ATOM     18  C   UNL     1       6.877   6.095  18.251  0.00  0.00    +0.000 C 
ATOM     19  C   UNL     1       6.826   5.624  16.846  0.00  0.00    +0.000 A 
ATOM     20  N   UNL     1       7.662   6.134  15.937  0.00  0.00    +0.000 NA
ATOM     21  O   UNL     1       7.339   5.524  14.741  0.00  0.00    +0.000 OA
ATOM     22  C   UNL     1       6.312   4.657  14.936  0.00  0.00    +0.000 A 
ATOM     23  C   UNL     1       5.818   3.948  13.740  0.00  0.00    +0.000 C 
ATOM     24  C   UNL     1       5.944   4.667  16.266  0.00  0.00    +0.000 A 
ENDBRANCH  17  24
ENDBRANCH  16  17
ENDBRANCH   1  16
TORSDOF 4
ENDMDL
