MODEL 1
REMARK VINA RESULT:      -6.5      0.000      0.000
REMARK  Name = 
REMARK  8 active torsions:
REMARK  status: ('A' for Active; 'I' for Inactive)
REMARK    1  A    between atoms: O_1  and  C_2
REMARK    2  A    between atoms: C_2  and  C_3
REMARK    3  A    between atoms: C_2  and  C_10
REMARK    4  A    between atoms: C_3  and  N_4
REMARK    5  A    between atoms: N_4  and  C_5
REMARK    6  A    between atoms: C_10  and  O_11
REMARK    7  A    between atoms: O_11  and  C_12
REMARK    8  A    between atoms: C_12  and  C_13
REMARK                            x       y       z     vdW  Elec       q    Type
REMARK                         _______ _______ _______ _____ _____    ______ ____
ROOT
ATOM      1  C   UNL     1       7.301   5.232  17.773  0.00  0.00    +0.000 C 
ENDROOT
BRANCH   1   2
ATOM      2  O   UNL     1       8.132   4.072  17.646  0.00  0.00    +0.000 OA
ATOM      3  H   UNL     1       8.214   3.668  18.521  0.00  0.00    +0.000 HD
ENDBRANCH   1   2
BRANCH   1   4
ATOM      4  C   UNL     1       6.631   5.533  16.435  0.00  0.00    +0.000 C 
BRANCH   4   5
ATOM      5  N   UNL     1       7.579   5.432  15.324  0.00  0.00    +0.000 NA
ATOM      6  H   UNL     1       8.270   4.707  15.516  0.00  0.00    +0.000 HD
BRANCH   5   7
ATOM      7  C   UNL     1       6.903   5.137  14.068  0.00  0.00    +0.000 C 
ATOM      8  C   UNL     1       7.898   4.998  12.920  0.00  0.00    +0.000 C 
ATOM      9  C   UNL     1       7.095   4.277  11.845  0.00  0.00    +0.000 C 
ATOM     10  C   UNL     1       6.083   3.408  12.590  0.00  0.00    +0.000 C 
ATOM     11  C   UNL     1       6.193   3.785  14.061  0.00  0.00    +0.000 C 
ENDBRANCH   5   7
ENDBRANCH   4   5
ENDBRANCH   1   4
BRANCH   1  12
ATOM     12  C   UNL     1       6.282   5.005  18.900  0.00  0.00    +0.000 C 
BRANCH  12  13
ATOM     13  O   UNL     1       4.939   4.925  18.405  0.00  0.00    +0.000 OA
BRANCH  13  14
ATOM     14  C   UNL     1       4.441   3.592  18.377  0.00  0.00    +0.000 C 
BRANCH  14  15
ATOM     15  C   UNL     1       3.319   3.424  19.360  0.00  0.00    +0.000 A 
ATOM     16  C   UNL     1       3.510   2.742  20.567  0.00  0.00    +0.000 A 
ATOM     17  C   UNL     1       2.453   2.593  21.463  0.00  0.00    +0.000 A 
ATOM     18  C   UNL     1       1.210   3.145  21.159  0.00  0.00    +0.000 A 
ATOM     19  C   UNL     1       1.023   3.865  19.985  0.00  0.00    +0.000 A 
ATOM     20  C   UNL     1       2.079   4.016  19.088  0.00  0.00    +0.000 A 
ENDBRANCH  14  15
ENDBRANCH  13  14
ENDBRANCH  12  13
ENDBRANCH   1  12
TORSDOF 8
ENDMDL
MODEL 2
REMARK VINA RESULT:      -6.5      1.177      1.844
REMARK  Name = 
REMARK  8 active torsions:
REMARK  status: ('A' for Active; 'I' for Inactive)
REMARK    1  A    between atoms: O_1  and  C_2
REMARK    2  A    between atoms: C_2  and  C_3
REMARK    3  A    between atoms: C_2  and  C_10
REMARK    4  A    between atoms: C_3  and  N_4
REMARK    5  A    between atoms: N_4  and  C_5
REMARK    6  A    between atoms: C_10  and  O_11
REMARK    7  A    between atoms: O_11  and  C_12
REMARK    8  A    between atoms: C_12  and  C_13
REMARK                            x       y       z     vdW  Elec       q    Type
REMARK                         _______ _______ _______ _____ _____    ______ ____
ROOT
ATOM      1  C   UNL     1       6.126   5.059  17.794  0.00  0.00    +0.000 C 
ENDROOT
BRANCH   1   2
ATOM      2  O   UNL     1       6.831   4.545  18.930  0.00  0.00    +0.000 OA
ATOM      3  H   UNL     1       7.509   3.936  18.607  0.00  0.00    +0.000 HD
ENDBRANCH   1   2
BRANCH   1   4
ATOM      4  C   UNL     1       7.100   5.264  16.636  0.00  0.00    +0.000 C 
BRANCH   4   5
ATOM      5  N   UNL     1       6.395   5.534  15.382  0.00  0.00    +0.000 NA
ATOM      6  H   UNL     1       6.634   6.464  15.037  0.00  0.00    +0.000 HD
BRANCH   5   7
ATOM      7  C   UNL     1       6.712   4.542  14.365  0.00  0.00    +0.000 C 
ATOM      8  C   UNL     1       5.448   4.004  13.700  0.00  0.00    +0.000 C 
ATOM      9  C   UNL     1       5.971   3.359  12.423  0.00  0.00    +0.000 C 
ATOM     10  C   UNL     1       7.216   4.153  12.032  0.00  0.00    +0.000 C 
ATOM     11  C   UNL     1       7.494   5.110  13.183  0.00  0.00    +0.000 C 
ENDBRANCH   5   7
ENDBRANCH   4   5
ENDBRANCH   1   4
BRANCH   1  12
ATOM     12  C   UNL     1       4.978   4.105  17.432  0.00  0.00    +0.000 C 
BRANCH  12  13
ATOM     13  O   UNL     1       3.809   4.809  16.994  0.00  0.00    +0.000 OA
BRANCH  13  14
ATOM     14  C   UNL     1       3.212   5.582  18.028  0.00  0.00    +0.000 C 
BRANCH  14  15
ATOM     15  C   UNL     1       2.458   4.702  18.981  0.00  0.00    +0.000 A 
ATOM     16  C   UNL     1       1.527   3.765  18.518  0.00  0.00    +0.000 A 
ATOM     17  C   UNL     1       0.833   2.960  19.421  0.00  0.00    +0.000 A 
ATOM     18  C   UNL     1       1.088   3.081  20.786  0.00  0.00    +0.000 A 
ATOM     19  C   UNL     1       2.045   3.975  21.252  0.00  0.00    +0.000 A 
ATOM     20  C   UNL     1       2.740   4.779  20.351  0.00  0.00    +0.000 A 
ENDBRANCH  14  15
ENDBRANCH  13  14
ENDBRANCH  12  13
ENDBRANCH   1  12
TORSDOF 8
ENDMDL
MODEL 3
REMARK VINA RESULT:      -6.5      1.149      1.632
REMARK  Name = 
REMARK  8 active torsions:
REMARK  status: ('A' for Active; 'I' for Inactive)
REMARK    1  A    between atoms: O_1  and  C_2
REMARK    2  A    between atoms: C_2  and  C_3
REMARK    3  A    between atoms: C_2  and  C_10
REMARK    4  A    between atoms: C_3  and  N_4
REMARK    5  A    between atoms: N_4  and  C_5
REMARK    6  A    between atoms: C_10  and  O_11
REMARK    7  A    between atoms: O_11  and  C_12
REMARK    8  A    between atoms: C_12  and  C_13
REMARK                            x       y       z     vdW  Elec       q    Type
REMARK                         _______ _______ _______ _____ _____    ______ ____
ROOT
ATOM      1  C   UNL     1       6.459   5.436  17.683  0.00  0.00    +0.000 C 
ENDROOT
BRANCH   1   2
ATOM      2  O   UNL     1       7.280   4.270  17.813  0.00  0.00    +0.000 OA
ATOM      3  H   UNL     1       8.008   4.486  18.414  0.00  0.00    +0.000 HD
ENDBRANCH   1   2
BRANCH   1   4
ATOM      4  C   UNL     1       6.287   5.781  16.205  0.00  0.00    +0.000 C 
BRANCH   4   5
ATOM      5  N   UNL     1       7.530   5.580  15.458  0.00  0.00    +0.000 NA
ATOM      6  H   UNL     1       8.275   5.284  16.088  0.00  0.00    +0.000 HD
BRANCH   5   7
ATOM      7  C   UNL     1       7.365   4.592  14.401  0.00  0.00    +0.000 C 
ATOM      8  C   UNL     1       5.896   4.231  14.201  0.00  0.00    +0.000 C 
ATOM      9  C   UNL     1       5.881   3.572  12.828  0.00  0.00    +0.000 C 
ATOM     10  C   UNL     1       7.014   4.226  12.037  0.00  0.00    +0.000 C 
ATOM     11  C   UNL     1       7.774   5.103  13.021  0.00  0.00    +0.000 C 
ENDBRANCH   5   7
ENDBRANCH   4   5
ENDBRANCH   1   4
BRANCH   1  12
ATOM     12  C   UNL     1       5.115   5.193  18.388  0.00  0.00    +0.000 C 
BRANCH  12  13
ATOM     13  O   UNL     1       4.003   5.341  17.495  0.00  0.00    +0.000 OA
BRANCH  13  14
ATOM     14  C   UNL     1       2.839   5.840  18.143  0.00  0.00    +0.000 C 
BRANCH  14  15
ATOM     15  C   UNL     1       2.142   4.746  18.897  0.00  0.00    +0.000 A 
ATOM     16  C   UNL     1       1.990   4.808  20.287  0.00  0.00    +0.000 A 
ATOM     17  C   UNL     1       1.343   3.778  20.969  0.00  0.00    +0.000 A 
ATOM     18  C   UNL     1       0.830   2.697  20.255  0.00  0.00    +0.000 A 
ATOM     19  C   UNL     1       0.933   2.649  18.870  0.00  0.00    +0.000 A 
ATOM     20  C   UNL     1       1.579   3.678  18.186  0.00  0.00    +0.000 A 
ENDBRANCH  14  15
ENDBRANCH  13  14
ENDBRANCH  12  13
ENDBRANCH   1  12
TORSDOF 8
ENDMDL
MODEL 4
REMARK VINA RESULT:      -6.4      0.746      1.530
REMARK  Name = 
REMARK  8 active torsions:
REMARK  status: ('A' for Active; 'I' for Inactive)
REMARK    1  A    between atoms: O_1  and  C_2
REMARK    2  A    between atoms: C_2  and  C_3
REMARK    3  A    between atoms: C_2  and  C_10
REMARK    4  A    between atoms: C_3  and  N_4
REMARK    5  A    between atoms: N_4  and  C_5
REMARK    6  A    between atoms: C_10  and  O_11
REMARK    7  A    between atoms: O_11  and  C_12
REMARK    8  A    between atoms: C_12  and  C_13
REMARK                            x       y       z     vdW  Elec       q    Type
REMARK                         _______ _______ _______ _____ _____    ______ ____
ROOT
ATOM      1  C   UNL     1       6.927   5.407  17.969  0.00  0.00    +0.000 C 
ENDROOT
BRANCH   1   2
ATOM      2  O   UNL     1       7.717   4.214  17.921  0.00  0.00    +0.000 OA
ATOM      3  H   UNL     1       8.646   4.476  17.858  0.00  0.00    +0.000 HD
ENDBRANCH   1   2
BRANCH   1   4
ATOM      4  C   UNL     1       6.390   5.724  16.575  0.00  0.00    +0.000 C 
BRANCH   4   5
ATOM      5  N   UNL     1       7.456   5.707  15.572  0.00  0.00    +0.000 NA
ATOM      6  H   UNL     1       8.361   5.568  16.022  0.00  0.00    +0.000 HD
BRANCH   5   7
ATOM      7  C   UNL     1       7.241   4.664  14.579  0.00  0.00    +0.000 C 
ATOM      8  C   UNL     1       5.754   4.381  14.384  0.00  0.00    +0.000 C 
ATOM      9  C   UNL     1       5.711   3.636  13.056  0.00  0.00    +0.000 C 
ATOM     10  C   UNL     1       6.889   4.166  12.239  0.00  0.00    +0.000 C 
ATOM     11  C   UNL     1       7.693   5.058  13.174  0.00  0.00    +0.000 C 
ENDBRANCH   5   7
ENDBRANCH   4   5
ENDBRANCH   1   4
BRANCH   1  12
ATOM     12  C   UNL     1       5.804   5.233  19.003  0.00  0.00    +0.000 C 
BRANCH  12  13
ATOM     13  O   UNL     1       5.469   3.854  19.208  0.00  0.00    +0.000 OA
BRANCH  13  14
ATOM     14  C   UNL     1       4.400   3.418  18.377  0.00  0.00    +0.000 C 
BRANCH  14  15
ATOM     15  C   UNL     1       3.135   3.272  19.171  0.00  0.00    +0.000 A 
ATOM     16  C   UNL     1       1.927   2.931  18.552  0.00  0.00    +0.000 A 
ATOM     17  C   UNL     1       0.762   2.805  19.308  0.00  0.00    +0.000 A 
ATOM     18  C   UNL     1       0.813   3.001  20.687  0.00  0.00    +0.000 A 
ATOM     19  C   UNL     1       2.016   3.293  21.317  0.00  0.00    +0.000 A 
ATOM     20  C   UNL     1       3.182   3.418  20.563  0.00  0.00    +0.000 A 
ENDBRANCH  14  15
ENDBRANCH  13  14
ENDBRANCH  12  13
ENDBRANCH   1  12
TORSDOF 8
ENDMDL
MODEL 5
REMARK VINA RESULT:      -6.4      1.260      1.397
REMARK  Name = 
REMARK  8 active torsions:
REMARK  status: ('A' for Active; 'I' for Inactive)
REMARK    1  A    between atoms: O_1  and  C_2
REMARK    2  A    between atoms: C_2  and  C_3
REMARK    3  A    between atoms: C_2  and  C_10
REMARK    4  A    between atoms: C_3  and  N_4
REMARK    5  A    between atoms: N_4  and  C_5
REMARK    6  A    between atoms: C_10  and  O_11
REMARK    7  A    between atoms: O_11  and  C_12
REMARK    8  A    between atoms: C_12  and  C_13
REMARK                            x       y       z     vdW  Elec       q    Type
REMARK                         _______ _______ _______ _____ _____    ______ ____
ROOT
ATOM      1  C   UNL     1       6.300   5.405  17.668  0.00  0.00    +0.000 C 
ENDROOT
BRANCH   1   2
ATOM      2  O   UNL     1       6.250   4.629  18.871  0.00  0.00    +0.000 OA
ATOM      3  H   UNL     1       6.167   5.242  19.615  0.00  0.00    +0.000 HD
ENDBRANCH   1   2
BRANCH   1   4
ATOM      4  C   UNL     1       6.881   4.560  16.537  0.00  0.00    +0.000 C 
BRANCH   4   5
ATOM      5  N   UNL     1       7.449   5.396  15.478  0.00  0.00    +0.000 NA
ATOM      6  H   UNL     1       8.455   5.242  15.409  0.00  0.00    +0.000 HD
BRANCH   5   7
ATOM      7  C   UNL     1       6.826   5.125  14.189  0.00  0.00    +0.000 C 
ATOM      8  C   UNL     1       7.865   5.056  13.074  0.00  0.00    +0.000 C 
ATOM      9  C   UNL     1       7.123   4.349  11.947  0.00  0.00    +0.000 C 
ATOM     10  C   UNL     1       6.114   3.423  12.626  0.00  0.00    +0.000 C 
ATOM     11  C   UNL     1       6.162   3.752  14.111  0.00  0.00    +0.000 C 
ENDBRANCH   5   7
ENDBRANCH   4   5
ENDBRANCH   1   4
BRANCH   1  12
ATOM     12  C   UNL     1       4.894   5.931  17.343  0.00  0.00    +0.000 C 
BRANCH  12  13
ATOM     13  O   UNL     1       4.104   6.125  18.524  0.00  0.00    +0.000 OA
BRANCH  13  14
ATOM     14  C   UNL     1       2.718   5.889  18.304  0.00  0.00    +0.000 C 
BRANCH  14  15
ATOM     15  C   UNL     1       2.215   4.804  19.210  0.00  0.00    +0.000 A 
ATOM     16  C   UNL     1       2.558   4.777  20.567  0.00  0.00    +0.000 A 
ATOM     17  C   UNL     1       2.083   3.756  21.390  0.00  0.00    +0.000 A 
ATOM     18  C   UNL     1       1.248   2.776  20.858  0.00  0.00    +0.000 A 
ATOM     19  C   UNL     1       0.864   2.821  19.523  0.00  0.00    +0.000 A 
ATOM     20  C   UNL     1       1.336   3.841  18.699  0.00  0.00    +0.000 A 
ENDBRANCH  14  15
ENDBRANCH  13  14
ENDBRANCH  12  13
ENDBRANCH   1  12
TORSDOF 8
ENDMDL
MODEL 6
REMARK VINA RESULT:      -6.4      1.543      1.921
REMARK  Name = 
REMARK  8 active torsions:
REMARK  status: ('A' for Active; 'I' for Inactive)
REMARK    1  A    between atoms: O_1  and  C_2
REMARK    2  A    between atoms: C_2  and  C_3
REMARK    3  A    between atoms: C_2  and  C_10
REMARK    4  A    between atoms: C_3  and  N_4
REMARK    5  A    between atoms: N_4  and  C_5
REMARK    6  A    between atoms: C_10  and  O_11
REMARK    7  A    between atoms: O_11  and  C_12
REMARK    8  A    between atoms: C_12  and  C_13
REMARK                            x       y       z     vdW  Elec       q    Type
REMARK                         _______ _______ _______ _____ _____    ______ ____
ROOT
ATOM      1  C   UNL     1       5.865   4.432  18.183  0.00  0.00    +0.000 C 
ENDROOT
BRANCH   1   2
ATOM      2  O   UNL     1       5.431   3.248  18.863  0.00  0.00    +0.000 OA
ATOM      3  H   UNL     1       6.117   2.575  18.753  0.00  0.00    +0.000 HD
ENDBRANCH   1   2
BRANCH   1   4
ATOM      4  C   UNL     1       5.622   4.281  16.683  0.00  0.00    +0.000 C 
BRANCH   4   5
ATOM      5  N   UNL     1       6.515   5.141  15.905  0.00  0.00    +0.000 NA
ATOM      6  H   UNL     1       7.489   4.915  16.110  0.00  0.00    +0.000 HD
BRANCH   5   7
ATOM      7  C   UNL     1       6.276   5.006  14.475  0.00  0.00    +0.000 C 
ATOM      8  C   UNL     1       7.575   5.113  13.682  0.00  0.00    +0.000 C 
ATOM      9  C   UNL     1       7.208   4.522  12.326  0.00  0.00    +0.000 C 
ATOM     10  C   UNL     1       6.122   3.483  12.603  0.00  0.00    +0.000 C 
ATOM     11  C   UNL     1       5.752   3.630  14.072  0.00  0.00    +0.000 C 
ENDBRANCH   5   7
ENDBRANCH   4   5
ENDBRANCH   1   4
BRANCH   1  12
ATOM     12  C   UNL     1       5.141   5.652  18.774  0.00  0.00    +0.000 C 
BRANCH  12  13
ATOM     13  O   UNL     1       4.187   6.208  17.859  0.00  0.00    +0.000 OA
BRANCH  13  14
ATOM     14  C   UNL     1       2.949   6.529  18.481  0.00  0.00    +0.000 C 
BRANCH  14  15
ATOM     15  C   UNL     1       2.222   5.282  18.892  0.00  0.00    +0.000 A 
ATOM     16  C   UNL     1       1.940   4.271  17.966  0.00  0.00    +0.000 A 
ATOM     17  C   UNL     1       1.259   3.123  18.367  0.00  0.00    +0.000 A 
ATOM     18  C   UNL     1       0.880   2.978  19.700  0.00  0.00    +0.000 A 
ATOM     19  C   UNL     1       1.197   3.955  20.636  0.00  0.00    +0.000 A 
ATOM     20  C   UNL     1       1.878   5.103  20.237  0.00  0.00    +0.000 A 
ENDBRANCH  14  15
ENDBRANCH  13  14
ENDBRANCH  12  13
ENDBRANCH   1  12
TORSDOF 8
ENDMDL
MODEL 7
REMARK VINA RESULT:      -6.4      3.275      4.412
REMARK  Name = 
REMARK  8 active torsions:
REMARK  status: ('A' for Active; 'I' for Inactive)
REMARK    1  A    between atoms: O_1  and  C_2
REMARK    2  A    between atoms: C_2  and  C_3
REMARK    3  A    between atoms: C_2  and  C_10
REMARK    4  A    between atoms: C_3  and  N_4
REMARK    5  A    between atoms: N_4  and  C_5
REMARK    6  A    between atoms: C_10  and  O_11
REMARK    7  A    between atoms: O_11  and  C_12
REMARK    8  A    between atoms: C_12  and  C_13
REMARK                            x       y       z     vdW  Elec       q    Type
REMARK                         _______ _______ _______ _____ _____    ______ ____
ROOT
ATOM      1  C   UNL     1       4.337   2.339  19.621  0.00  0.00    +0.000 C 
ENDROOT
BRANCH   1   2
ATOM      2  O   UNL     1       5.269   1.317  19.993  0.00  0.00    +0.000 OA
ATOM      3  H   UNL     1       5.697   0.998  19.186  0.00  0.00    +0.000 HD
ENDBRANCH   1   2
BRANCH   1   4
ATOM      4  C   UNL     1       5.076   3.478  18.922  0.00  0.00    +0.000 C 
BRANCH   4   5
ATOM      5  N   UNL     1       5.147   4.671  19.766  0.00  0.00    +0.000 NA
ATOM      6  H   UNL     1       5.625   4.456  20.641  0.00  0.00    +0.000 HD
BRANCH   5   7
ATOM      7  C   UNL     1       5.836   5.763  19.092  0.00  0.00    +0.000 C 
ATOM      8  C   UNL     1       7.336   5.732  19.374  0.00  0.00    +0.000 C 
ATOM      9  C   UNL     1       7.917   6.619  18.281  0.00  0.00    +0.000 C 
ATOM     10  C   UNL     1       6.978   6.477  17.083  0.00  0.00    +0.000 C 
ATOM     11  C   UNL     1       5.782   5.670  17.569  0.00  0.00    +0.000 C 
ENDBRANCH   5   7
ENDBRANCH   4   5
ENDBRANCH   1   4
BRANCH   1  12
ATOM     12  C   UNL     1       3.237   1.727  18.740  0.00  0.00    +0.000 C 
BRANCH  12  13
ATOM     13  O   UNL     1       1.933   1.896  19.312  0.00  0.00    +0.000 OA
BRANCH  13  14
ATOM     14  C   UNL     1       1.136   2.834  18.597  0.00  0.00    +0.000 C 
BRANCH  14  15
ATOM     15  C   UNL     1       1.517   4.239  18.959  0.00  0.00    +0.000 A 
ATOM     16  C   UNL     1       1.482   4.679  20.287  0.00  0.00    +0.000 A 
ATOM     17  C   UNL     1       1.836   5.990  20.602  0.00  0.00    +0.000 A 
ATOM     18  C   UNL     1       2.244   6.855  19.587  0.00  0.00    +0.000 A 
ATOM     19  C   UNL     1       2.328   6.413  18.272  0.00  0.00    +0.000 A 
ATOM     20  C   UNL     1       1.976   5.102  17.956  0.00  0.00    +0.000 A 
ENDBRANCH  14  15
ENDBRANCH  13  14
ENDBRANCH  12  13
ENDBRANCH   1  12
TORSDOF 8
ENDMDL
MODEL 8
REMARK VINA RESULT:      -6.4      1.434      1.881
REMARK  Name = 
REMARK  8 active torsions:
REMARK  status: ('A' for Active; 'I' for Inactive)
REMARK    1  A    between atoms: O_1  and  C_2
REMARK    2  A    between atoms: C_2  and  C_3
REMARK    3  A    between atoms: C_2  and  C_10
REMARK    4  A    between atoms: C_3  and  N_4
REMARK    5  A    between atoms: N_4  and  C_5
REMARK    6  A    between atoms: C_10  and  O_11
REMARK    7  A    between atoms: O_11  and  C_12
REMARK    8  A    between atoms: C_12  and  C_13
REMARK                            x       y       z     vdW  Elec       q    Type
REMARK                         _______ _______ _______ _____ _____    ______ ____
ROOT
ATOM      1  C   UNL     1       6.197   5.910  17.477  0.00  0.00    +0.000 C 
ENDROOT
BRANCH   1   2
ATOM      2  O   UNL     1       6.582   7.260  17.194  0.00  0.00    +0.000 OA
ATOM      3  H   UNL     1       6.164   7.832  17.853  0.00  0.00    +0.000 HD
ENDBRANCH   1   2
BRANCH   1   4
ATOM      4  C   UNL     1       6.995   4.952  16.595  0.00  0.00    +0.000 C 
BRANCH   4   5
ATOM      5  N   UNL     1       7.284   5.541  15.287  0.00  0.00    +0.000 NA
ATOM      6  H   UNL     1       8.202   5.986  15.296  0.00  0.00    +0.000 HD
BRANCH   5   7
ATOM      7  C   UNL     1       7.239   4.542  14.228  0.00  0.00    +0.000 C 
ATOM      8  C   UNL     1       5.808   4.088  13.953  0.00  0.00    +0.000 C 
ATOM      9  C   UNL     1       5.908   3.426  12.585  0.00  0.00    +0.000 C 
ATOM     10  C   UNL     1       7.038   4.148  11.851  0.00  0.00    +0.000 C 
ATOM     11  C   UNL     1       7.688   5.074  12.869  0.00  0.00    +0.000 C 
ENDBRANCH   5   7
ENDBRANCH   4   5
ENDBRANCH   1   4
BRANCH   1  12
ATOM     12  C   UNL     1       6.394   5.628  18.975  0.00  0.00    +0.000 C 
BRANCH  12  13
ATOM     13  O   UNL     1       5.160   5.306  19.631  0.00  0.00    +0.000 OA
BRANCH  13  14
ATOM     14  C   UNL     1       4.018   5.704  18.881  0.00  0.00    +0.000 C 
BRANCH  14  15
ATOM     15  C   UNL     1       2.898   4.720  19.058  0.00  0.00    +0.000 A 
ATOM     16  C   UNL     1       2.715   3.664  18.159  0.00  0.00    +0.000 A 
ATOM     17  C   UNL     1       1.666   2.764  18.338  0.00  0.00    +0.000 A 
ATOM     18  C   UNL     1       0.812   2.911  19.431  0.00  0.00    +0.000 A 
ATOM     19  C   UNL     1       1.015   3.929  20.355  0.00  0.00    +0.000 A 
ATOM     20  C   UNL     1       2.064   4.829  20.178  0.00  0.00    +0.000 A 
ENDBRANCH  14  15
ENDBRANCH  13  14
ENDBRANCH  12  13
ENDBRANCH   1  12
TORSDOF 8
ENDMDL
MODEL 9
REMARK VINA RESULT:      -6.3      1.683      7.062
REMARK  Name = 
REMARK  8 active torsions:
REMARK  status: ('A' for Active; 'I' for Inactive)
REMARK    1  A    between atoms: O_1  and  C_2
REMARK    2  A    between atoms: C_2  and  C_3
REMARK    3  A    between atoms: C_2  and  C_10
REMARK    4  A    between atoms: C_3  and  N_4
REMARK    5  A    between atoms: N_4  and  C_5
REMARK    6  A    between atoms: C_10  and  O_11
REMARK    7  A    between atoms: O_11  and  C_12
REMARK    8  A    between atoms: C_12  and  C_13
REMARK                            x       y       z     vdW  Elec       q    Type
REMARK                         _______ _______ _______ _____ _____    ______ ____
ROOT
ATOM      1  C   UNL     1       5.485   4.391  18.368  0.00  0.00    +0.000 C 
ENDROOT
BRANCH   1   2
ATOM      2  O   UNL     1       5.544   3.127  19.039  0.00  0.00    +0.000 OA
ATOM      3  H   UNL     1       5.548   2.434  18.364  0.00  0.00    +0.000 HD
ENDBRANCH   1   2
BRANCH   1   4
ATOM      4  C   UNL     1       4.610   5.355  19.165  0.00  0.00    +0.000 C 
BRANCH   4   5
ATOM      5  N   UNL     1       3.376   5.679  18.449  0.00  0.00    +0.000 NA
ATOM      6  H   UNL     1       3.428   5.342  17.487  0.00  0.00    +0.000 HD
BRANCH   5   7
ATOM      7  C   UNL     1       2.210   5.102  19.103  0.00  0.00    +0.000 C 
ATOM      8  C   UNL     1       1.862   3.737  18.516  0.00  0.00    +0.000 C 
ATOM      9  C   UNL     1       0.954   3.122  19.574  0.00  0.00    +0.000 C 
ATOM     10  C   UNL     1       1.410   3.707  20.909  0.00  0.00    +0.000 C 
ATOM     11  C   UNL     1       2.436   4.783  20.579  0.00  0.00    +0.000 C 
ENDBRANCH   5   7
ENDBRANCH   4   5
ENDBRANCH   1   4
BRANCH   1  12
ATOM     12  C   UNL     1       6.911   4.926  18.165  0.00  0.00    +0.000 C 
BRANCH  12  13
ATOM     13  O   UNL     1       7.278   4.976  16.780  0.00  0.00    +0.000 OA
BRANCH  13  14
ATOM     14  C   UNL     1       6.170   5.237  15.927  0.00  0.00    +0.000 C 
BRANCH  14  15
ATOM     15  C   UNL     1       6.463   4.789  14.525  0.00  0.00    +0.000 A 
ATOM     16  C   UNL     1       5.646   3.855  13.878  0.00  0.00    +0.000 A 
ATOM     17  C   UNL     1       5.938   3.449  12.577  0.00  0.00    +0.000 A 
ATOM     18  C   UNL     1       7.038   3.995  11.917  0.00  0.00    +0.000 A 
ATOM     19  C   UNL     1       7.827   4.958  12.534  0.00  0.00    +0.000 A 
ATOM     20  C   UNL     1       7.535   5.366  13.834  0.00  0.00    +0.000 A 
ENDBRANCH  14  15
ENDBRANCH  13  14
ENDBRANCH  12  13
ENDBRANCH   1  12
TORSDOF 8
ENDMDL
