MODEL 1
REMARK VINA RESULT:      -7.2      0.000      0.000
REMARK  Name = 
REMARK  4 active torsions:
REMARK  status: ('A' for Active; 'I' for Inactive)
REMARK    1  A    between atoms: C_2  and  O_3
REMARK    2  A    between atoms: C_2  and  C_12
REMARK    3  A    between atoms: O_3  and  C_4
REMARK    4  A    between atoms: C_4  and  C_6
REMARK                            x       y       z     vdW  Elec       q    Type
REMARK                         _______ _______ _______ _____ _____    ______ ____
ROOT
ATOM      1  O   UNL     1       6.648   4.163  16.831  0.00  0.00    +0.000 OA
ENDROOT
BRANCH   1   3
ATOM      2  O   UNL     1       7.380   6.306  16.310  0.00  0.00    +0.000 OA
ATOM      3  C   UNL     1       7.017   5.179  16.005  0.00  0.00    +0.000 C 
BRANCH   3   4
ATOM      4  C   UNL     1       6.908   4.806  14.564  0.00  0.00    +0.000 A 
ATOM      5  C   UNL     1       5.915   3.873  14.212  0.00  0.00    +0.000 A 
ATOM      6  C   UNL     1       5.785   3.423  12.898  0.00  0.00    +0.000 A 
ATOM      7  C   UNL     1       6.643   3.908  11.915  0.00  0.00    +0.000 A 
ATOM      8  C   UNL     1       7.612   4.858  12.245  0.00  0.00    +0.000 A 
ATOM      9  C   UNL     1       7.747   5.311  13.564  0.00  0.00    +0.000 A 
ENDBRANCH   3   4
ENDBRANCH   1   3
BRANCH   1  10
ATOM     10  C   UNL     1       6.064   4.540  18.000  0.00  0.00    +0.000 C 
ATOM     11  O   UNL     1       6.606   4.845  19.048  0.00  0.00    +0.000 OA
BRANCH  10  12
ATOM     12  C   UNL     1       4.573   4.569  17.908  0.00  0.00    +0.000 A 
ATOM     13  C   UNL     1       3.935   3.403  17.446  0.00  0.00    +0.000 A 
ATOM     14  C   UNL     1       2.547   3.345  17.323  0.00  0.00    +0.000 A 
ATOM     15  C   UNL     1       1.777   4.451  17.663  0.00  0.00    +0.000 A 
ATOM     16  C   UNL     1       2.395   5.615  18.128  0.00  0.00    +0.000 A 
ATOM     17  C   UNL     1       3.790   5.678  18.253  0.00  0.00    +0.000 A 
ENDBRANCH  10  12
ENDBRANCH   1  10
TORSDOF 4
ENDMDL
MODEL 2
REMARK VINA RESULT:      -7.1      0.162      5.275
REMARK  Name = 
REMARK  4 active torsions:
REMARK  status: ('A' for Active; 'I' for Inactive)
REMARK    1  A    between atoms: C_2  and  O_3
REMARK    2  A    between atoms: C_2  and  C_12
REMARK    3  A    between atoms: O_3  and  C_4
REMARK    4  A    between atoms: C_4  and  C_6
REMARK                            x       y       z     vdW  Elec       q    Type
REMARK                         _______ _______ _______ _____ _____    ______ ____
ROOT
ATOM      1  O   UNL     1       6.787   4.250  17.007  0.00  0.00    +0.000 OA
ENDROOT
BRANCH   1   3
ATOM      2  O   UNL     1       6.675   4.962  19.216  0.00  0.00    +0.000 OA
ATOM      3  C   UNL     1       6.165   4.634  18.154  0.00  0.00    +0.000 C 
BRANCH   3   4
ATOM      4  C   UNL     1       4.678   4.594  18.033  0.00  0.00    +0.000 A 
ATOM      5  C   UNL     1       4.101   3.399  17.563  0.00  0.00    +0.000 A 
ATOM      6  C   UNL     1       2.724   3.298  17.362  0.00  0.00    +0.000 A 
ATOM      7  C   UNL     1       1.904   4.388  17.638  0.00  0.00    +0.000 A 
ATOM      8  C   UNL     1       2.460   5.568  18.135  0.00  0.00    +0.000 A 
ATOM      9  C   UNL     1       3.843   5.676  18.337  0.00  0.00    +0.000 A 
ENDBRANCH   3   4
ENDBRANCH   1   3
BRANCH   1  10
ATOM     10  C   UNL     1       7.025   5.243  16.109  0.00  0.00    +0.000 C 
ATOM     11  O   UNL     1       7.337   6.400  16.330  0.00  0.00    +0.000 OA
BRANCH  10  12
ATOM     12  C   UNL     1       6.873   4.780  14.696  0.00  0.00    +0.000 A 
ATOM     13  C   UNL     1       7.751   5.328  13.743  0.00  0.00    +0.000 A 
ATOM     14  C   UNL     1       7.676   4.958  12.400  0.00  0.00    +0.000 A 
ATOM     15  C   UNL     1       6.723   4.032  11.992  0.00  0.00    +0.000 A 
ATOM     16  C   UNL     1       5.846   3.475  12.927  0.00  0.00    +0.000 A 
ATOM     17  C   UNL     1       5.919   3.844  14.278  0.00  0.00    +0.000 A 
ENDBRANCH  10  12
ENDBRANCH   1  10
TORSDOF 4
ENDMDL
MODEL 3
REMARK VINA RESULT:      -7.1      0.275      1.678
REMARK  Name = 
REMARK  4 active torsions:
REMARK  status: ('A' for Active; 'I' for Inactive)
REMARK    1  A    between atoms: C_2  and  O_3
REMARK    2  A    between atoms: C_2  and  C_12
REMARK    3  A    between atoms: O_3  and  C_4
REMARK    4  A    between atoms: C_4  and  C_6
REMARK                            x       y       z     vdW  Elec       q    Type
REMARK                         _______ _______ _______ _____ _____    ______ ____
ROOT
ATOM      1  O   UNL     1       6.723   4.366  17.042  0.00  0.00    +0.000 OA
ENDROOT
BRANCH   1   3
ATOM      2  O   UNL     1       6.701   6.574  16.316  0.00  0.00    +0.000 OA
ATOM      3  C   UNL     1       6.723   5.367  16.120  0.00  0.00    +0.000 C 
BRANCH   3   4
ATOM      4  C   UNL     1       6.720   4.848  14.721  0.00  0.00    +0.000 A 
ATOM      5  C   UNL     1       7.670   5.386  13.832  0.00  0.00    +0.000 A 
ATOM      6  C   UNL     1       7.696   5.002  12.491  0.00  0.00    +0.000 A 
ATOM      7  C   UNL     1       6.778   4.067  12.023  0.00  0.00    +0.000 A 
ATOM      8  C   UNL     1       5.851   3.502  12.902  0.00  0.00    +0.000 A 
ATOM      9  C   UNL     1       5.819   3.887  14.249  0.00  0.00    +0.000 A 
ENDBRANCH   3   4
ENDBRANCH   1   3
BRANCH   1  10
ATOM     10  C   UNL     1       6.010   4.613  18.174  0.00  0.00    +0.000 C 
ATOM     11  O   UNL     1       6.429   4.934  19.273  0.00  0.00    +0.000 OA
BRANCH  10  12
ATOM     12  C   UNL     1       4.539   4.458  17.965  0.00  0.00    +0.000 A 
ATOM     13  C   UNL     1       3.727   5.566  18.271  0.00  0.00    +0.000 A 
ATOM     14  C   UNL     1       2.342   5.507  18.112  0.00  0.00    +0.000 A 
ATOM     15  C   UNL     1       1.750   4.340  17.642  0.00  0.00    +0.000 A 
ATOM     16  C   UNL     1       2.543   3.233  17.329  0.00  0.00    +0.000 A 
ATOM     17  C   UNL     1       3.936   3.288  17.487  0.00  0.00    +0.000 A 
ENDBRANCH  10  12
ENDBRANCH   1  10
TORSDOF 4
ENDMDL
MODEL 4
REMARK VINA RESULT:      -6.9      3.535      4.762
REMARK  Name = 
REMARK  4 active torsions:
REMARK  status: ('A' for Active; 'I' for Inactive)
REMARK    1  A    between atoms: C_2  and  O_3
REMARK    2  A    between atoms: C_2  and  C_12
REMARK    3  A    between atoms: O_3  and  C_4
REMARK    4  A    between atoms: C_4  and  C_6
REMARK                            x       y       z     vdW  Elec       q    Type
REMARK                         _______ _______ _______ _____ _____    ______ ____
ROOT
ATOM      1  O   UNL     1       3.304   4.679  17.312  0.00  0.00    +0.000 OA
ENDROOT
BRANCH   1   3
ATOM      2  O   UNL     1       2.890   6.904  17.838  0.00  0.00    +0.000 OA
ATOM      3  C   UNL     1       3.624   5.932  17.735  0.00  0.00    +0.000 C 
BRANCH   3   4
ATOM      4  C   UNL     1       5.073   6.066  18.065  0.00  0.00    +0.000 A 
ATOM      5  C   UNL     1       5.852   6.885  17.227  0.00  0.00    +0.000 A 
ATOM      6  C   UNL     1       7.227   7.017  17.428  0.00  0.00    +0.000 A 
ATOM      7  C   UNL     1       7.838   6.337  18.477  0.00  0.00    +0.000 A 
ATOM      8  C   UNL     1       7.072   5.546  19.335  0.00  0.00    +0.000 A 
ATOM      9  C   UNL     1       5.691   5.409  19.136  0.00  0.00    +0.000 A 
ENDBRANCH   3   4
ENDBRANCH   1   3
BRANCH   1  10
ATOM     10  C   UNL     1       2.102   4.206  17.738  0.00  0.00    +0.000 C 
ATOM     11  O   UNL     1       1.045   4.180  17.131  0.00  0.00    +0.000 OA
BRANCH  10  12
ATOM     12  C   UNL     1       2.164   3.660  19.127  0.00  0.00    +0.000 A 
ATOM     13  C   UNL     1       3.304   2.911  19.472  0.00  0.00    +0.000 A 
ATOM     14  C   UNL     1       3.443   2.358  20.746  0.00  0.00    +0.000 A 
ATOM     15  C   UNL     1       2.444   2.550  21.693  0.00  0.00    +0.000 A 
ATOM     16  C   UNL     1       1.308   3.296  21.368  0.00  0.00    +0.000 A 
ATOM     17  C   UNL     1       1.165   3.853  20.089  0.00  0.00    +0.000 A 
ENDBRANCH  10  12
ENDBRANCH   1  10
TORSDOF 4
ENDMDL
MODEL 5
REMARK VINA RESULT:      -6.9      3.179      6.331
REMARK  Name = 
REMARK  4 active torsions:
REMARK  status: ('A' for Active; 'I' for Inactive)
REMARK    1  A    between atoms: C_2  and  O_3
REMARK    2  A    between atoms: C_2  and  C_12
REMARK    3  A    between atoms: O_3  and  C_4
REMARK    4  A    between atoms: C_4  and  C_6
REMARK                            x       y       z     vdW  Elec       q    Type
REMARK                         _______ _______ _______ _____ _____    ______ ____
ROOT
ATOM      1  O   UNL     1       3.453   5.429  17.379  0.00  0.00    +0.000 OA
ENDROOT
BRANCH   1   3
ATOM      2  O   UNL     1       2.823   7.062  18.907  0.00  0.00    +0.000 OA
ATOM      3  C   UNL     1       2.864   5.907  18.508  0.00  0.00    +0.000 C 
BRANCH   3   4
ATOM      4  C   UNL     1       2.238   4.825  19.323  0.00  0.00    +0.000 A 
ATOM      5  C   UNL     1       2.620   4.733  20.675  0.00  0.00    +0.000 A 
ATOM      6  C   UNL     1       2.130   3.713  21.491  0.00  0.00    +0.000 A 
ATOM      7  C   UNL     1       1.244   2.777  20.968  0.00  0.00    +0.000 A 
ATOM      8  C   UNL     1       0.833   2.875  19.637  0.00  0.00    +0.000 A 
ATOM      9  C   UNL     1       1.324   3.896  18.813  0.00  0.00    +0.000 A 
ENDBRANCH   3   4
ENDBRANCH   1   3
BRANCH   1  10
ATOM     10  C   UNL     1       4.571   4.679  17.573  0.00  0.00    +0.000 C 
ATOM     11  O   UNL     1       4.679   3.466  17.539  0.00  0.00    +0.000 OA
BRANCH  10  12
ATOM     12  C   UNL     1       5.777   5.517  17.850  0.00  0.00    +0.000 A 
ATOM     13  C   UNL     1       6.559   5.168  18.966  0.00  0.00    +0.000 A 
ATOM     14  C   UNL     1       7.699   5.899  19.302  0.00  0.00    +0.000 A 
ATOM     15  C   UNL     1       8.074   6.988  18.523  0.00  0.00    +0.000 A 
ATOM     16  C   UNL     1       7.311   7.344  17.408  0.00  0.00    +0.000 A 
ATOM     17  C   UNL     1       6.164   6.612  17.067  0.00  0.00    +0.000 A 
ENDBRANCH  10  12
ENDBRANCH   1  10
TORSDOF 4
ENDMDL
MODEL 6
REMARK VINA RESULT:      -6.9      3.185      4.515
REMARK  Name = 
REMARK  4 active torsions:
REMARK  status: ('A' for Active; 'I' for Inactive)
REMARK    1  A    between atoms: C_2  and  O_3
REMARK    2  A    between atoms: C_2  and  C_12
REMARK    3  A    between atoms: O_3  and  C_4
REMARK    4  A    between atoms: C_4  and  C_6
REMARK                            x       y       z     vdW  Elec       q    Type
REMARK                         _______ _______ _______ _____ _____    ______ ____
ROOT
ATOM      1  O   UNL     1       3.301   5.627  17.362  0.00  0.00    +0.000 OA
ENDROOT
BRANCH   1   3
ATOM      2  O   UNL     1       4.439   3.617  17.103  0.00  0.00    +0.000 OA
ATOM      3  C   UNL     1       4.386   4.806  17.382  0.00  0.00    +0.000 C 
BRANCH   3   4
ATOM      4  C   UNL     1       5.620   5.510  17.843  0.00  0.00    +0.000 A 
ATOM      5  C   UNL     1       6.087   6.576  17.051  0.00  0.00    +0.000 A 
ATOM      6  C   UNL     1       7.266   7.247  17.375  0.00  0.00    +0.000 A 
ATOM      7  C   UNL     1       7.989   6.867  18.502  0.00  0.00    +0.000 A 
ATOM      8  C   UNL     1       7.519   5.832  19.314  0.00  0.00    +0.000 A 
ATOM      9  C   UNL     1       6.337   5.153  18.990  0.00  0.00    +0.000 A 
ENDBRANCH   3   4
ENDBRANCH   1   3
BRANCH   1  10
ATOM     10  C   UNL     1       2.811   5.981  18.580  0.00  0.00    +0.000 C 
ATOM     11  O   UNL     1       2.797   7.087  19.094  0.00  0.00    +0.000 OA
BRANCH  10  12
ATOM     12  C   UNL     1       2.227   4.821  19.318  0.00  0.00    +0.000 A 
ATOM     13  C   UNL     1       2.613   4.655  20.661  0.00  0.00    +0.000 A 
ATOM     14  C   UNL     1       2.121   3.595  21.424  0.00  0.00    +0.000 A 
ATOM     15  C   UNL     1       1.235   2.688  20.854  0.00  0.00    +0.000 A 
ATOM     16  C   UNL     1       0.839   2.841  19.523  0.00  0.00    +0.000 A 
ATOM     17  C   UNL     1       1.331   3.905  18.753  0.00  0.00    +0.000 A 
ENDBRANCH  10  12
ENDBRANCH   1  10
TORSDOF 4
ENDMDL
MODEL 7
REMARK VINA RESULT:      -6.8      2.183      3.148
REMARK  Name = 
REMARK  4 active torsions:
REMARK  status: ('A' for Active; 'I' for Inactive)
REMARK    1  A    between atoms: C_2  and  O_3
REMARK    2  A    between atoms: C_2  and  C_12
REMARK    3  A    between atoms: O_3  and  C_4
REMARK    4  A    between atoms: C_4  and  C_6
REMARK                            x       y       z     vdW  Elec       q    Type
REMARK                         _______ _______ _______ _____ _____    ______ ____
ROOT
ATOM      1  O   UNL     1       4.979   4.998  19.774  0.00  0.00    +0.000 OA
ENDROOT
BRANCH   1   3
ATOM      2  O   UNL     1       7.246   5.497  19.873  0.00  0.00    +0.000 OA
ATOM      3  C   UNL     1       6.211   5.268  19.264  0.00  0.00    +0.000 C 
BRANCH   3   4
ATOM      4  C   UNL     1       6.212   5.300  17.771  0.00  0.00    +0.000 A 
ATOM      5  C   UNL     1       5.316   6.187  17.146  0.00  0.00    +0.000 A 
ATOM      6  C   UNL     1       5.209   6.237  15.756  0.00  0.00    +0.000 A 
ATOM      7  C   UNL     1       6.005   5.406  14.972  0.00  0.00    +0.000 A 
ATOM      8  C   UNL     1       6.920   4.545  15.580  0.00  0.00    +0.000 A 
ATOM      9  C   UNL     1       7.030   4.489  16.976  0.00  0.00    +0.000 A 
ENDBRANCH   3   4
ENDBRANCH   1   3
BRANCH   1  10
ATOM     10  C   UNL     1       4.606   3.690  19.744  0.00  0.00    +0.000 C 
ATOM     11  O   UNL     1       5.293   2.706  19.953  0.00  0.00    +0.000 OA
BRANCH  10  12
ATOM     12  C   UNL     1       3.158   3.519  19.415  0.00  0.00    +0.000 A 
ATOM     13  C   UNL     1       2.734   3.942  18.142  0.00  0.00    +0.000 A 
ATOM     14  C   UNL     1       1.399   3.825  17.753  0.00  0.00    +0.000 A 
ATOM     15  C   UNL     1       0.470   3.281  18.633  0.00  0.00    +0.000 A 
ATOM     16  C   UNL     1       0.876   2.852  19.900  0.00  0.00    +0.000 A 
ATOM     17  C   UNL     1       2.217   2.968  20.294  0.00  0.00    +0.000 A 
ENDBRANCH  10  12
ENDBRANCH   1  10
TORSDOF 4
ENDMDL
MODEL 8
REMARK VINA RESULT:      -6.8      3.117      6.240
REMARK  Name = 
REMARK  4 active torsions:
REMARK  status: ('A' for Active; 'I' for Inactive)
REMARK    1  A    between atoms: C_2  and  O_3
REMARK    2  A    between atoms: C_2  and  C_12
REMARK    3  A    between atoms: O_3  and  C_4
REMARK    4  A    between atoms: C_4  and  C_6
REMARK                            x       y       z     vdW  Elec       q    Type
REMARK                         _______ _______ _______ _____ _____    ______ ____
ROOT
ATOM      1  O   UNL     1       3.394   5.349  17.248  0.00  0.00    +0.000 OA
ENDROOT
BRANCH   1   3
ATOM      2  O   UNL     1       2.837   7.052  18.728  0.00  0.00    +0.000 OA
ATOM      3  C   UNL     1       2.881   5.877  18.392  0.00  0.00    +0.000 C 
BRANCH   3   4
ATOM      4  C   UNL     1       2.354   4.828  19.315  0.00  0.00    +0.000 A 
ATOM      5  C   UNL     1       1.391   3.942  18.799  0.00  0.00    +0.000 A 
ATOM      6  C   UNL     1       0.801   2.971  19.609  0.00  0.00    +0.000 A 
ATOM      7  C   UNL     1       1.176   2.869  20.946  0.00  0.00    +0.000 A 
ATOM      8  C   UNL     1       2.154   3.721  21.462  0.00  0.00    +0.000 A 
ATOM      9  C   UNL     1       2.747   4.699  20.652  0.00  0.00    +0.000 A 
ENDBRANCH   3   4
ENDBRANCH   1   3
BRANCH   1  10
ATOM     10  C   UNL     1       4.523   4.605  17.401  0.00  0.00    +0.000 C 
ATOM     11  O   UNL     1       4.649   3.397  17.295  0.00  0.00    +0.000 OA
BRANCH  10  12
ATOM     12  C   UNL     1       5.716   5.442  17.729  0.00  0.00    +0.000 A 
ATOM     13  C   UNL     1       6.452   5.089  18.875  0.00  0.00    +0.000 A 
ATOM     14  C   UNL     1       7.577   5.819  19.260  0.00  0.00    +0.000 A 
ATOM     15  C   UNL     1       7.982   6.912  18.502  0.00  0.00    +0.000 A 
ATOM     16  C   UNL     1       7.264   7.273  17.359  0.00  0.00    +0.000 A 
ATOM     17  C   UNL     1       6.133   6.542  16.968  0.00  0.00    +0.000 A 
ENDBRANCH  10  12
ENDBRANCH   1  10
TORSDOF 4
ENDMDL
MODEL 9
REMARK VINA RESULT:      -6.8      2.317      5.817
REMARK  Name = 
REMARK  4 active torsions:
REMARK  status: ('A' for Active; 'I' for Inactive)
REMARK    1  A    between atoms: C_2  and  O_3
REMARK    2  A    between atoms: C_2  and  C_12
REMARK    3  A    between atoms: O_3  and  C_4
REMARK    4  A    between atoms: C_4  and  C_6
REMARK                            x       y       z     vdW  Elec       q    Type
REMARK                         _______ _______ _______ _____ _____    ______ ____
ROOT
ATOM      1  O   UNL     1       4.912   4.928  19.818  0.00  0.00    +0.000 OA
ENDROOT
BRANCH   1   3
ATOM      2  O   UNL     1       5.302   2.638  19.772  0.00  0.00    +0.000 OA
ATOM      3  C   UNL     1       4.566   3.614  19.748  0.00  0.00    +0.000 C 
BRANCH   3   4
ATOM      4  C   UNL     1       3.094   3.422  19.595  0.00  0.00    +0.000 A 
ATOM      5  C   UNL     1       2.253   4.253  20.358  0.00  0.00    +0.000 A 
ATOM      6  C   UNL     1       0.867   4.100  20.321  0.00  0.00    +0.000 A 
ATOM      7  C   UNL     1       0.303   3.118  19.512  0.00  0.00    +0.000 A 
ATOM      8  C   UNL     1       1.124   2.308  18.725  0.00  0.00    +0.000 A 
ATOM      9  C   UNL     1       2.517   2.457  18.761  0.00  0.00    +0.000 A 
ENDBRANCH   3   4
ENDBRANCH   1   3
BRANCH   1  10
ATOM     10  C   UNL     1       6.117   5.246  19.275  0.00  0.00    +0.000 C 
ATOM     11  O   UNL     1       7.170   5.460  19.851  0.00  0.00    +0.000 OA
BRANCH  10  12
ATOM     12  C   UNL     1       6.069   5.318  17.783  0.00  0.00    +0.000 A 
ATOM     13  C   UNL     1       7.008   4.547  17.073  0.00  0.00    +0.000 A 
ATOM     14  C   UNL     1       7.039   4.559  15.678  0.00  0.00    +0.000 A 
ATOM     15  C   UNL     1       6.128   5.339  14.975  0.00  0.00    +0.000 A 
ATOM     16  C   UNL     1       5.186   6.106  15.665  0.00  0.00    +0.000 A 
ATOM     17  C   UNL     1       5.152   6.097  17.067  0.00  0.00    +0.000 A 
ENDBRANCH  10  12
ENDBRANCH   1  10
TORSDOF 4
ENDMDL
