MODEL 1
REMARK VINA RESULT:      -6.8      0.000      0.000
REMARK  Name = 
REMARK  6 active torsions:
REMARK  status: ('A' for Active; 'I' for Inactive)
REMARK    1  A    between atoms: C_3  and  C_4
REMARK    2  A    between atoms: C_6  and  C_7
REMARK    3  A    between atoms: C_7  and  C_8
REMARK    4  A    between atoms: C_8  and  N_9
REMARK    5  A    between atoms: N_9  and  C_10
REMARK    6  A    between atoms: C_10  and  C_11
REMARK                            x       y       z     vdW  Elec       q    Type
REMARK                         _______ _______ _______ _____ _____    ______ ____
ROOT
ATOM      1  C   UNL     1       5.046   6.691  17.425  0.00  0.00    +0.000 C 
ENDROOT
BRANCH   1   4
ATOM      2  C   UNL     1       7.288   5.204  17.171  0.00  0.00    +0.000 C 
ATOM      3  C   UNL     1       6.412   4.722  18.305  0.00  0.00    +0.000 C 
ATOM      4  C   UNL     1       6.365   6.164  17.914  0.00  0.00    +0.000 C 
BRANCH   2   7
ATOM      5  C   UNL     1       7.023   4.587  13.629  0.00  0.00    +0.000 A 
ATOM      6  N   UNL     1       7.484   5.325  14.613  0.00  0.00    +0.000 NA
ATOM      7  C   UNL     1       6.995   4.751  15.756  0.00  0.00    +0.000 A 
ATOM      8  C   UNL     1       6.181   3.681  15.455  0.00  0.00    +0.000 A 
ATOM      9  N   UNL     1       6.219   3.583  14.092  0.00  0.00    +0.000 N 
ATOM     10  H   UNL     1       5.755   2.886  13.526  0.00  0.00    +0.000 HD
ENDBRANCH   2   7
ENDBRANCH   1   4
BRANCH   1  11
ATOM     11  C   UNL     1       3.842   6.206  18.240  0.00  0.00    +0.000 C 
BRANCH  11  12
ATOM     12  N   UNL     1       3.212   5.120  17.494  0.00  0.00    +0.000 NA
ATOM     13  H   UNL     1       3.842   4.324  17.443  0.00  0.00    +0.000 HD
BRANCH  12  14
ATOM     14  C   UNL     1       1.913   4.700  18.003  0.00  0.00    +0.000 C 
BRANCH  14  15
ATOM     15  C   UNL     1       1.913   3.158  18.168  0.00  0.00    +0.000 C 
ATOM     16  C   UNL     1       3.260   2.627  18.682  0.00  0.00    +0.000 C 
ATOM     17  C   UNL     1       3.528   2.973  20.145  0.00  0.00    +0.000 C 
ATOM     18  C   UNL     1       2.362   2.636  21.074  0.00  0.00    +0.000 C 
ATOM     19  C   UNL     1       0.999   3.065  20.540  0.00  0.00    +0.000 C 
ATOM     20  C   UNL     1       0.793   2.643  19.089  0.00  0.00    +0.000 C 
ENDBRANCH  14  15
ENDBRANCH  12  14
ENDBRANCH  11  12
ENDBRANCH   1  11
TORSDOF 6
ENDMDL
MODEL 2
REMARK VINA RESULT:      -6.8      2.345      5.993
REMARK  Name = 
REMARK  6 active torsions:
REMARK  status: ('A' for Active; 'I' for Inactive)
REMARK    1  A    between atoms: C_3  and  C_4
REMARK    2  A    between atoms: C_6  and  C_7
REMARK    3  A    between atoms: C_7  and  C_8
REMARK    4  A    between atoms: C_8  and  N_9
REMARK    5  A    between atoms: N_9  and  C_10
REMARK    6  A    between atoms: C_10  and  C_11
REMARK                            x       y       z     vdW  Elec       q    Type
REMARK                         _______ _______ _______ _____ _____    ______ ____
ROOT
ATOM      1  C   UNL     1       3.496   2.317  18.084  0.00  0.00    +0.000 C 
ENDROOT
BRANCH   1   4
ATOM      2  C   UNL     1       1.145   3.585  18.495  0.00  0.00    +0.000 C 
ATOM      3  C   UNL     1       1.287   2.355  19.363  0.00  0.00    +0.000 C 
ATOM      4  C   UNL     1       1.997   2.401  18.048  0.00  0.00    +0.000 C 
BRANCH   2   7
ATOM      5  C   UNL     1       2.635   6.840  18.922  0.00  0.00    +0.000 A 
ATOM      6  N   UNL     1       2.237   5.879  18.120  0.00  0.00    +0.000 NA
ATOM      7  C   UNL     1       1.767   4.891  18.943  0.00  0.00    +0.000 A 
ATOM      8  C   UNL     1       1.934   5.238  20.266  0.00  0.00    +0.000 A 
ATOM      9  N   UNL     1       2.479   6.491  20.235  0.00  0.00    +0.000 N 
ATOM     10  H   UNL     1       2.709   7.067  21.033  0.00  0.00    +0.000 HD
ENDBRANCH   2   7
ENDBRANCH   1   4
BRANCH   1  11
ATOM     11  C   UNL     1       4.085   2.329  19.499  0.00  0.00    +0.000 C 
BRANCH  11  12
ATOM     12  N   UNL     1       5.360   3.039  19.442  0.00  0.00    +0.000 NA
ATOM     13  H   UNL     1       6.045   2.481  18.940  0.00  0.00    +0.000 HD
BRANCH  12  14
ATOM     14  C   UNL     1       5.290   4.379  18.873  0.00  0.00    +0.000 C 
BRANCH  14  15
ATOM     15  C   UNL     1       6.229   4.451  17.641  0.00  0.00    +0.000 C 
ATOM     16  C   UNL     1       5.701   5.411  16.563  0.00  0.00    +0.000 C 
ATOM     17  C   UNL     1       5.800   6.882  16.962  0.00  0.00    +0.000 C 
ATOM     18  C   UNL     1       7.178   7.279  17.490  0.00  0.00    +0.000 C 
ATOM     19  C   UNL     1       7.769   6.290  18.490  0.00  0.00    +0.000 C 
ATOM     20  C   UNL     1       7.672   4.850  17.997  0.00  0.00    +0.000 C 
ENDBRANCH  14  15
ENDBRANCH  12  14
ENDBRANCH  11  12
ENDBRANCH   1  11
TORSDOF 6
ENDMDL
MODEL 3
REMARK VINA RESULT:      -6.8      0.895      1.578
REMARK  Name = 
REMARK  6 active torsions:
REMARK  status: ('A' for Active; 'I' for Inactive)
REMARK    1  A    between atoms: C_3  and  C_4
REMARK    2  A    between atoms: C_6  and  C_7
REMARK    3  A    between atoms: C_7  and  C_8
REMARK    4  A    between atoms: C_8  and  N_9
REMARK    5  A    between atoms: N_9  and  C_10
REMARK    6  A    between atoms: C_10  and  C_11
REMARK                            x       y       z     vdW  Elec       q    Type
REMARK                         _______ _______ _______ _____ _____    ______ ____
ROOT
ATOM      1  C   UNL     1       4.576   6.737  17.043  0.00  0.00    +0.000 C 
ENDROOT
BRANCH   1   4
ATOM      2  C   UNL     1       6.888   5.343  17.150  0.00  0.00    +0.000 C 
ATOM      3  C   UNL     1       5.877   4.844  18.156  0.00  0.00    +0.000 C 
ATOM      4  C   UNL     1       5.830   6.276  17.729  0.00  0.00    +0.000 C 
BRANCH   2   7
ATOM      5  C   UNL     1       7.188   4.632  13.628  0.00  0.00    +0.000 A 
ATOM      6  N   UNL     1       7.492   5.394  14.654  0.00  0.00    +0.000 NA
ATOM      7  C   UNL     1       6.822   4.854  15.718  0.00  0.00    +0.000 A 
ATOM      8  C   UNL     1       6.058   3.779  15.318  0.00  0.00    +0.000 A 
ATOM      9  N   UNL     1       6.313   3.644  13.982  0.00  0.00    +0.000 N 
ATOM     10  H   UNL     1       5.939   2.934  13.367  0.00  0.00    +0.000 HD
ENDBRANCH   2   7
ENDBRANCH   1   4
BRANCH   1  11
ATOM     11  C   UNL     1       3.524   7.318  17.995  0.00  0.00    +0.000 C 
BRANCH  11  12
ATOM     12  N   UNL     1       2.490   6.303  18.185  0.00  0.00    +0.000 NA
ATOM     13  H   UNL     1       2.487   5.661  17.397  0.00  0.00    +0.000 HD
BRANCH  12  14
ATOM     14  C   UNL     1       2.581   5.562  19.436  0.00  0.00    +0.000 C 
BRANCH  14  15
ATOM     15  C   UNL     1       1.656   4.321  19.353  0.00  0.00    +0.000 C 
ATOM     16  C   UNL     1       1.462   3.835  17.908  0.00  0.00    +0.000 C 
ATOM     17  C   UNL     1       2.709   3.180  17.318  0.00  0.00    +0.000 C 
ATOM     18  C   UNL     1       3.327   2.117  18.225  0.00  0.00    +0.000 C 
ATOM     19  C   UNL     1       3.440   2.539  19.687  0.00  0.00    +0.000 C 
ATOM     20  C   UNL     1       2.141   3.140  20.213  0.00  0.00    +0.000 C 
ENDBRANCH  14  15
ENDBRANCH  12  14
ENDBRANCH  11  12
ENDBRANCH   1  11
TORSDOF 6
ENDMDL
MODEL 4
REMARK VINA RESULT:      -6.7      1.966      3.230
REMARK  Name = 
REMARK  6 active torsions:
REMARK  status: ('A' for Active; 'I' for Inactive)
REMARK    1  A    between atoms: C_3  and  C_4
REMARK    2  A    between atoms: C_6  and  C_7
REMARK    3  A    between atoms: C_7  and  C_8
REMARK    4  A    between atoms: C_8  and  N_9
REMARK    5  A    between atoms: N_9  and  C_10
REMARK    6  A    between atoms: C_10  and  C_11
REMARK                            x       y       z     vdW  Elec       q    Type
REMARK                         _______ _______ _______ _____ _____    ______ ____
ROOT
ATOM      1  C   UNL     1       4.411   3.983  16.489  0.00  0.00    +0.000 C 
ENDROOT
BRANCH   1   4
ATOM      2  C   UNL     1       6.964   4.538  15.800  0.00  0.00    +0.000 C 
ATOM      3  C   UNL     1       5.970   5.170  14.853  0.00  0.00    +0.000 C 
ATOM      4  C   UNL     1       5.594   3.911  15.566  0.00  0.00    +0.000 C 
BRANCH   2   7
ATOM      5  C   UNL     1       7.919   5.604  19.110  0.00  0.00    +0.000 A 
ATOM      6  N   UNL     1       7.652   4.627  18.273  0.00  0.00    +0.000 NA
ATOM      7  C   UNL     1       7.309   5.239  17.098  0.00  0.00    +0.000 A 
ATOM      8  C   UNL     1       7.316   6.609  17.241  0.00  0.00    +0.000 A 
ATOM      9  N   UNL     1       7.719   6.826  18.530  0.00  0.00    +0.000 N 
ATOM     10  H   UNL     1       7.863   7.723  18.972  0.00  0.00    +0.000 HD
ENDBRANCH   2   7
ENDBRANCH   1   4
BRANCH   1  11
ATOM     11  C   UNL     1       4.404   2.902  17.576  0.00  0.00    +0.000 C 
BRANCH  11  12
ATOM     12  N   UNL     1       3.047   2.371  17.664  0.00  0.00    +0.000 NA
ATOM     13  H   UNL     1       2.924   1.621  16.989  0.00  0.00    +0.000 HD
BRANCH  12  14
ATOM     14  C   UNL     1       2.648   1.922  18.992  0.00  0.00    +0.000 C 
BRANCH  14  15
ATOM     15  C   UNL     1       1.329   2.634  19.387  0.00  0.00    +0.000 C 
ATOM     16  C   UNL     1       1.168   2.757  20.911  0.00  0.00    +0.000 C 
ATOM     17  C   UNL     1       2.124   3.770  21.539  0.00  0.00    +0.000 C 
ATOM     18  C   UNL     1       2.132   5.123  20.830  0.00  0.00    +0.000 C 
ATOM     19  C   UNL     1       2.191   5.026  19.309  0.00  0.00    +0.000 C 
ATOM     20  C   UNL     1       1.176   4.030  18.758  0.00  0.00    +0.000 C 
ENDBRANCH  14  15
ENDBRANCH  12  14
ENDBRANCH  11  12
ENDBRANCH   1  11
TORSDOF 6
ENDMDL
MODEL 5
REMARK VINA RESULT:      -6.6      1.944      3.430
REMARK  Name = 
REMARK  6 active torsions:
REMARK  status: ('A' for Active; 'I' for Inactive)
REMARK    1  A    between atoms: C_3  and  C_4
REMARK    2  A    between atoms: C_6  and  C_7
REMARK    3  A    between atoms: C_7  and  C_8
REMARK    4  A    between atoms: C_8  and  N_9
REMARK    5  A    between atoms: N_9  and  C_10
REMARK    6  A    between atoms: C_10  and  C_11
REMARK                            x       y       z     vdW  Elec       q    Type
REMARK                         _______ _______ _______ _____ _____    ______ ____
ROOT
ATOM      1  C   UNL     1       5.729   4.577  15.691  0.00  0.00    +0.000 C 
ENDROOT
BRANCH   1   4
ATOM      2  C   UNL     1       5.895   7.012  16.849  0.00  0.00    +0.000 C 
ATOM      3  C   UNL     1       4.464   6.541  16.720  0.00  0.00    +0.000 C 
ATOM      4  C   UNL     1       5.480   6.057  15.735  0.00  0.00    +0.000 C 
BRANCH   2   7
ATOM      5  C   UNL     1       7.401   5.480  19.745  0.00  0.00    +0.000 A 
ATOM      6  N   UNL     1       6.367   5.602  18.944  0.00  0.00    +0.000 NA
ATOM      7  C   UNL     1       6.730   6.550  18.026  0.00  0.00    +0.000 A 
ATOM      8  C   UNL     1       7.984   7.048  18.308  0.00  0.00    +0.000 A 
ATOM      9  N   UNL     1       8.403   6.345  19.403  0.00  0.00    +0.000 N 
ATOM     10  H   UNL     1       9.296   6.431  19.867  0.00  0.00    +0.000 HD
ENDBRANCH   2   7
ENDBRANCH   1   4
BRANCH   1  11
ATOM     11  C   UNL     1       4.578   3.735  16.254  0.00  0.00    +0.000 C 
BRANCH  11  12
ATOM     12  N   UNL     1       4.972   3.281  17.585  0.00  0.00    +0.000 NA
ATOM     13  H   UNL     1       5.508   4.006  18.053  0.00  0.00    +0.000 HD
BRANCH  12  14
ATOM     14  C   UNL     1       3.871   2.842  18.433  0.00  0.00    +0.000 C 
BRANCH  14  15
ATOM     15  C   UNL     1       2.869   4.013  18.601  0.00  0.00    +0.000 C 
ATOM     16  C   UNL     1       1.425   3.592  18.288  0.00  0.00    +0.000 C 
ATOM     17  C   UNL     1       0.819   2.672  19.346  0.00  0.00    +0.000 C 
ATOM     18  C   UNL     1       0.992   3.189  20.774  0.00  0.00    +0.000 C 
ATOM     19  C   UNL     1       2.394   3.706  21.081  0.00  0.00    +0.000 C 
ATOM     20  C   UNL     1       2.907   4.652  20.001  0.00  0.00    +0.000 C 
ENDBRANCH  14  15
ENDBRANCH  12  14
ENDBRANCH  11  12
ENDBRANCH   1  11
TORSDOF 6
ENDMDL
MODEL 6
REMARK VINA RESULT:      -6.6      2.353      6.062
REMARK  Name = 
REMARK  6 active torsions:
REMARK  status: ('A' for Active; 'I' for Inactive)
REMARK    1  A    between atoms: C_3  and  C_4
REMARK    2  A    between atoms: C_6  and  C_7
REMARK    3  A    between atoms: C_7  and  C_8
REMARK    4  A    between atoms: C_8  and  N_9
REMARK    5  A    between atoms: N_9  and  C_10
REMARK    6  A    between atoms: C_10  and  C_11
REMARK                            x       y       z     vdW  Elec       q    Type
REMARK                         _______ _______ _______ _____ _____    ______ ____
ROOT
ATOM      1  C   UNL     1       3.090   2.111  19.287  0.00  0.00    +0.000 C 
ENDROOT
BRANCH   1   4
ATOM      2  C   UNL     1       1.044   3.678  20.100  0.00  0.00    +0.000 C 
ATOM      3  C   UNL     1       1.728   2.990  21.260  0.00  0.00    +0.000 C 
ATOM      4  C   UNL     1       1.744   2.336  19.915  0.00  0.00    +0.000 C 
BRANCH   2   7
ATOM      5  C   UNL     1       2.565   6.872  19.404  0.00  0.00    +0.000 A 
ATOM      6  N   UNL     1       2.125   6.001  20.284  0.00  0.00    +0.000 NA
ATOM      7  C   UNL     1       1.624   4.963  19.545  0.00  0.00    +0.000 A 
ATOM      8  C   UNL     1       1.713   5.235  18.197  0.00  0.00    +0.000 A 
ATOM      9  N   UNL     1       2.327   6.454  18.125  0.00  0.00    +0.000 N 
ATOM     10  H   UNL     1       2.579   6.951  17.282  0.00  0.00    +0.000 HD
ENDBRANCH   2   7
ENDBRANCH   1   4
BRANCH   1  11
ATOM     11  C   UNL     1       4.269   2.495  20.189  0.00  0.00    +0.000 C 
BRANCH  11  12
ATOM     12  N   UNL     1       5.359   2.942  19.327  0.00  0.00    +0.000 NA
ATOM     13  H   UNL     1       5.486   2.285  18.562  0.00  0.00    +0.000 HD
BRANCH  12  14
ATOM     14  C   UNL     1       5.214   4.296  18.808  0.00  0.00    +0.000 C 
BRANCH  14  15
ATOM     15  C   UNL     1       6.059   4.430  17.514  0.00  0.00    +0.000 C 
ATOM     16  C   UNL     1       5.513   5.517  16.574  0.00  0.00    +0.000 C 
ATOM     17  C   UNL     1       5.738   6.935  17.094  0.00  0.00    +0.000 C 
ATOM     18  C   UNL     1       7.175   7.201  17.540  0.00  0.00    +0.000 C 
ATOM     19  C   UNL     1       7.775   6.089  18.395  0.00  0.00    +0.000 C 
ATOM     20  C   UNL     1       7.548   4.710  17.784  0.00  0.00    +0.000 C 
ENDBRANCH  14  15
ENDBRANCH  12  14
ENDBRANCH  11  12
ENDBRANCH   1  11
TORSDOF 6
ENDMDL
MODEL 7
REMARK VINA RESULT:      -6.6      1.860      3.102
REMARK  Name = 
REMARK  6 active torsions:
REMARK  status: ('A' for Active; 'I' for Inactive)
REMARK    1  A    between atoms: C_3  and  C_4
REMARK    2  A    between atoms: C_6  and  C_7
REMARK    3  A    between atoms: C_7  and  C_8
REMARK    4  A    between atoms: C_8  and  N_9
REMARK    5  A    between atoms: N_9  and  C_10
REMARK    6  A    between atoms: C_10  and  C_11
REMARK                            x       y       z     vdW  Elec       q    Type
REMARK                         _______ _______ _______ _____ _____    ______ ____
ROOT
ATOM      1  C   UNL     1       4.439   4.453  16.186  0.00  0.00    +0.000 C 
ENDROOT
BRANCH   1   4
ATOM      2  C   UNL     1       7.119   4.410  15.839  0.00  0.00    +0.000 C 
ATOM      3  C   UNL     1       6.388   4.804  14.575  0.00  0.00    +0.000 C 
ATOM      4  C   UNL     1       5.700   3.921  15.566  0.00  0.00    +0.000 C 
BRANCH   2   7
ATOM      5  C   UNL     1       7.716   7.336  17.859  0.00  0.00    +0.000 A 
ATOM      6  N   UNL     1       7.505   6.807  16.675  0.00  0.00    +0.000 NA
ATOM      7  C   UNL     1       7.412   5.459  16.891  0.00  0.00    +0.000 A 
ATOM      8  C   UNL     1       7.624   5.162  18.220  0.00  0.00    +0.000 A 
ATOM      9  N   UNL     1       7.805   6.374  18.826  0.00  0.00    +0.000 N 
ATOM     10  H   UNL     1       7.957   6.537  19.812  0.00  0.00    +0.000 HD
ENDBRANCH   2   7
ENDBRANCH   1   4
BRANCH   1  11
ATOM     11  C   UNL     1       3.555   3.373  16.821  0.00  0.00    +0.000 C 
BRANCH  11  12
ATOM     12  N   UNL     1       4.318   2.754  17.901  0.00  0.00    +0.000 NA
ATOM     13  H   UNL     1       4.977   3.425  18.287  0.00  0.00    +0.000 HD
BRANCH  12  14
ATOM     14  C   UNL     1       3.511   2.173  18.966  0.00  0.00    +0.000 C 
BRANCH  14  15
ATOM     15  C   UNL     1       3.623   3.069  20.227  0.00  0.00    +0.000 C 
ATOM     16  C   UNL     1       3.404   4.556  19.905  0.00  0.00    +0.000 C 
ATOM     17  C   UNL     1       1.954   4.893  19.562  0.00  0.00    +0.000 C 
ATOM     18  C   UNL     1       0.946   4.348  20.573  0.00  0.00    +0.000 C 
ATOM     19  C   UNL     1       1.201   2.901  20.984  0.00  0.00    +0.000 C 
ATOM     20  C   UNL     1       2.660   2.658  21.354  0.00  0.00    +0.000 C 
ENDBRANCH  14  15
ENDBRANCH  12  14
ENDBRANCH  11  12
ENDBRANCH   1  11
TORSDOF 6
ENDMDL
MODEL 8
REMARK VINA RESULT:      -6.5      1.816      2.928
REMARK  Name = 
REMARK  6 active torsions:
REMARK  status: ('A' for Active; 'I' for Inactive)
REMARK    1  A    between atoms: C_3  and  C_4
REMARK    2  A    between atoms: C_6  and  C_7
REMARK    3  A    between atoms: C_7  and  C_8
REMARK    4  A    between atoms: C_8  and  N_9
REMARK    5  A    between atoms: N_9  and  C_10
REMARK    6  A    between atoms: C_10  and  C_11
REMARK                            x       y       z     vdW  Elec       q    Type
REMARK                         _______ _______ _______ _____ _____    ______ ____
ROOT
ATOM      1  C   UNL     1       4.381   4.112  16.791  0.00  0.00    +0.000 C 
ENDROOT
BRANCH   1   4
ATOM      2  C   UNL     1       6.880   4.472  15.828  0.00  0.00    +0.000 C 
ATOM      3  C   UNL     1       5.822   4.816  14.804  0.00  0.00    +0.000 C 
ATOM      4  C   UNL     1       5.513   3.797  15.855  0.00  0.00    +0.000 C 
BRANCH   2   7
ATOM      5  C   UNL     1       7.712   7.361  17.818  0.00  0.00    +0.000 A 
ATOM      6  N   UNL     1       7.401   6.850  16.649  0.00  0.00    +0.000 NA
ATOM      7  C   UNL     1       7.281   5.503  16.863  0.00  0.00    +0.000 A 
ATOM      8  C   UNL     1       7.578   5.189  18.172  0.00  0.00    +0.000 A 
ATOM      9  N   UNL     1       7.839   6.389  18.771  0.00  0.00    +0.000 N 
ATOM     10  H   UNL     1       8.067   6.539  19.744  0.00  0.00    +0.000 HD
ENDBRANCH   2   7
ENDBRANCH   1   4
BRANCH   1  11
ATOM     11  C   UNL     1       3.255   3.072  16.777  0.00  0.00    +0.000 C 
BRANCH  11  12
ATOM     12  N   UNL     1       2.027   3.744  17.193  0.00  0.00    +0.000 NA
ATOM     13  H   UNL     1       1.309   3.055  17.401  0.00  0.00    +0.000 HD
BRANCH  12  14
ATOM     14  C   UNL     1       2.180   4.664  18.312  0.00  0.00    +0.000 C 
BRANCH  14  15
ATOM     15  C   UNL     1       1.065   4.380  19.352  0.00  0.00    +0.000 C 
ATOM     16  C   UNL     1       0.789   2.877  19.513  0.00  0.00    +0.000 C 
ATOM     17  C   UNL     1       1.911   2.129  20.231  0.00  0.00    +0.000 C 
ATOM     18  C   UNL     1       2.352   2.795  21.533  0.00  0.00    +0.000 C 
ATOM     19  C   UNL     1       2.538   4.306  21.425  0.00  0.00    +0.000 C 
ATOM     20  C   UNL     1       1.356   4.982  20.738  0.00  0.00    +0.000 C 
ENDBRANCH  14  15
ENDBRANCH  12  14
ENDBRANCH  11  12
ENDBRANCH   1  11
TORSDOF 6
ENDMDL
MODEL 9
REMARK VINA RESULT:      -6.5      1.215      2.086
REMARK  Name = 
REMARK  6 active torsions:
REMARK  status: ('A' for Active; 'I' for Inactive)
REMARK    1  A    between atoms: C_3  and  C_4
REMARK    2  A    between atoms: C_6  and  C_7
REMARK    3  A    between atoms: C_7  and  C_8
REMARK    4  A    between atoms: C_8  and  N_9
REMARK    5  A    between atoms: N_9  and  C_10
REMARK    6  A    between atoms: C_10  and  C_11
REMARK                            x       y       z     vdW  Elec       q    Type
REMARK                         _______ _______ _______ _____ _____    ______ ____
ROOT
ATOM      1  C   UNL     1       6.732   4.877  18.559  0.00  0.00    +0.000 C 
ENDROOT
BRANCH   1   4
ATOM      2  C   UNL     1       6.037   6.649  16.641  0.00  0.00    +0.000 C 
ATOM      3  C   UNL     1       7.266   7.091  17.404  0.00  0.00    +0.000 C 
ATOM      4  C   UNL     1       6.259   6.223  18.088  0.00  0.00    +0.000 C 
BRANCH   2   7
ATOM      5  C   UNL     1       7.021   4.466  13.945  0.00  0.00    +0.000 A 
ATOM      6  N   UNL     1       7.340   5.397  14.815  0.00  0.00    +0.000 NA
ATOM      7  C   UNL     1       6.182   5.674  15.491  0.00  0.00    +0.000 A 
ATOM      8  C   UNL     1       5.134   4.937  14.985  0.00  0.00    +0.000 A 
ATOM      9  N   UNL     1       5.689   4.162  14.005  0.00  0.00    +0.000 N 
ATOM     10  H   UNL     1       5.212   3.474  13.439  0.00  0.00    +0.000 HD
ENDBRANCH   2   7
ENDBRANCH   1   4
BRANCH   1  11
ATOM     11  C   UNL     1       5.630   4.013  19.182  0.00  0.00    +0.000 C 
BRANCH  11  12
ATOM     12  N   UNL     1       4.817   3.479  18.092  0.00  0.00    +0.000 NA
ATOM     13  H   UNL     1       5.398   2.932  17.463  0.00  0.00    +0.000 HD
BRANCH  12  14
ATOM     14  C   UNL     1       3.661   2.699  18.515  0.00  0.00    +0.000 C 
BRANCH  14  15
ATOM     15  C   UNL     1       2.373   3.390  17.998  0.00  0.00    +0.000 C 
ATOM     16  C   UNL     1       1.099   2.749  18.571  0.00  0.00    +0.000 C 
ATOM     17  C   UNL     1       0.888   3.043  20.055  0.00  0.00    +0.000 C 
ATOM     18  C   UNL     1       1.019   4.524  20.408  0.00  0.00    +0.000 C 
ATOM     19  C   UNL     1       2.225   5.209  19.770  0.00  0.00    +0.000 C 
ATOM     20  C   UNL     1       2.337   4.903  18.281  0.00  0.00    +0.000 C 
ENDBRANCH  14  15
ENDBRANCH  12  14
ENDBRANCH  11  12
ENDBRANCH   1  11
TORSDOF 6
ENDMDL
