MODEL 1
REMARK VINA RESULT:      -7.3      0.000      0.000
REMARK  Name = 
REMARK  7 active torsions:
REMARK  status: ('A' for Active; 'I' for Inactive)
REMARK    1  A    between atoms: C_1  and  N_2
REMARK    2  A    between atoms: N_4  and  C_5
REMARK    3  A    between atoms: N_7  and  C_8
REMARK    4  A    between atoms: C_8  and  C_9
REMARK    5  A    between atoms: C_9  and  C_10
REMARK    6  A    between atoms: C_10  and  C_11
REMARK    7  A    between atoms: C_11  and  N_12
REMARK                            x       y       z     vdW  Elec       q    Type
REMARK                         _______ _______ _______ _____ _____    ______ ____
ROOT
ATOM      1  C   UNL     1       3.776   3.086  18.144  0.00  0.00    +0.000 C 
ENDROOT
BRANCH   1   2
ATOM      2  N   UNL     1       4.906   3.783  17.548  0.00  0.00    +0.000 N 
ATOM      3  N   UNL     1       5.017   3.745  16.171  0.00  0.00    +0.000 NA
ATOM      4  C   UNL     1       6.108   4.207  15.610  0.00  0.00    +0.000 A 
ATOM      5  N   UNL     1       6.241   4.215  14.231  0.00  0.00    +0.000 N 
ATOM      6  C   UNL     1       5.193   3.824  13.301  0.00  0.00    +0.000 C 
ATOM      7  C   UNL     1       5.986   3.311  12.106  0.00  0.00    +0.000 C 
ATOM      8  C   UNL     1       7.169   4.262  12.041  0.00  0.00    +0.000 C 
ATOM      9  C   UNL     1       7.424   4.653  13.495  0.00  0.00    +0.000 C 
ATOM     10  C   UNL     1       7.234   4.716  16.446  0.00  0.00    +0.000 A 
ATOM     11  C   UNL     1       7.057   4.870  17.756  0.00  0.00    +0.000 A 
ATOM     12  C   UNL     1       5.806   4.429  18.385  0.00  0.00    +0.000 A 
ATOM     13  O   UNL     1       5.658   4.586  19.595  0.00  0.00    +0.000 OA
ENDBRANCH   1   2
BRANCH   1  14
ATOM     14  C   UNL     1       2.474   3.888  18.086  0.00  0.00    +0.000 C 
BRANCH  14  15
ATOM     15  C   UNL     1       1.822   4.076  19.465  0.00  0.00    +0.000 C 
BRANCH  15  16
ATOM     16  C   UNL     1       2.412   5.254  20.248  0.00  0.00    +0.000 C 
BRANCH  16  21
ATOM     17  C   UNL     1       2.028   8.701  17.802  0.00  0.00    +0.000 C 
ATOM     18  N   UNL     1       1.753   8.769  19.226  0.00  0.00    +0.000 NA
ATOM     19  C   UNL     1       1.884   7.724  19.970  0.00  0.00    +0.000 C 
ATOM     20  N   UNL     1       1.583   7.768  21.301  0.00  0.00    +0.000 N 
ATOM     21  N   UNL     1       2.289   6.494  19.509  0.00  0.00    +0.000 N 
ATOM     22  H   UNL     1       1.878   7.020  21.901  0.00  0.00    +0.000 HD
ATOM     23  H   UNL     1       2.460   6.428  18.514  0.00  0.00    +0.000 HD
BRANCH  20  24
ATOM     24  C   UNL     1       1.269   9.029  21.928  0.00  0.00    +0.000 C 
ATOM     25  N   UNL     1       1.029  10.085  22.336  0.00  0.00    +0.000 NA
ENDBRANCH  20  24
ENDBRANCH  16  21
ENDBRANCH  15  16
ENDBRANCH  14  15
ENDBRANCH   1  14
TORSDOF 6
ENDMDL
MODEL 2
REMARK VINA RESULT:      -7.3      2.576      3.423
REMARK  Name = 
REMARK  7 active torsions:
REMARK  status: ('A' for Active; 'I' for Inactive)
REMARK    1  A    between atoms: C_1  and  N_2
REMARK    2  A    between atoms: N_4  and  C_5
REMARK    3  A    between atoms: N_7  and  C_8
REMARK    4  A    between atoms: C_8  and  C_9
REMARK    5  A    between atoms: C_9  and  C_10
REMARK    6  A    between atoms: C_10  and  C_11
REMARK    7  A    between atoms: C_11  and  N_12
REMARK                            x       y       z     vdW  Elec       q    Type
REMARK                         _______ _______ _______ _____ _____    ______ ____
ROOT
ATOM      1  C   UNL     1       4.115   2.311  20.630  0.00  0.00    +0.000 C 
ENDROOT
BRANCH   1   2
ATOM      2  N   UNL     1       4.291   2.951  19.335  0.00  0.00    +0.000 N 
ATOM      3  N   UNL     1       5.330   3.854  19.212  0.00  0.00    +0.000 NA
ATOM      4  C   UNL     1       5.414   4.580  18.124  0.00  0.00    +0.000 A 
ATOM      5  N   UNL     1       6.459   5.472  17.952  0.00  0.00    +0.000 N 
ATOM      6  C   UNL     1       7.577   5.618  18.872  0.00  0.00    +0.000 C 
ATOM      7  C   UNL     1       7.974   7.076  18.681  0.00  0.00    +0.000 C 
ATOM      8  C   UNL     1       7.786   7.293  17.189  0.00  0.00    +0.000 C 
ATOM      9  C   UNL     1       6.631   6.368  16.812  0.00  0.00    +0.000 C 
ATOM     10  C   UNL     1       4.375   4.471  17.058  0.00  0.00    +0.000 A 
ATOM     11  C   UNL     1       3.463   3.505  17.130  0.00  0.00    +0.000 A 
ATOM     12  C   UNL     1       3.409   2.634  18.311  0.00  0.00    +0.000 A 
ATOM     13  O   UNL     1       2.563   1.743  18.357  0.00  0.00    +0.000 OA
ENDBRANCH   1   2
BRANCH   1  14
ATOM     14  C   UNL     1       2.742   2.573  21.251  0.00  0.00    +0.000 C 
BRANCH  14  15
ATOM     15  C   UNL     1       2.491   4.060  21.550  0.00  0.00    +0.000 C 
BRANCH  15  16
ATOM     16  C   UNL     1       1.385   4.665  20.680  0.00  0.00    +0.000 C 
BRANCH  16  21
ATOM     17  C   UNL     1       2.843   7.641  18.029  0.00  0.00    +0.000 C 
ATOM     18  N   UNL     1       2.259   8.009  19.306  0.00  0.00    +0.000 NA
ATOM     19  C   UNL     1       1.830   7.103  20.117  0.00  0.00    +0.000 C 
ATOM     20  N   UNL     1       1.238   7.442  21.299  0.00  0.00    +0.000 N 
ATOM     21  N   UNL     1       1.887   5.752  19.866  0.00  0.00    +0.000 N 
ATOM     22  H   UNL     1       1.096   6.740  22.002  0.00  0.00    +0.000 HD
ATOM     23  H   UNL     1       2.269   5.484  18.967  0.00  0.00    +0.000 HD
BRANCH  20  24
ATOM     24  C   UNL     1       1.232   8.818  21.735  0.00  0.00    +0.000 C 
ATOM     25  N   UNL     1       1.294   9.891  22.161  0.00  0.00    +0.000 NA
ENDBRANCH  20  24
ENDBRANCH  16  21
ENDBRANCH  15  16
ENDBRANCH  14  15
ENDBRANCH   1  14
TORSDOF 6
ENDMDL
MODEL 3
REMARK VINA RESULT:      -7.3      5.630      7.591
REMARK  Name = 
REMARK  7 active torsions:
REMARK  status: ('A' for Active; 'I' for Inactive)
REMARK    1  A    between atoms: C_1  and  N_2
REMARK    2  A    between atoms: N_4  and  C_5
REMARK    3  A    between atoms: N_7  and  C_8
REMARK    4  A    between atoms: C_8  and  C_9
REMARK    5  A    between atoms: C_9  and  C_10
REMARK    6  A    between atoms: C_10  and  C_11
REMARK    7  A    between atoms: C_11  and  N_12
REMARK                            x       y       z     vdW  Elec       q    Type
REMARK                         _______ _______ _______ _____ _____    ______ ____
ROOT
ATOM      1  C   UNL     1       7.704   6.662  17.868  0.00  0.00    +0.000 C 
ENDROOT
BRANCH   1   2
ATOM      2  N   UNL     1       6.576   5.919  17.327  0.00  0.00    +0.000 N 
ATOM      3  N   UNL     1       5.452   5.806  18.125  0.00  0.00    +0.000 NA
ATOM      4  C   UNL     1       4.488   5.001  17.752  0.00  0.00    +0.000 A 
ATOM      5  N   UNL     1       3.334   4.887  18.510  0.00  0.00    +0.000 N 
ATOM      6  C   UNL     1       3.041   5.686  19.690  0.00  0.00    +0.000 C 
ATOM      7  C   UNL     1       2.154   4.756  20.508  0.00  0.00    +0.000 C 
ATOM      8  C   UNL     1       1.308   4.067  19.450  0.00  0.00    +0.000 C 
ATOM      9  C   UNL     1       2.217   3.990  18.225  0.00  0.00    +0.000 C 
ATOM     10  C   UNL     1       4.622   4.180  16.513  0.00  0.00    +0.000 A 
ATOM     11  C   UNL     1       5.643   4.400  15.691  0.00  0.00    +0.000 A 
ATOM     12  C   UNL     1       6.692   5.360  16.062  0.00  0.00    +0.000 A 
ATOM     13  O   UNL     1       7.625   5.555  15.286  0.00  0.00    +0.000 OA
ENDBRANCH   1   2
BRANCH   1  14
ATOM     14  C   UNL     1       7.595   8.171  17.641  0.00  0.00    +0.000 C 
BRANCH  14  15
ATOM     15  C   UNL     1       8.593   8.979  18.486  0.00  0.00    +0.000 C 
BRANCH  15  16
ATOM     16  C   UNL     1       8.803  10.403  17.960  0.00  0.00    +0.000 C 
BRANCH  16  21
ATOM     17  C   UNL     1      12.318  11.954  19.764  0.00  0.00    +0.000 C 
ATOM     18  N   UNL     1      11.329  12.844  19.183  0.00  0.00    +0.000 NA
ATOM     19  C   UNL     1      10.254  12.373  18.649  0.00  0.00    +0.000 C 
ATOM     20  N   UNL     1       9.342  13.199  18.060  0.00  0.00    +0.000 N 
ATOM     21  N   UNL     1       9.948  11.034  18.585  0.00  0.00    +0.000 N 
ATOM     22  H   UNL     1       8.429  12.849  17.833  0.00  0.00    +0.000 HD
ATOM     23  H   UNL     1      10.642  10.402  18.964  0.00  0.00    +0.000 HD
BRANCH  20  24
ATOM     24  C   UNL     1       9.487  14.631  18.172  0.00  0.00    +0.000 C 
ATOM     25  N   UNL     1       9.689  15.759  18.323  0.00  0.00    +0.000 NA
ENDBRANCH  20  24
ENDBRANCH  16  21
ENDBRANCH  15  16
ENDBRANCH  14  15
ENDBRANCH   1  14
TORSDOF 6
ENDMDL
MODEL 4
REMARK VINA RESULT:      -7.1      1.842      7.936
REMARK  Name = 
REMARK  7 active torsions:
REMARK  status: ('A' for Active; 'I' for Inactive)
REMARK    1  A    between atoms: C_1  and  N_2
REMARK    2  A    between atoms: N_4  and  C_5
REMARK    3  A    between atoms: N_7  and  C_8
REMARK    4  A    between atoms: C_8  and  C_9
REMARK    5  A    between atoms: C_9  and  C_10
REMARK    6  A    between atoms: C_10  and  C_11
REMARK    7  A    between atoms: C_11  and  N_12
REMARK                            x       y       z     vdW  Elec       q    Type
REMARK                         _______ _______ _______ _____ _____    ______ ____
ROOT
ATOM      1  C   UNL     1       2.660   5.826  19.778  0.00  0.00    +0.000 C 
ENDROOT
BRANCH   1   2
ATOM      2  N   UNL     1       2.296   7.212  19.521  0.00  0.00    +0.000 N 
ATOM      3  N   UNL     1       1.653   7.894  20.537  0.00  0.00    +0.000 NA
ATOM      4  C   UNL     1       1.153   9.079  20.287  0.00  0.00    +0.000 A 
ATOM      5  N   UNL     1       0.531   9.806  21.289  0.00  0.00    +0.000 N 
ATOM      6  C   UNL     1       0.459   9.394  22.682  0.00  0.00    +0.000 C 
ATOM      7  C   UNL     1      -0.837  10.042  23.153  0.00  0.00    +0.000 C 
ATOM      8  C   UNL     1      -0.833  11.382  22.436  0.00  0.00    +0.000 C 
ATOM      9  C   UNL     1      -0.108  11.109  21.120  0.00  0.00    +0.000 C 
ATOM     10  C   UNL     1       1.229   9.661  18.915  0.00  0.00    +0.000 A 
ATOM     11  C   UNL     1       1.966   9.054  17.988  0.00  0.00    +0.000 A 
ATOM     12  C   UNL     1       2.598   7.761  18.283  0.00  0.00    +0.000 A 
ATOM     13  O   UNL     1       3.280   7.219  17.417  0.00  0.00    +0.000 OA
ENDBRANCH   1   2
BRANCH   1  14
ATOM     14  C   UNL     1       1.577   4.831  19.361  0.00  0.00    +0.000 C 
BRANCH  14  15
ATOM     15  C   UNL     1       1.854   4.177  17.998  0.00  0.00    +0.000 C 
BRANCH  15  16
ATOM     16  C   UNL     1       2.954   3.112  18.060  0.00  0.00    +0.000 C 
BRANCH  16  21
ATOM     17  C   UNL     1       6.018   4.087  15.290  0.00  0.00    +0.000 C 
ATOM     18  N   UNL     1       6.143   4.450  16.690  0.00  0.00    +0.000 NA
ATOM     19  C   UNL     1       5.218   4.140  17.533  0.00  0.00    +0.000 C 
ATOM     20  N   UNL     1       5.306   4.518  18.842  0.00  0.00    +0.000 N 
ATOM     21  N   UNL     1       4.071   3.456  17.205  0.00  0.00    +0.000 N 
ATOM     22  H   UNL     1       4.694   4.103  19.520  0.00  0.00    +0.000 HD
ATOM     23  H   UNL     1       3.961   3.220  16.226  0.00  0.00    +0.000 HD
BRANCH  20  24
ATOM     24  C   UNL     1       6.516   5.129  19.337  0.00  0.00    +0.000 C 
ATOM     25  N   UNL     1       7.508   5.525  19.781  0.00  0.00    +0.000 NA
ENDBRANCH  20  24
ENDBRANCH  16  21
ENDBRANCH  15  16
ENDBRANCH  14  15
ENDBRANCH   1  14
TORSDOF 6
ENDMDL
MODEL 5
REMARK VINA RESULT:      -7.1      0.988      1.088
REMARK  Name = 
REMARK  7 active torsions:
REMARK  status: ('A' for Active; 'I' for Inactive)
REMARK    1  A    between atoms: C_1  and  N_2
REMARK    2  A    between atoms: N_4  and  C_5
REMARK    3  A    between atoms: N_7  and  C_8
REMARK    4  A    between atoms: C_8  and  C_9
REMARK    5  A    between atoms: C_9  and  C_10
REMARK    6  A    between atoms: C_10  and  C_11
REMARK    7  A    between atoms: C_11  and  N_12
REMARK                            x       y       z     vdW  Elec       q    Type
REMARK                         _______ _______ _______ _____ _____    ______ ____
ROOT
ATOM      1  C   UNL     1       3.797   3.667  18.313  0.00  0.00    +0.000 C 
ENDROOT
BRANCH   1   2
ATOM      2  N   UNL     1       5.005   4.142  17.654  0.00  0.00    +0.000 N 
ATOM      3  N   UNL     1       5.054   4.038  16.276  0.00  0.00    +0.000 NA
ATOM      4  C   UNL     1       6.185   4.288  15.662  0.00  0.00    +0.000 A 
ATOM      5  N   UNL     1       6.264   4.226  14.280  0.00  0.00    +0.000 N 
ATOM      6  C   UNL     1       5.130   3.986  13.401  0.00  0.00    +0.000 C 
ATOM      7  C   UNL     1       5.778   3.306  12.202  0.00  0.00    +0.000 C 
ATOM      8  C   UNL     1       7.101   4.040  12.061  0.00  0.00    +0.000 C 
ATOM      9  C   UNL     1       7.474   4.431  13.490  0.00  0.00    +0.000 C 
ATOM     10  C   UNL     1       7.412   4.627  16.440  0.00  0.00    +0.000 A 
ATOM     11  C   UNL     1       7.314   4.855  17.747  0.00  0.00    +0.000 A 
ATOM     12  C   UNL     1       6.032   4.654  18.434  0.00  0.00    +0.000 A 
ATOM     13  O   UNL     1       5.959   4.875  19.641  0.00  0.00    +0.000 OA
ENDBRANCH   1   2
BRANCH   1  14
ATOM     14  C   UNL     1       2.599   4.597  18.118  0.00  0.00    +0.000 C 
BRANCH  14  15
ATOM     15  C   UNL     1       2.975   6.085  18.188  0.00  0.00    +0.000 C 
BRANCH  15  16
ATOM     16  C   UNL     1       2.567   6.742  19.511  0.00  0.00    +0.000 C 
BRANCH  16  21
ATOM     17  C   UNL     1       0.290  10.189  18.538  0.00  0.00    +0.000 C 
ATOM     18  N   UNL     1       0.499   9.806  19.923  0.00  0.00    +0.000 NA
ATOM     19  C   UNL     1       1.204   8.768  20.217  0.00  0.00    +0.000 C 
ATOM     20  N   UNL     1       1.367   8.374  21.514  0.00  0.00    +0.000 N 
ATOM     21  N   UNL     1       1.808   7.956  19.287  0.00  0.00    +0.000 N 
ATOM     22  H   UNL     1       2.072   7.698  21.743  0.00  0.00    +0.000 HD
ATOM     23  H   UNL     1       1.649   8.198  18.317  0.00  0.00    +0.000 HD
BRANCH  20  24
ATOM     24  C   UNL     1       0.889   9.212  22.588  0.00  0.00    +0.000 C 
ATOM     25  N   UNL     1       0.435   9.807  23.469  0.00  0.00    +0.000 NA
ENDBRANCH  20  24
ENDBRANCH  16  21
ENDBRANCH  15  16
ENDBRANCH  14  15
ENDBRANCH   1  14
TORSDOF 6
ENDMDL
MODEL 6
REMARK VINA RESULT:      -7.0      1.748      8.126
REMARK  Name = 
REMARK  7 active torsions:
REMARK  status: ('A' for Active; 'I' for Inactive)
REMARK    1  A    between atoms: C_1  and  N_2
REMARK    2  A    between atoms: N_4  and  C_5
REMARK    3  A    between atoms: N_7  and  C_8
REMARK    4  A    between atoms: C_8  and  C_9
REMARK    5  A    between atoms: C_9  and  C_10
REMARK    6  A    between atoms: C_10  and  C_11
REMARK    7  A    between atoms: C_11  and  N_12
REMARK                            x       y       z     vdW  Elec       q    Type
REMARK                         _______ _______ _______ _____ _____    ______ ____
ROOT
ATOM      1  C   UNL     1       2.671   5.417  20.276  0.00  0.00    +0.000 C 
ENDROOT
BRANCH   1   2
ATOM      2  N   UNL     1       2.370   6.768  19.829  0.00  0.00    +0.000 N 
ATOM      3  N   UNL     1       1.723   7.600  20.724  0.00  0.00    +0.000 NA
ATOM      4  C   UNL     1       1.278   8.759  20.304  0.00  0.00    +0.000 A 
ATOM      5  N   UNL     1       0.655   9.633  21.180  0.00  0.00    +0.000 N 
ATOM      6  C   UNL     1       0.524   9.409  22.612  0.00  0.00    +0.000 C 
ATOM      7  C   UNL     1      -0.759  10.159  22.948  0.00  0.00    +0.000 C 
ATOM      8  C   UNL     1      -0.680  11.392  22.064  0.00  0.00    +0.000 C 
ATOM      9  C   UNL     1       0.073  10.923  20.821  0.00  0.00    +0.000 C 
ATOM     10  C   UNL     1       1.419   9.152  18.871  0.00  0.00    +0.000 A 
ATOM     11  C   UNL     1       2.160   8.404  18.059  0.00  0.00    +0.000 A 
ATOM     12  C   UNL     1       2.731   7.140  18.541  0.00  0.00    +0.000 A 
ATOM     13  O   UNL     1       3.418   6.465  17.778  0.00  0.00    +0.000 OA
ENDBRANCH   1   2
BRANCH   1  14
ATOM     14  C   UNL     1       2.330   4.348  19.237  0.00  0.00    +0.000 C 
BRANCH  14  15
ATOM     15  C   UNL     1       3.200   3.087  19.363  0.00  0.00    +0.000 C 
BRANCH  15  16
ATOM     16  C   UNL     1       4.304   3.016  18.303  0.00  0.00    +0.000 C 
BRANCH  16  21
ATOM     17  C   UNL     1       7.469   5.573  19.507  0.00  0.00    +0.000 C 
ATOM     18  N   UNL     1       7.261   5.263  18.105  0.00  0.00    +0.000 NA
ATOM     19  C   UNL     1       6.289   4.498  17.739  0.00  0.00    +0.000 C 
ATOM     20  N   UNL     1       6.114   4.165  16.427  0.00  0.00    +0.000 N 
ATOM     21  N   UNL     1       5.387   3.928  18.605  0.00  0.00    +0.000 N 
ATOM     22  H   UNL     1       5.252   3.745  16.132  0.00  0.00    +0.000 HD
ATOM     23  H   UNL     1       5.537   4.116  19.589  0.00  0.00    +0.000 HD
BRANCH  20  24
ATOM     24  C   UNL     1       6.917   4.798  15.408  0.00  0.00    +0.000 C 
ATOM     25  N   UNL     1       7.596   5.209  14.567  0.00  0.00    +0.000 NA
ENDBRANCH  20  24
ENDBRANCH  16  21
ENDBRANCH  15  16
ENDBRANCH  14  15
ENDBRANCH   1  14
TORSDOF 6
ENDMDL
MODEL 7
REMARK VINA RESULT:      -7.0      4.872      7.114
REMARK  Name = 
REMARK  7 active torsions:
REMARK  status: ('A' for Active; 'I' for Inactive)
REMARK    1  A    between atoms: C_1  and  N_2
REMARK    2  A    between atoms: N_4  and  C_5
REMARK    3  A    between atoms: N_7  and  C_8
REMARK    4  A    between atoms: C_8  and  C_9
REMARK    5  A    between atoms: C_9  and  C_10
REMARK    6  A    between atoms: C_10  and  C_11
REMARK    7  A    between atoms: C_11  and  N_12
REMARK                            x       y       z     vdW  Elec       q    Type
REMARK                         _______ _______ _______ _____ _____    ______ ____
ROOT
ATOM      1  C   UNL     1       7.851   5.237  18.322  0.00  0.00    +0.000 C 
ENDROOT
BRANCH   1   2
ATOM      2  N   UNL     1       6.575   4.899  17.708  0.00  0.00    +0.000 N 
ATOM      3  N   UNL     1       5.468   4.857  18.534  0.00  0.00    +0.000 NA
ATOM      4  C   UNL     1       4.340   4.388  18.059  0.00  0.00    +0.000 A 
ATOM      5  N   UNL     1       3.202   4.361  18.847  0.00  0.00    +0.000 N 
ATOM      6  C   UNL     1       3.116   4.917  20.189  0.00  0.00    +0.000 C 
ATOM      7  C   UNL     1       2.053   4.044  20.842  0.00  0.00    +0.000 C 
ATOM      8  C   UNL     1       1.057   3.812  19.718  0.00  0.00    +0.000 C 
ATOM      9  C   UNL     1       1.906   3.816  18.449  0.00  0.00    +0.000 C 
ATOM     10  C   UNL     1       4.266   3.858  16.666  0.00  0.00    +0.000 A 
ATOM     11  C   UNL     1       5.299   4.030  15.846  0.00  0.00    +0.000 A 
ATOM     12  C   UNL     1       6.543   4.628  16.347  0.00  0.00    +0.000 A 
ATOM     13  O   UNL     1       7.484   4.785  15.572  0.00  0.00    +0.000 OA
ENDBRANCH   1   2
BRANCH   1  14
ATOM     14  C   UNL     1       7.907   6.675  18.841  0.00  0.00    +0.000 C 
BRANCH  14  15
ATOM     15  C   UNL     1       7.378   7.702  17.827  0.00  0.00    +0.000 C 
BRANCH  15  16
ATOM     16  C   UNL     1       8.382   8.822  17.533  0.00  0.00    +0.000 C 
BRANCH  16  21
ATOM     17  C   UNL     1       9.059  10.888  21.178  0.00  0.00    +0.000 C 
ATOM     18  N   UNL     1       9.685  11.334  19.946  0.00  0.00    +0.000 NA
ATOM     19  C   UNL     1       9.466  10.714  18.836  0.00  0.00    +0.000 C 
ATOM     20  N   UNL     1      10.087  11.099  17.683  0.00  0.00    +0.000 N 
ATOM     21  N   UNL     1       8.646   9.618  18.713  0.00  0.00    +0.000 N 
ATOM     22  H   UNL     1       9.760  10.747  16.803  0.00  0.00    +0.000 HD
ATOM     23  H   UNL     1       8.224   9.282  19.570  0.00  0.00    +0.000 HD
BRANCH  20  24
ATOM     24  C   UNL     1      10.872  12.310  17.656  0.00  0.00    +0.000 C 
ATOM     25  N   UNL     1      11.506  13.273  17.740  0.00  0.00    +0.000 NA
ENDBRANCH  20  24
ENDBRANCH  16  21
ENDBRANCH  15  16
ENDBRANCH  14  15
ENDBRANCH   1  14
TORSDOF 6
ENDMDL
MODEL 8
REMARK VINA RESULT:      -7.0      2.702      8.226
REMARK  Name = 
REMARK  7 active torsions:
REMARK  status: ('A' for Active; 'I' for Inactive)
REMARK    1  A    between atoms: C_1  and  N_2
REMARK    2  A    between atoms: N_4  and  C_5
REMARK    3  A    between atoms: N_7  and  C_8
REMARK    4  A    between atoms: C_8  and  C_9
REMARK    5  A    between atoms: C_9  and  C_10
REMARK    6  A    between atoms: C_10  and  C_11
REMARK    7  A    between atoms: C_11  and  N_12
REMARK                            x       y       z     vdW  Elec       q    Type
REMARK                         _______ _______ _______ _____ _____    ______ ____
ROOT
ATOM      1  C   UNL     1       6.606   4.576  16.757  0.00  0.00    +0.000 C 
ENDROOT
BRANCH   1   2
ATOM      2  N   UNL     1       5.501   5.247  17.425  0.00  0.00    +0.000 N 
ATOM      3  N   UNL     1       4.732   4.489  18.289  0.00  0.00    +0.000 NA
ATOM      4  C   UNL     1       3.629   5.004  18.773  0.00  0.00    +0.000 A 
ATOM      5  N   UNL     1       2.850   4.287  19.666  0.00  0.00    +0.000 N 
ATOM      6  C   UNL     1       3.211   2.988  20.215  0.00  0.00    +0.000 C 
ATOM      7  C   UNL     1       1.852   2.351  20.477  0.00  0.00    +0.000 C 
ATOM      8  C   UNL     1       1.011   3.519  20.966  0.00  0.00    +0.000 C 
ATOM      9  C   UNL     1       1.579   4.731  20.230  0.00  0.00    +0.000 C 
ATOM     10  C   UNL     1       3.180   6.365  18.356  0.00  0.00    +0.000 A 
ATOM     11  C   UNL     1       3.996   7.129  17.635  0.00  0.00    +0.000 A 
ATOM     12  C   UNL     1       5.274   6.589  17.153  0.00  0.00    +0.000 A 
ATOM     13  O   UNL     1       6.017   7.312  16.493  0.00  0.00    +0.000 OA
ENDBRANCH   1   2
BRANCH   1  14
ATOM     14  C   UNL     1       6.150   3.598  15.673  0.00  0.00    +0.000 C 
BRANCH  14  15
ATOM     15  C   UNL     1       5.646   4.301  14.402  0.00  0.00    +0.000 C 
BRANCH  15  16
ATOM     16  C   UNL     1       6.633   4.201  13.234  0.00  0.00    +0.000 C 
BRANCH  16  21
ATOM     17  C   UNL     1       6.275   0.450  11.282  0.00  0.00    +0.000 C 
ATOM     18  N   UNL     1       5.334   1.520  11.008  0.00  0.00    +0.000 NA
ATOM     19  C   UNL     1       5.453   2.664  11.590  0.00  0.00    +0.000 C 
ATOM     20  N   UNL     1       4.545   3.660  11.373  0.00  0.00    +0.000 N 
ATOM     21  N   UNL     1       6.447   2.974  12.488  0.00  0.00    +0.000 N 
ATOM     22  H   UNL     1       4.756   4.596  11.666  0.00  0.00    +0.000 HD
ATOM     23  H   UNL     1       7.095   2.228  12.706  0.00  0.00    +0.000 HD
BRANCH  20  24
ATOM     24  C   UNL     1       3.529   3.502  10.360  0.00  0.00    +0.000 C 
ATOM     25  N   UNL     1       2.658   3.447   9.601  0.00  0.00    +0.000 NA
ENDBRANCH  20  24
ENDBRANCH  16  21
ENDBRANCH  15  16
ENDBRANCH  14  15
ENDBRANCH   1  14
TORSDOF 6
ENDMDL
MODEL 9
REMARK VINA RESULT:      -7.0      5.346      7.272
REMARK  Name = 
REMARK  7 active torsions:
REMARK  status: ('A' for Active; 'I' for Inactive)
REMARK    1  A    between atoms: C_1  and  N_2
REMARK    2  A    between atoms: N_4  and  C_5
REMARK    3  A    between atoms: N_7  and  C_8
REMARK    4  A    between atoms: C_8  and  C_9
REMARK    5  A    between atoms: C_9  and  C_10
REMARK    6  A    between atoms: C_10  and  C_11
REMARK    7  A    between atoms: C_11  and  N_12
REMARK                            x       y       z     vdW  Elec       q    Type
REMARK                         _______ _______ _______ _____ _____    ______ ____
ROOT
ATOM      1  C   UNL     1       7.469   6.490  18.153  0.00  0.00    +0.000 C 
ENDROOT
BRANCH   1   2
ATOM      2  N   UNL     1       6.350   5.746  17.594  0.00  0.00    +0.000 N 
ATOM      3  N   UNL     1       5.222   5.615  18.382  0.00  0.00    +0.000 NA
ATOM      4  C   UNL     1       4.265   4.809  17.990  0.00  0.00    +0.000 A 
ATOM      5  N   UNL     1       3.106   4.677  18.737  0.00  0.00    +0.000 N 
ATOM      6  C   UNL     1       2.799   5.459  19.925  0.00  0.00    +0.000 C 
ATOM      7  C   UNL     1       1.912   4.512  20.724  0.00  0.00    +0.000 C 
ATOM      8  C   UNL     1       1.079   3.831  19.651  0.00  0.00    +0.000 C 
ATOM      9  C   UNL     1       1.998   3.776  18.432  0.00  0.00    +0.000 C 
ATOM     10  C   UNL     1       4.415   4.004  16.742  0.00  0.00    +0.000 A 
ATOM     11  C   UNL     1       5.441   4.243  15.931  0.00  0.00    +0.000 A 
ATOM     12  C   UNL     1       6.480   5.204  16.323  0.00  0.00    +0.000 A 
ATOM     13  O   UNL     1       7.418   5.416  15.557  0.00  0.00    +0.000 OA
ENDBRANCH   1   2
BRANCH   1  14
ATOM     14  C   UNL     1       7.647   7.873  17.525  0.00  0.00    +0.000 C 
BRANCH  14  15
ATOM     15  C   UNL     1       8.517   8.812  18.375  0.00  0.00    +0.000 C 
BRANCH  15  16
ATOM     16  C   UNL     1       8.261  10.294  18.078  0.00  0.00    +0.000 C 
BRANCH  16  21
ATOM     17  C   UNL     1      11.897  12.436  17.633  0.00  0.00    +0.000 C 
ATOM     18  N   UNL     1      11.042  12.661  18.784  0.00  0.00    +0.000 NA
ATOM     19  C   UNL     1       9.945  11.998  18.926  0.00  0.00    +0.000 C 
ATOM     20  N   UNL     1       9.112  12.235  19.982  0.00  0.00    +0.000 N 
ATOM     21  N   UNL     1       9.497  11.047  18.040  0.00  0.00    +0.000 N 
ATOM     22  H   UNL     1       8.377  11.585  20.190  0.00  0.00    +0.000 HD
ATOM     23  H   UNL     1      10.073  10.900  17.220  0.00  0.00    +0.000 HD
BRANCH  20  24
ATOM     24  C   UNL     1       9.529  13.118  21.045  0.00  0.00    +0.000 C 
ATOM     25  N   UNL     1       9.761  13.831  21.925  0.00  0.00    +0.000 NA
ENDBRANCH  20  24
ENDBRANCH  16  21
ENDBRANCH  15  16
ENDBRANCH  14  15
ENDBRANCH   1  14
TORSDOF 6
ENDMDL
