MODEL 1
REMARK VINA RESULT:      -7.6      0.000      0.000
REMARK  Name = 
REMARK  5 active torsions:
REMARK  status: ('A' for Active; 'I' for Inactive)
REMARK    1  A    between atoms: C_2  and  C_18
REMARK    2  A    between atoms: N_3  and  C_4
REMARK    3  A    between atoms: N_7  and  C_8
REMARK    4  A    between atoms: C_8  and  C_9
REMARK    5  A    between atoms: C_21  and  C_22
REMARK                            x       y       z     vdW  Elec       q    Type
REMARK                         _______ _______ _______ _____ _____    ______ ____
ROOT
ATOM      1  O   UNL     1       1.811   8.301  19.395  0.00  0.00    +0.000 OA
ATOM      2  C   UNL     1       1.453   8.126  20.561  0.00  0.00    +0.000 C 
ATOM      3  N   UNL     1       1.613   6.915  21.219  0.00  0.00    +0.000 N 
ATOM      4  H   UNL     1       1.284   6.827  22.174  0.00  0.00    +0.000 HD
ENDROOT
BRANCH   3   5
ATOM      5  C   UNL     1       2.117   5.790  20.579  0.00  0.00    +0.000 A 
ATOM      6  C   UNL     1       1.529   4.517  20.372  0.00  0.00    +0.000 A 
ATOM      7  N   UNL     1       2.360   3.662  19.777  0.00  0.00    +0.000 NA
ATOM      8  N   UNL     1       3.489   4.372  19.606  0.00  0.00    +0.000 N 
ATOM      9  C   UNL     1       3.369   5.677  20.015  0.00  0.00    +0.000 A 
BRANCH   8  10
ATOM     10  C   UNL     1       4.700   3.674  19.185  0.00  0.00    +0.000 C 
BRANCH  10  11
ATOM     11  C   UNL     1       5.263   4.244  17.907  0.00  0.00    +0.000 A 
ATOM     12  C   UNL     1       4.663   3.969  16.663  0.00  0.00    +0.000 A 
ATOM     13 CL   UNL     1       3.181   3.085  16.531  0.00  0.00    +0.000 Cl
ATOM     14  C   UNL     1       5.230   4.423  15.467  0.00  0.00    +0.000 A 
ATOM     15  C   UNL     1       6.405   5.167  15.485  0.00  0.00    +0.000 A 
ATOM     16  C   UNL     1       6.997   5.482  16.703  0.00  0.00    +0.000 A 
ATOM     17  C   UNL     1       6.432   5.032  17.902  0.00  0.00    +0.000 A 
ATOM     18 CL   UNL     1       7.224   5.532  19.357  0.00  0.00    +0.000 Cl
ENDBRANCH  10  11
ENDBRANCH   8  10
ENDBRANCH   3   5
BRANCH   2  19
ATOM     19  C   UNL     1       0.810   9.184  21.319  0.00  0.00    +0.000 A 
ATOM     20  N   UNL     1       0.912   9.377  22.620  0.00  0.00    +0.000 NA
ATOM     21  N   UNL     1       0.151  10.473  23.026  0.00  0.00    +0.000 NA
ATOM     22  C   UNL     1      -0.500  11.027  22.019  0.00  0.00    +0.000 A 
ATOM     23  S   UNL     1      -0.198  10.299  20.502  0.00  0.00    +0.000 S 
BRANCH  22  24
ATOM     24  C   UNL     1      -1.443  12.101  22.140  0.00  0.00    +0.000 A 
ATOM     25  C   UNL     1      -1.568  13.050  23.142  0.00  0.00    +0.000 A 
ATOM     26  C   UNL     1      -2.734  13.809  22.859  0.00  0.00    +0.000 A 
ATOM     27  C   UNL     1      -3.232  13.316  21.677  0.00  0.00    +0.000 A 
ATOM     28  O   UNL     1      -2.453  12.302  21.228  0.00  0.00    +0.000 OA
ENDBRANCH  22  24
ENDBRANCH   2  19
TORSDOF 5
ENDMDL
MODEL 2
REMARK VINA RESULT:      -7.5      1.493      1.593
REMARK  Name = 
REMARK  5 active torsions:
REMARK  status: ('A' for Active; 'I' for Inactive)
REMARK    1  A    between atoms: C_2  and  C_18
REMARK    2  A    between atoms: N_3  and  C_4
REMARK    3  A    between atoms: N_7  and  C_8
REMARK    4  A    between atoms: C_8  and  C_9
REMARK    5  A    between atoms: C_21  and  C_22
REMARK                            x       y       z     vdW  Elec       q    Type
REMARK                         _______ _______ _______ _____ _____    ______ ____
ROOT
ATOM      1  O   UNL     1       1.718   8.387  18.178  0.00  0.00    +0.000 OA
ATOM      2  C   UNL     1       1.565   8.681  19.365  0.00  0.00    +0.000 C 
ATOM      3  N   UNL     1       1.889   7.812  20.398  0.00  0.00    +0.000 N 
ATOM      4  H   UNL     1       1.727   8.103  21.355  0.00  0.00    +0.000 HD
ENDROOT
BRANCH   3   5
ATOM      5  C   UNL     1       2.335   6.518  20.159  0.00  0.00    +0.000 A 
ATOM      6  C   UNL     1       1.761   5.273  20.522  0.00  0.00    +0.000 A 
ATOM      7  N   UNL     1       2.529   4.239  20.180  0.00  0.00    +0.000 NA
ATOM      8  N   UNL     1       3.604   4.808  19.606  0.00  0.00    +0.000 N 
ATOM      9  C   UNL     1       3.502   6.174  19.514  0.00  0.00    +0.000 A 
BRANCH   8  10
ATOM     10  C   UNL     1       4.767   3.975  19.315  0.00  0.00    +0.000 C 
BRANCH  10  11
ATOM     11  C   UNL     1       5.357   4.286  17.961  0.00  0.00    +0.000 A 
ATOM     12  C   UNL     1       4.687   3.925  16.777  0.00  0.00    +0.000 A 
ATOM     13 CL   UNL     1       3.101   3.232  16.791  0.00  0.00    +0.000 Cl
ATOM     14  C   UNL     1       5.269   4.132  15.522  0.00  0.00    +0.000 A 
ATOM     15  C   UNL     1       6.529   4.710  15.419  0.00  0.00    +0.000 A 
ATOM     16  C   UNL     1       7.195   5.110  16.573  0.00  0.00    +0.000 A 
ATOM     17  C   UNL     1       6.616   4.906  17.831  0.00  0.00    +0.000 A 
ATOM     18 CL   UNL     1       7.511   5.492  19.190  0.00  0.00    +0.000 Cl
ENDBRANCH  10  11
ENDBRANCH   8  10
ENDBRANCH   3   5
BRANCH   2  19
ATOM     19  C   UNL     1       1.006   9.960  19.760  0.00  0.00    +0.000 A 
ATOM     20  N   UNL     1       0.866  11.018  18.983  0.00  0.00    +0.000 NA
ATOM     21  N   UNL     1       0.311  12.087  19.687  0.00  0.00    +0.000 NA
ATOM     22  C   UNL     1       0.088  11.787  20.953  0.00  0.00    +0.000 A 
ATOM     23  S   UNL     1       0.482  10.177  21.374  0.00  0.00    +0.000 S 
BRANCH  22  24
ATOM     24  C   UNL     1      -0.375  12.710  21.948  0.00  0.00    +0.000 A 
ATOM     25  C   UNL     1      -1.329  12.529  22.937  0.00  0.00    +0.000 A 
ATOM     26  C   UNL     1      -1.514  13.782  23.578  0.00  0.00    +0.000 A 
ATOM     27  C   UNL     1      -0.631  14.649  22.980  0.00  0.00    +0.000 A 
ATOM     28  O   UNL     1       0.070  14.011  22.013  0.00  0.00    +0.000 OA
ENDBRANCH  22  24
ENDBRANCH   2  19
TORSDOF 5
ENDMDL
MODEL 3
REMARK VINA RESULT:      -7.4      1.523      2.029
REMARK  Name = 
REMARK  5 active torsions:
REMARK  status: ('A' for Active; 'I' for Inactive)
REMARK    1  A    between atoms: C_2  and  C_18
REMARK    2  A    between atoms: N_3  and  C_4
REMARK    3  A    between atoms: N_7  and  C_8
REMARK    4  A    between atoms: C_8  and  C_9
REMARK    5  A    between atoms: C_21  and  C_22
REMARK                            x       y       z     vdW  Elec       q    Type
REMARK                         _______ _______ _______ _____ _____    ______ ____
ROOT
ATOM      1  O   UNL     1       1.295   8.817  19.322  0.00  0.00    +0.000 OA
ATOM      2  C   UNL     1       1.139   8.450  20.488  0.00  0.00    +0.000 C 
ATOM      3  N   UNL     1       1.458   7.169  20.918  0.00  0.00    +0.000 N 
ATOM      4  H   UNL     1       1.293   6.920  21.887  0.00  0.00    +0.000 HD
ENDROOT
BRANCH   3   5
ATOM      5  C   UNL     1       1.900   6.187  20.041  0.00  0.00    +0.000 A 
ATOM      6  C   UNL     1       1.737   4.779  20.089  0.00  0.00    +0.000 A 
ATOM      7  N   UNL     1       2.377   4.158  19.099  0.00  0.00    +0.000 NA
ATOM      8  N   UNL     1       2.963   5.156  18.414  0.00  0.00    +0.000 N 
ATOM      9  C   UNL     1       2.652   6.399  18.906  0.00  0.00    +0.000 A 
BRANCH   8  10
ATOM     10  C   UNL     1       3.943   4.820  17.385  0.00  0.00    +0.000 C 
BRANCH  10  11
ATOM     11  C   UNL     1       5.292   5.432  17.673  0.00  0.00    +0.000 A 
ATOM     12  C   UNL     1       6.056   5.017  18.779  0.00  0.00    +0.000 A 
ATOM     13 CL   UNL     1       5.572   3.700  19.792  0.00  0.00    +0.000 Cl
ATOM     14  C   UNL     1       7.267   5.641  19.100  0.00  0.00    +0.000 A 
ATOM     15  C   UNL     1       7.745   6.689  18.321  0.00  0.00    +0.000 A 
ATOM     16  C   UNL     1       7.026   7.093  17.202  0.00  0.00    +0.000 A 
ATOM     17  C   UNL     1       5.815   6.470  16.876  0.00  0.00    +0.000 A 
ATOM     18 CL   UNL     1       5.036   7.019  15.432  0.00  0.00    +0.000 Cl
ENDBRANCH  10  11
ENDBRANCH   8  10
ENDBRANCH   3   5
BRANCH   2  19
ATOM     19  C   UNL     1       0.583   9.340  21.490  0.00  0.00    +0.000 A 
ATOM     20  N   UNL     1       0.842   9.308  22.784  0.00  0.00    +0.000 NA
ATOM     21  N   UNL     1       0.124  10.292  23.463  0.00  0.00    +0.000 NA
ATOM     22  C   UNL     1      -0.652  10.990  22.654  0.00  0.00    +0.000 A 
ATOM     23  S   UNL     1      -0.531  10.545  21.008  0.00  0.00    +0.000 S 
BRANCH  22  24
ATOM     24  C   UNL     1      -1.586  11.995  23.073  0.00  0.00    +0.000 A 
ATOM     25  C   UNL     1      -1.388  13.353  23.259  0.00  0.00    +0.000 A 
ATOM     26  C   UNL     1      -2.588  13.884  23.800  0.00  0.00    +0.000 A 
ATOM     27  C   UNL     1      -3.471  12.833  23.872  0.00  0.00    +0.000 A 
ATOM     28  O   UNL     1      -2.884  11.698  23.420  0.00  0.00    +0.000 OA
ENDBRANCH  22  24
ENDBRANCH   2  19
TORSDOF 5
ENDMDL
MODEL 4
REMARK VINA RESULT:      -7.2      5.931      8.076
REMARK  Name = 
REMARK  5 active torsions:
REMARK  status: ('A' for Active; 'I' for Inactive)
REMARK    1  A    between atoms: C_2  and  C_18
REMARK    2  A    between atoms: N_3  and  C_4
REMARK    3  A    between atoms: N_7  and  C_8
REMARK    4  A    between atoms: C_8  and  C_9
REMARK    5  A    between atoms: C_21  and  C_22
REMARK                            x       y       z     vdW  Elec       q    Type
REMARK                         _______ _______ _______ _____ _____    ______ ____
ROOT
ATOM      1  O   UNL     1       7.499   8.478  17.001  0.00  0.00    +0.000 OA
ATOM      2  C   UNL     1       8.096   8.452  18.078  0.00  0.00    +0.000 C 
ATOM      3  N   UNL     1       8.138   7.321  18.883  0.00  0.00    +0.000 N 
ATOM      4  H   UNL     1       8.633   7.364  19.767  0.00  0.00    +0.000 HD
ENDROOT
BRANCH   3   5
ATOM      5  C   UNL     1       7.438   6.164  18.564  0.00  0.00    +0.000 A 
ATOM      6  C   UNL     1       7.904   4.929  18.045  0.00  0.00    +0.000 A 
ATOM      7  N   UNL     1       6.912   4.075  17.794  0.00  0.00    +0.000 NA
ATOM      8  N   UNL     1       5.804   4.755  18.137  0.00  0.00    +0.000 N 
ATOM      9  C   UNL     1       6.075   5.992  18.666  0.00  0.00    +0.000 A 
BRANCH   8  10
ATOM     10  C   UNL     1       4.502   4.202  17.775  0.00  0.00    +0.000 C 
BRANCH  10  11
ATOM     11  C   UNL     1       3.566   4.145  18.958  0.00  0.00    +0.000 A 
ATOM     12  C   UNL     1       2.651   5.184  19.210  0.00  0.00    +0.000 A 
ATOM     13 CL   UNL     1       2.443   6.514  18.120  0.00  0.00    +0.000 Cl
ATOM     14  C   UNL     1       1.843   5.179  20.352  0.00  0.00    +0.000 A 
ATOM     15  C   UNL     1       1.924   4.134  21.265  0.00  0.00    +0.000 A 
ATOM     16  C   UNL     1       2.795   3.077  21.019  0.00  0.00    +0.000 A 
ATOM     17  C   UNL     1       3.604   3.078  19.877  0.00  0.00    +0.000 A 
ATOM     18 CL   UNL     1       4.607   1.687  19.649  0.00  0.00    +0.000 Cl
ENDBRANCH  10  11
ENDBRANCH   8  10
ENDBRANCH   3   5
BRANCH   2  19
ATOM     19  C   UNL     1       8.781   9.624  18.590  0.00  0.00    +0.000 A 
ATOM     20  N   UNL     1       9.428   9.704  19.737  0.00  0.00    +0.000 NA
ATOM     21  N   UNL     1       9.954  10.982  19.927  0.00  0.00    +0.000 NA
ATOM     22  C   UNL     1       9.655  11.797  18.932  0.00  0.00    +0.000 A 
ATOM     23  S   UNL     1       8.764  11.066  17.670  0.00  0.00    +0.000 S 
BRANCH  22  24
ATOM     24  C   UNL     1       9.964  13.197  18.894  0.00  0.00    +0.000 A 
ATOM     25  C   UNL     1      10.695  13.959  19.790  0.00  0.00    +0.000 A 
ATOM     26  C   UNL     1      10.602  15.311  19.367  0.00  0.00    +0.000 A 
ATOM     27  C   UNL     1       9.861  15.298  18.210  0.00  0.00    +0.000 A 
ATOM     28  O   UNL     1       9.488  14.031  17.908  0.00  0.00    +0.000 OA
ENDBRANCH  22  24
ENDBRANCH   2  19
TORSDOF 5
ENDMDL
MODEL 5
REMARK VINA RESULT:      -7.2      1.332      2.203
REMARK  Name = 
REMARK  5 active torsions:
REMARK  status: ('A' for Active; 'I' for Inactive)
REMARK    1  A    between atoms: C_2  and  C_18
REMARK    2  A    between atoms: N_3  and  C_4
REMARK    3  A    between atoms: N_7  and  C_8
REMARK    4  A    between atoms: C_8  and  C_9
REMARK    5  A    between atoms: C_21  and  C_22
REMARK                            x       y       z     vdW  Elec       q    Type
REMARK                         _______ _______ _______ _____ _____    ______ ____
ROOT
ATOM      1  O   UNL     1       1.712   8.379  18.053  0.00  0.00    +0.000 OA
ATOM      2  C   UNL     1       1.543   8.670  19.237  0.00  0.00    +0.000 C 
ATOM      3  N   UNL     1       1.909   7.825  20.275  0.00  0.00    +0.000 N 
ATOM      4  H   UNL     1       1.730   8.112  21.231  0.00  0.00    +0.000 HD
ENDROOT
BRANCH   3   5
ATOM      5  C   UNL     1       2.420   6.554  20.044  0.00  0.00    +0.000 A 
ATOM      6  C   UNL     1       1.906   5.283  20.406  0.00  0.00    +0.000 A 
ATOM      7  N   UNL     1       2.726   4.287  20.073  0.00  0.00    +0.000 NA
ATOM      8  N   UNL     1       3.776   4.907  19.506  0.00  0.00    +0.000 N 
ATOM      9  C   UNL     1       3.608   6.266  19.408  0.00  0.00    +0.000 A 
BRANCH   8  10
ATOM     10  C   UNL     1       4.981   4.132  19.225  0.00  0.00    +0.000 C 
BRANCH  10  11
ATOM     11  C   UNL     1       5.493   4.374  17.827  0.00  0.00    +0.000 A 
ATOM     12  C   UNL     1       6.724   5.020  17.606  0.00  0.00    +0.000 A 
ATOM     13 CL   UNL     1       7.784   5.452  18.904  0.00  0.00    +0.000 Cl
ATOM     14  C   UNL     1       7.162   5.325  16.312  0.00  0.00    +0.000 A 
ATOM     15  C   UNL     1       6.385   4.986  15.210  0.00  0.00    +0.000 A 
ATOM     16  C   UNL     1       5.182   4.315  15.401  0.00  0.00    +0.000 A 
ATOM     17  C   UNL     1       4.741   4.007  16.693  0.00  0.00    +0.000 A 
ATOM     18 CL   UNL     1       3.258   3.123  16.805  0.00  0.00    +0.000 Cl
ENDBRANCH  10  11
ENDBRANCH   8  10
ENDBRANCH   3   5
BRANCH   2  19
ATOM     19  C   UNL     1       0.919   9.922  19.625  0.00  0.00    +0.000 A 
ATOM     20  N   UNL     1       1.191  11.112  19.123  0.00  0.00    +0.000 NA
ATOM     21  N   UNL     1       0.422  12.102  19.734  0.00  0.00    +0.000 NA
ATOM     22  C   UNL     1      -0.364  11.611  20.675  0.00  0.00    +0.000 A 
ATOM     23  S   UNL     1      -0.271   9.913  20.854  0.00  0.00    +0.000 S 
BRANCH  22  24
ATOM     24  C   UNL     1      -1.190  12.394  21.548  0.00  0.00    +0.000 A 
ATOM     25  C   UNL     1      -1.163  12.491  22.930  0.00  0.00    +0.000 A 
ATOM     26  C   UNL     1      -2.265  13.297  23.317  0.00  0.00    +0.000 A 
ATOM     27  C   UNL     1      -2.879  13.689  22.152  0.00  0.00    +0.000 A 
ATOM     28  O   UNL     1      -2.230  13.167  21.083  0.00  0.00    +0.000 OA
ENDBRANCH  22  24
ENDBRANCH   2  19
TORSDOF 5
ENDMDL
MODEL 6
REMARK VINA RESULT:      -7.2      3.255      4.267
REMARK  Name = 
REMARK  5 active torsions:
REMARK  status: ('A' for Active; 'I' for Inactive)
REMARK    1  A    between atoms: C_2  and  C_18
REMARK    2  A    between atoms: N_3  and  C_4
REMARK    3  A    between atoms: N_7  and  C_8
REMARK    4  A    between atoms: C_8  and  C_9
REMARK    5  A    between atoms: C_21  and  C_22
REMARK                            x       y       z     vdW  Elec       q    Type
REMARK                         _______ _______ _______ _____ _____    ______ ____
ROOT
ATOM      1  O   UNL     1       2.063  10.747  17.938  0.00  0.00    +0.000 OA
ATOM      2  C   UNL     1       1.071  10.219  18.443  0.00  0.00    +0.000 C 
ATOM      3  N   UNL     1       1.067   8.903  18.884  0.00  0.00    +0.000 N 
ATOM      4  H   UNL     1       0.215   8.519  19.277  0.00  0.00    +0.000 HD
ENDROOT
BRANCH   3   5
ATOM      5  C   UNL     1       2.161   8.065  18.711  0.00  0.00    +0.000 A 
ATOM      6  C   UNL     1       3.079   7.972  17.634  0.00  0.00    +0.000 A 
ATOM      7  N   UNL     1       3.958   6.984  17.797  0.00  0.00    +0.000 NA
ATOM      8  N   UNL     1       3.608   6.429  18.971  0.00  0.00    +0.000 N 
ATOM      9  C   UNL     1       2.573   7.086  19.588  0.00  0.00    +0.000 A 
BRANCH   8  10
ATOM     10  C   UNL     1       4.221   5.161  19.358  0.00  0.00    +0.000 C 
BRANCH  10  11
ATOM     11  C   UNL     1       3.312   3.989  19.079  0.00  0.00    +0.000 A 
ATOM     12  C   UNL     1       2.441   3.495  20.067  0.00  0.00    +0.000 A 
ATOM     13 CL   UNL     1       2.254   4.272  21.603  0.00  0.00    +0.000 Cl
ATOM     14  C   UNL     1       1.660   2.355  19.844  0.00  0.00    +0.000 A 
ATOM     15  C   UNL     1       1.727   1.687  18.626  0.00  0.00    +0.000 A 
ATOM     16  C   UNL     1       2.553   2.177  17.621  0.00  0.00    +0.000 A 
ATOM     17  C   UNL     1       3.335   3.317  17.840  0.00  0.00    +0.000 A 
ATOM     18 CL   UNL     1       4.282   3.866  16.500  0.00  0.00    +0.000 Cl
ENDBRANCH  10  11
ENDBRANCH   8  10
ENDBRANCH   3   5
BRANCH   2  19
ATOM     19  C   UNL     1      -0.178  10.944  18.587  0.00  0.00    +0.000 A 
ATOM     20  N   UNL     1      -0.361  12.037  19.303  0.00  0.00    +0.000 NA
ATOM     21  N   UNL     1      -1.687  12.463  19.238  0.00  0.00    +0.000 NA
ATOM     22  C   UNL     1      -2.433  11.658  18.503  0.00  0.00    +0.000 A 
ATOM     23  S   UNL     1      -1.576  10.360  17.793  0.00  0.00    +0.000 S 
BRANCH  22  24
ATOM     24  C   UNL     1      -3.852  11.774  18.337  0.00  0.00    +0.000 A 
ATOM     25  C   UNL     1      -4.631  11.506  17.223  0.00  0.00    +0.000 A 
ATOM     26  C   UNL     1      -5.959  11.901  17.531  0.00  0.00    +0.000 A 
ATOM     27  C   UNL     1      -5.931  12.346  18.831  0.00  0.00    +0.000 A 
ATOM     28  O   UNL     1      -4.675  12.256  19.330  0.00  0.00    +0.000 OA
ENDBRANCH  22  24
ENDBRANCH   2  19
TORSDOF 5
ENDMDL
MODEL 7
REMARK VINA RESULT:      -7.1      1.797      1.843
REMARK  Name = 
REMARK  5 active torsions:
REMARK  status: ('A' for Active; 'I' for Inactive)
REMARK    1  A    between atoms: C_2  and  C_18
REMARK    2  A    between atoms: N_3  and  C_4
REMARK    3  A    between atoms: N_7  and  C_8
REMARK    4  A    between atoms: C_8  and  C_9
REMARK    5  A    between atoms: C_21  and  C_22
REMARK                            x       y       z     vdW  Elec       q    Type
REMARK                         _______ _______ _______ _____ _____    ______ ____
ROOT
ATOM      1  O   UNL     1       2.133   8.427  17.653  0.00  0.00    +0.000 OA
ATOM      2  C   UNL     1       1.726   8.810  18.751  0.00  0.00    +0.000 C 
ATOM      3  N   UNL     1       1.833   8.038  19.900  0.00  0.00    +0.000 N 
ATOM      4  H   UNL     1       1.466   8.401  20.772  0.00  0.00    +0.000 HD
ENDROOT
BRANCH   3   5
ATOM      5  C   UNL     1       2.335   6.743  19.872  0.00  0.00    +0.000 A 
ATOM      6  C   UNL     1       1.849   5.562  20.487  0.00  0.00    +0.000 A 
ATOM      7  N   UNL     1       2.653   4.517  20.292  0.00  0.00    +0.000 NA
ATOM      8  N   UNL     1       3.665   5.018  19.561  0.00  0.00    +0.000 N 
ATOM      9  C   UNL     1       3.485   6.338  19.230  0.00  0.00    +0.000 A 
BRANCH   8  10
ATOM     10  C   UNL     1       4.855   4.198  19.356  0.00  0.00    +0.000 C 
BRANCH  10  11
ATOM     11  C   UNL     1       5.431   4.379  17.973  0.00  0.00    +0.000 A 
ATOM     12  C   UNL     1       4.733   3.938  16.833  0.00  0.00    +0.000 A 
ATOM     13 CL   UNL     1       3.129   3.292  16.926  0.00  0.00    +0.000 Cl
ATOM     14  C   UNL     1       5.299   4.023  15.556  0.00  0.00    +0.000 A 
ATOM     15  C   UNL     1       6.572   4.557  15.387  0.00  0.00    +0.000 A 
ATOM     16  C   UNL     1       7.267   5.033  16.494  0.00  0.00    +0.000 A 
ATOM     17  C   UNL     1       6.703   4.950  17.773  0.00  0.00    +0.000 A 
ATOM     18 CL   UNL     1       7.635   5.623  19.065  0.00  0.00    +0.000 Cl
ENDBRANCH  10  11
ENDBRANCH   8  10
ENDBRANCH   3   5
BRANCH   2  19
ATOM     19  C   UNL     1       1.080  10.100  18.908  0.00  0.00    +0.000 A 
ATOM     20  N   UNL     1       1.582  11.267  18.552  0.00  0.00    +0.000 NA
ATOM     21  N   UNL     1       0.705  12.306  18.862  0.00  0.00    +0.000 NA
ATOM     22  C   UNL     1      -0.392  11.871  19.456  0.00  0.00    +0.000 A 
ATOM     23  S   UNL     1      -0.468  10.173  19.633  0.00  0.00    +0.000 S 
BRANCH  22  24
ATOM     24  C   UNL     1      -1.427  12.709  19.987  0.00  0.00    +0.000 A 
ATOM     25  C   UNL     1      -1.319  13.887  20.708  0.00  0.00    +0.000 A 
ATOM     26  C   UNL     1      -2.629  14.257  21.109  0.00  0.00    +0.000 A 
ATOM     27  C   UNL     1      -3.472  13.314  20.574  0.00  0.00    +0.000 A 
ATOM     28  O   UNL     1      -2.762  12.390  19.883  0.00  0.00    +0.000 OA
ENDBRANCH  22  24
ENDBRANCH   2  19
TORSDOF 5
ENDMDL
MODEL 8
REMARK VINA RESULT:      -7.1      2.175      3.471
REMARK  Name = 
REMARK  5 active torsions:
REMARK  status: ('A' for Active; 'I' for Inactive)
REMARK    1  A    between atoms: C_2  and  C_18
REMARK    2  A    between atoms: N_3  and  C_4
REMARK    3  A    between atoms: N_7  and  C_8
REMARK    4  A    between atoms: C_8  and  C_9
REMARK    5  A    between atoms: C_21  and  C_22
REMARK                            x       y       z     vdW  Elec       q    Type
REMARK                         _______ _______ _______ _____ _____    ______ ____
ROOT
ATOM      1  O   UNL     1       1.238  11.085  19.436  0.00  0.00    +0.000 OA
ATOM      2  C   UNL     1       0.883  10.268  20.286  0.00  0.00    +0.000 C 
ATOM      3  N   UNL     1       1.239   8.927  20.230  0.00  0.00    +0.000 N 
ATOM      4  H   UNL     1       0.904   8.298  20.950  0.00  0.00    +0.000 HD
ENDROOT
BRANCH   3   5
ATOM      5  C   UNL     1       1.956   8.400  19.162  0.00  0.00    +0.000 A 
ATOM      6  C   UNL     1       2.005   8.809  17.805  0.00  0.00    +0.000 A 
ATOM      7  N   UNL     1       2.755   8.000  17.057  0.00  0.00    +0.000 NA
ATOM      8  N   UNL     1       3.184   7.063  17.920  0.00  0.00    +0.000 N 
ATOM      9  C   UNL     1       2.781   7.298  19.212  0.00  0.00    +0.000 A 
BRANCH   8  10
ATOM     10  C   UNL     1       3.851   5.876  17.393  0.00  0.00    +0.000 C 
BRANCH  10  11
ATOM     11  C   UNL     1       3.670   4.681  18.297  0.00  0.00    +0.000 A 
ATOM     12  C   UNL     1       4.705   4.251  19.148  0.00  0.00    +0.000 A 
ATOM     13 CL   UNL     1       6.185   5.132  19.316  0.00  0.00    +0.000 Cl
ATOM     14  C   UNL     1       4.574   3.093  19.922  0.00  0.00    +0.000 A 
ATOM     15  C   UNL     1       3.406   2.342  19.870  0.00  0.00    +0.000 A 
ATOM     16  C   UNL     1       2.355   2.766  19.064  0.00  0.00    +0.000 A 
ATOM     17  C   UNL     1       2.480   3.924  18.289  0.00  0.00    +0.000 A 
ATOM     18 CL   UNL     1       1.090   4.384  17.368  0.00  0.00    +0.000 Cl
ENDBRANCH  10  11
ENDBRANCH   8  10
ENDBRANCH   3   5
BRANCH   2  19
ATOM     19  C   UNL     1       0.039  10.656  21.401  0.00  0.00    +0.000 A 
ATOM     20  N   UNL     1       0.075  10.143  22.616  0.00  0.00    +0.000 NA
ATOM     21  N   UNL     1      -0.885  10.733  23.438  0.00  0.00    +0.000 NA
ATOM     22  C   UNL     1      -1.605  11.634  22.795  0.00  0.00    +0.000 A 
ATOM     23  S   UNL     1      -1.140  11.874  21.167  0.00  0.00    +0.000 S 
BRANCH  22  24
ATOM     24  C   UNL     1      -2.733  12.330  23.343  0.00  0.00    +0.000 A 
ATOM     25  C   UNL     1      -3.033  13.682  23.308  0.00  0.00    +0.000 A 
ATOM     26  C   UNL     1      -4.192  13.878  24.102  0.00  0.00    +0.000 A 
ATOM     27  C   UNL     1      -4.567  12.631  24.542  0.00  0.00    +0.000 A 
ATOM     28  O   UNL     1      -3.708  11.693  24.077  0.00  0.00    +0.000 OA
ENDBRANCH  22  24
ENDBRANCH   2  19
TORSDOF 5
ENDMDL
MODEL 9
REMARK VINA RESULT:      -7.1      2.566      2.611
REMARK  Name = 
REMARK  5 active torsions:
REMARK  status: ('A' for Active; 'I' for Inactive)
REMARK    1  A    between atoms: C_2  and  C_18
REMARK    2  A    between atoms: N_3  and  C_4
REMARK    3  A    between atoms: N_7  and  C_8
REMARK    4  A    between atoms: C_8  and  C_9
REMARK    5  A    between atoms: C_21  and  C_22
REMARK                            x       y       z     vdW  Elec       q    Type
REMARK                         _______ _______ _______ _____ _____    ______ ____
ROOT
ATOM      1  O   UNL     1       1.579   8.442  17.812  0.00  0.00    +0.000 OA
ATOM      2  C   UNL     1       1.485   8.884  18.958  0.00  0.00    +0.000 C 
ATOM      3  N   UNL     1       1.842   8.144  20.076  0.00  0.00    +0.000 N 
ATOM      4  H   UNL     1       1.728   8.555  20.996  0.00  0.00    +0.000 HD
ENDROOT
BRANCH   3   5
ATOM      5  C   UNL     1       2.254   6.820  19.982  0.00  0.00    +0.000 A 
ATOM      6  C   UNL     1       1.646   5.638  20.474  0.00  0.00    +0.000 A 
ATOM      7  N   UNL     1       2.387   4.553  20.252  0.00  0.00    +0.000 NA
ATOM      8  N   UNL     1       3.479   5.028  19.626  0.00  0.00    +0.000 N 
ATOM      9  C   UNL     1       3.414   6.378  19.385  0.00  0.00    +0.000 A 
BRANCH   8  10
ATOM     10  C   UNL     1       4.620   4.139  19.434  0.00  0.00    +0.000 C 
BRANCH  10  11
ATOM     11  C   UNL     1       5.281   4.352  18.094  0.00  0.00    +0.000 A 
ATOM     12  C   UNL     1       4.664   3.924  16.904  0.00  0.00    +0.000 A 
ATOM     13 CL   UNL     1       3.066   3.257  16.882  0.00  0.00    +0.000 Cl
ATOM     14  C   UNL     1       5.310   4.041  15.668  0.00  0.00    +0.000 A 
ATOM     15  C   UNL     1       6.583   4.593  15.591  0.00  0.00    +0.000 A 
ATOM     16  C   UNL     1       7.199   5.057  16.748  0.00  0.00    +0.000 A 
ATOM     17  C   UNL     1       6.556   4.944  17.987  0.00  0.00    +0.000 A 
ATOM     18 CL   UNL     1       7.394   5.604  19.348  0.00  0.00    +0.000 Cl
ENDBRANCH  10  11
ENDBRANCH   8  10
ENDBRANCH   3   5
BRANCH   2  19
ATOM     19  C   UNL     1       0.967  10.216  19.213  0.00  0.00    +0.000 A 
ATOM     20  N   UNL     1      -0.157  10.502  19.842  0.00  0.00    +0.000 NA
ATOM     21  N   UNL     1      -0.363  11.880  19.897  0.00  0.00    +0.000 NA
ATOM     22  C   UNL     1       0.597  12.552  19.289  0.00  0.00    +0.000 A 
ATOM     23  S   UNL     1       1.845  11.573  18.652  0.00  0.00    +0.000 S 
BRANCH  22  24
ATOM     24  C   UNL     1       0.608  13.972  19.088  0.00  0.00    +0.000 A 
ATOM     25  C   UNL     1       1.635  14.879  19.290  0.00  0.00    +0.000 A 
ATOM     26  C   UNL     1       1.101  16.176  19.067  0.00  0.00    +0.000 A 
ATOM     27  C   UNL     1      -0.208  15.990  18.695  0.00  0.00    +0.000 A 
ATOM     28  O   UNL     1      -0.509  14.670  18.686  0.00  0.00    +0.000 OA
ENDBRANCH  22  24
ENDBRANCH   2  19
TORSDOF 5
ENDMDL
