MODEL 1
REMARK VINA RESULT:      -6.4      0.000      0.000
REMARK  Name = 
REMARK  6 active torsions:
REMARK  status: ('A' for Active; 'I' for Inactive)
REMARK    1  A    between atoms: C_1  and  C_2
REMARK    2  A    between atoms: C_2  and  O_3
REMARK    3  A    between atoms: O_3  and  C_4
REMARK    4  A    between atoms: C_4  and  C_6
REMARK    5  A    between atoms: C_11  and  C_13
REMARK    6  A    between atoms: C_16  and  C_17
REMARK                            x       y       z     vdW  Elec       q    Type
REMARK                         _______ _______ _______ _____ _____    ______ ____
ROOT
ATOM      1  C   UNL     1       2.278   5.311  19.138  0.00  0.00    +0.000 C 
ATOM      2  C   UNL     1       1.606   5.418  20.516  0.00  0.00    +0.000 C 
ATOM      3  C   UNL     1       0.980   6.801  20.723  0.00  0.00    +0.000 C 
ATOM      4  C   UNL     1       2.020   7.889  20.475  0.00  0.00    +0.000 C 
ATOM      5  N   UNL     1       2.527   7.745  19.114  0.00  0.00    +0.000 N 
ATOM      6  C   UNL     1       2.285   8.603  18.041  0.00  0.00    +0.000 C 
ATOM      7  O   UNL     1       2.811   8.432  16.944  0.00  0.00    +0.000 OA
ATOM      8  C   UNL     1       3.228   6.485  18.877  0.00  0.00    +0.000 C 
ENDROOT
BRANCH   6   9
ATOM      9  C   UNL     1       1.411   9.758  18.241  0.00  0.00    +0.000 A 
ATOM     10  C   UNL     1       1.725  11.103  18.320  0.00  0.00    +0.000 A 
ATOM     11  N   UNL     1       0.566  11.810  18.512  0.00  0.00    +0.000 N 
ATOM     12  C   UNL     1      -0.492  10.950  18.702  0.00  0.00    +0.000 A 
ATOM     13  C   UNL     1       0.013   9.679  18.489  0.00  0.00    +0.000 A 
ATOM     14  H   UNL     1       0.485  12.819  18.567  0.00  0.00    +0.000 HD
BRANCH  12  15
ATOM     15  C   UNL     1      -1.826  11.429  19.010  0.00  0.00    +0.000 C 
ATOM     16  O   UNL     1      -2.134  11.713  20.167  0.00  0.00    +0.000 OA
ATOM     17  N   UNL     1      -2.741  11.509  17.973  0.00  0.00    +0.000 N 
ATOM     18  C   UNL     1      -4.085  12.007  18.178  0.00  0.00    +0.000 C 
ATOM     19  C   UNL     1      -4.929  11.159  17.241  0.00  0.00    +0.000 C 
ATOM     20  C   UNL     1      -4.009  10.915  16.053  0.00  0.00    +0.000 C 
ATOM     21  C   UNL     1      -2.607  10.928  16.647  0.00  0.00    +0.000 C 
ENDBRANCH  12  15
ENDBRANCH   6   9
BRANCH   1  22
ATOM     22  C   UNL     1       3.024   4.007  18.977  0.00  0.00    +0.000 C 
ATOM     23  O   UNL     1       3.870   3.780  18.124  0.00  0.00    +0.000 OA
BRANCH  22  24
ATOM     24  O   UNL     1       2.524   3.090  19.852  0.00  0.00    +0.000 OA
BRANCH  24  26
ATOM     25  C   UNL     1       0.574   2.221  18.798  0.00  0.00    +0.000 C 
ATOM     26  C   UNL     1       1.988   1.904  19.254  0.00  0.00    +0.000 C 
ENDBRANCH  24  26
ENDBRANCH  22  24
ENDBRANCH   1  22
TORSDOF 5
ENDMDL
MODEL 2
REMARK VINA RESULT:      -6.4      6.101      8.308
REMARK  Name = 
REMARK  6 active torsions:
REMARK  status: ('A' for Active; 'I' for Inactive)
REMARK    1  A    between atoms: C_1  and  C_2
REMARK    2  A    between atoms: C_2  and  O_3
REMARK    3  A    between atoms: O_3  and  C_4
REMARK    4  A    between atoms: C_4  and  C_6
REMARK    5  A    between atoms: C_11  and  C_13
REMARK    6  A    between atoms: C_16  and  C_17
REMARK                            x       y       z     vdW  Elec       q    Type
REMARK                         _______ _______ _______ _____ _____    ______ ____
ROOT
ATOM      1  C   UNL     1       3.154   2.695  20.162  0.00  0.00    +0.000 C 
ATOM      2  C   UNL     1       2.223   2.204  19.042  0.00  0.00    +0.000 C 
ATOM      3  C   UNL     1       2.587   2.843  17.697  0.00  0.00    +0.000 C 
ATOM      4  C   UNL     1       2.619   4.362  17.830  0.00  0.00    +0.000 C 
ATOM      5  N   UNL     1       3.593   4.718  18.856  0.00  0.00    +0.000 N 
ATOM      6  C   UNL     1       4.828   5.334  18.654  0.00  0.00    +0.000 C 
ATOM      7  O   UNL     1       5.554   5.653  19.591  0.00  0.00    +0.000 OA
ATOM      8  C   UNL     1       3.252   4.224  20.189  0.00  0.00    +0.000 C 
ENDROOT
BRANCH   6   9
ATOM      9  C   UNL     1       5.250   5.641  17.287  0.00  0.00    +0.000 A 
ATOM     10  C   UNL     1       4.855   6.667  16.448  0.00  0.00    +0.000 A 
ATOM     11  N   UNL     1       5.530   6.544  15.261  0.00  0.00    +0.000 N 
ATOM     12  C   UNL     1       6.259   5.376  15.246  0.00  0.00    +0.000 A 
ATOM     13  C   UNL     1       6.129   4.835  16.514  0.00  0.00    +0.000 A 
ATOM     14  H   UNL     1       5.472   7.178  14.473  0.00  0.00    +0.000 HD
BRANCH  12  15
ATOM     15  C   UNL     1       7.006   4.951  14.078  0.00  0.00    +0.000 C 
ATOM     16  O   UNL     1       8.122   5.417  13.850  0.00  0.00    +0.000 OA
ATOM     17  N   UNL     1       6.405   4.048  13.217  0.00  0.00    +0.000 N 
ATOM     18  C   UNL     1       7.087   3.542  12.044  0.00  0.00    +0.000 C 
ATOM     19  C   UNL     1       5.977   3.407  11.014  0.00  0.00    +0.000 C 
ATOM     20  C   UNL     1       4.764   3.014  11.844  0.00  0.00    +0.000 C 
ATOM     21  C   UNL     1       5.003   3.660  13.201  0.00  0.00    +0.000 C 
ENDBRANCH  12  15
ENDBRANCH   6   9
BRANCH   1  22
ATOM     22  C   UNL     1       2.718   2.188  21.516  0.00  0.00    +0.000 C 
ATOM     23  O   UNL     1       1.664   2.472  22.070  0.00  0.00    +0.000 OA
BRANCH  22  24
ATOM     24  O   UNL     1       3.728   1.464  22.074  0.00  0.00    +0.000 OA
BRANCH  24  26
ATOM     25  C   UNL     1       5.862   0.410  21.999  0.00  0.00    +0.000 C 
ATOM     26  C   UNL     1       4.903   1.331  21.265  0.00  0.00    +0.000 C 
ENDBRANCH  24  26
ENDBRANCH  22  24
ENDBRANCH   1  22
TORSDOF 5
ENDMDL
MODEL 3
REMARK VINA RESULT:      -6.3      2.473      8.417
REMARK  Name = 
REMARK  6 active torsions:
REMARK  status: ('A' for Active; 'I' for Inactive)
REMARK    1  A    between atoms: C_1  and  C_2
REMARK    2  A    between atoms: C_2  and  O_3
REMARK    3  A    between atoms: O_3  and  C_4
REMARK    4  A    between atoms: C_4  and  C_6
REMARK    5  A    between atoms: C_11  and  C_13
REMARK    6  A    between atoms: C_16  and  C_17
REMARK                            x       y       z     vdW  Elec       q    Type
REMARK                         _______ _______ _______ _____ _____    ______ ____
ROOT
ATOM      1  C   UNL     1       0.407  12.661  19.863  0.00  0.00    +0.000 C 
ATOM      2  C   UNL     1      -0.270  12.291  21.193  0.00  0.00    +0.000 C 
ATOM      3  C   UNL     1       0.012  10.834  21.574  0.00  0.00    +0.000 C 
ATOM      4  C   UNL     1      -0.374   9.908  20.424  0.00  0.00    +0.000 C 
ATOM      5  N   UNL     1       0.389  10.294  19.242  0.00  0.00    +0.000 N 
ATOM      6  C   UNL     1       1.426   9.574  18.648  0.00  0.00    +0.000 C 
ATOM      7  O   UNL     1       1.966   9.952  17.612  0.00  0.00    +0.000 OA
ATOM      8  C   UNL     1       0.090  11.642  18.763  0.00  0.00    +0.000 C 
ENDROOT
BRANCH   6   9
ATOM      9  C   UNL     1       1.854   8.316  19.259  0.00  0.00    +0.000 A 
ATOM     10  C   UNL     1       1.659   7.844  20.545  0.00  0.00    +0.000 A 
ATOM     11  N   UNL     1       2.242   6.608  20.649  0.00  0.00    +0.000 N 
ATOM     12  C   UNL     1       2.940   6.312  19.500  0.00  0.00    +0.000 A 
ATOM     13  C   UNL     1       2.666   7.342  18.616  0.00  0.00    +0.000 A 
ATOM     14  H   UNL     1       2.223   6.006  21.464  0.00  0.00    +0.000 HD
BRANCH  12  15
ATOM     15  C   UNL     1       3.723   5.099  19.367  0.00  0.00    +0.000 C 
ATOM     16  O   UNL     1       4.953   5.150  19.352  0.00  0.00    +0.000 OA
ATOM     17  N   UNL     1       3.044   3.901  19.216  0.00  0.00    +0.000 N 
ATOM     18  C   UNL     1       3.740   2.636  19.111  0.00  0.00    +0.000 C 
ATOM     19  C   UNL     1       2.895   1.841  18.130  0.00  0.00    +0.000 C 
ATOM     20  C   UNL     1       1.475   2.300  18.428  0.00  0.00    +0.000 C 
ATOM     21  C   UNL     1       1.631   3.734  18.915  0.00  0.00    +0.000 C 
ENDBRANCH  12  15
ENDBRANCH   6   9
BRANCH   1  22
ATOM     22  C   UNL     1       0.020  14.046  19.402  0.00  0.00    +0.000 C 
ATOM     23  O   UNL     1      -1.012  14.627  19.706  0.00  0.00    +0.000 OA
BRANCH  22  24
ATOM     24  O   UNL     1       0.941  14.497  18.505  0.00  0.00    +0.000 OA
BRANCH  24  26
ATOM     25  C   UNL     1       3.027  15.504  17.953  0.00  0.00    +0.000 C 
ATOM     26  C   UNL     1       2.203  14.877  19.065  0.00  0.00    +0.000 C 
ENDBRANCH  24  26
ENDBRANCH  22  24
ENDBRANCH   1  22
TORSDOF 5
ENDMDL
MODEL 4
REMARK VINA RESULT:      -6.3      2.988      8.368
REMARK  Name = 
REMARK  6 active torsions:
REMARK  status: ('A' for Active; 'I' for Inactive)
REMARK    1  A    between atoms: C_1  and  C_2
REMARK    2  A    between atoms: C_2  and  O_3
REMARK    3  A    between atoms: O_3  and  C_4
REMARK    4  A    between atoms: C_4  and  C_6
REMARK    5  A    between atoms: C_11  and  C_13
REMARK    6  A    between atoms: C_16  and  C_17
REMARK                            x       y       z     vdW  Elec       q    Type
REMARK                         _______ _______ _______ _____ _____    ______ ____
ROOT
ATOM      1  C   UNL     1      -0.146  11.409  21.946  0.00  0.00    +0.000 C 
ATOM      2  C   UNL     1      -0.605  10.364  22.975  0.00  0.00    +0.000 C 
ATOM      3  C   UNL     1      -0.077   8.968  22.623  0.00  0.00    +0.000 C 
ATOM      4  C   UNL     1      -0.458   8.610  21.190  0.00  0.00    +0.000 C 
ATOM      5  N   UNL     1       0.100   9.618  20.296  0.00  0.00    +0.000 N 
ATOM      6  C   UNL     1       1.153   9.444  19.397  0.00  0.00    +0.000 C 
ATOM      7  O   UNL     1       1.510  10.339  18.636  0.00  0.00    +0.000 OA
ATOM      8  C   UNL     1      -0.440  10.960  20.510  0.00  0.00    +0.000 C 
ENDROOT
BRANCH   6   9
ATOM      9  C   UNL     1       1.822   8.144  19.336  0.00  0.00    +0.000 A 
ATOM     10  C   UNL     1       2.242   7.316  20.361  0.00  0.00    +0.000 A 
ATOM     11  N   UNL     1       2.817   6.199  19.811  0.00  0.00    +0.000 N 
ATOM     12  C   UNL     1       2.912   6.336  18.444  0.00  0.00    +0.000 A 
ATOM     13  C   UNL     1       2.255   7.516  18.137  0.00  0.00    +0.000 A 
ATOM     14  H   UNL     1       3.179   5.402  20.320  0.00  0.00    +0.000 HD
BRANCH  12  15
ATOM     15  C   UNL     1       3.556   5.336  17.614  0.00  0.00    +0.000 C 
ATOM     16  O   UNL     1       2.995   4.265  17.382  0.00  0.00    +0.000 OA
ATOM     17  N   UNL     1       4.828   5.610  17.138  0.00  0.00    +0.000 N 
ATOM     18  C   UNL     1       5.535   4.687  16.275  0.00  0.00    +0.000 C 
ATOM     19  C   UNL     1       6.984   4.829  16.709  0.00  0.00    +0.000 C 
ATOM     20  C   UNL     1       7.101   6.298  17.089  0.00  0.00    +0.000 C 
ATOM     21  C   UNL     1       5.711   6.678  17.577  0.00  0.00    +0.000 C 
ENDBRANCH  12  15
ENDBRANCH   6   9
BRANCH   1  22
ATOM     22  C   UNL     1      -0.776  12.758  22.196  0.00  0.00    +0.000 C 
ATOM     23  O   UNL     1      -0.260  13.836  21.938  0.00  0.00    +0.000 OA
BRANCH  22  24
ATOM     24  O   UNL     1      -1.954  12.590  22.860  0.00  0.00    +0.000 OA
BRANCH  24  26
ATOM     25  C   UNL     1      -4.305  12.891  23.098  0.00  0.00    +0.000 C 
ATOM     26  C   UNL     1      -3.117  13.060  22.167  0.00  0.00    +0.000 C 
ENDBRANCH  24  26
ENDBRANCH  22  24
ENDBRANCH   1  22
TORSDOF 5
ENDMDL
MODEL 5
REMARK VINA RESULT:      -6.3      0.850      1.437
REMARK  Name = 
REMARK  6 active torsions:
REMARK  status: ('A' for Active; 'I' for Inactive)
REMARK    1  A    between atoms: C_1  and  C_2
REMARK    2  A    between atoms: C_2  and  O_3
REMARK    3  A    between atoms: O_3  and  C_4
REMARK    4  A    between atoms: C_4  and  C_6
REMARK    5  A    between atoms: C_11  and  C_13
REMARK    6  A    between atoms: C_16  and  C_17
REMARK                            x       y       z     vdW  Elec       q    Type
REMARK                         _______ _______ _______ _____ _____    ______ ____
ROOT
ATOM      1  C   UNL     1       2.160   5.269  19.163  0.00  0.00    +0.000 C 
ATOM      2  C   UNL     1       1.537   5.394  20.562  0.00  0.00    +0.000 C 
ATOM      3  C   UNL     1       0.944   6.790  20.784  0.00  0.00    +0.000 C 
ATOM      4  C   UNL     1       1.996   7.857  20.495  0.00  0.00    +0.000 C 
ATOM      5  N   UNL     1       2.453   7.698  19.119  0.00  0.00    +0.000 N 
ATOM      6  C   UNL     1       2.192   8.555  18.050  0.00  0.00    +0.000 C 
ATOM      7  O   UNL     1       2.677   8.370  16.937  0.00  0.00    +0.000 OA
ATOM      8  C   UNL     1       3.122   6.423  18.864  0.00  0.00    +0.000 C 
ENDROOT
BRANCH   6   9
ATOM      9  C   UNL     1       1.347   9.728  18.275  0.00  0.00    +0.000 A 
ATOM     10  C   UNL     1       1.700  11.056  18.435  0.00  0.00    +0.000 A 
ATOM     11  N   UNL     1       0.557  11.791  18.617  0.00  0.00    +0.000 N 
ATOM     12  C   UNL     1      -0.534  10.958  18.720  0.00  0.00    +0.000 A 
ATOM     13  C   UNL     1      -0.061   9.683  18.462  0.00  0.00    +0.000 A 
ATOM     14  H   UNL     1       0.505  12.798  18.720  0.00  0.00    +0.000 HD
BRANCH  12  15
ATOM     15  C   UNL     1      -1.864  11.466  18.999  0.00  0.00    +0.000 C 
ATOM     16  O   UNL     1      -2.185  11.776  20.146  0.00  0.00    +0.000 OA
ATOM     17  N   UNL     1      -2.762  11.544  17.947  0.00  0.00    +0.000 N 
ATOM     18  C   UNL     1      -4.100  12.069  18.122  0.00  0.00    +0.000 C 
ATOM     19  C   UNL     1      -4.944  11.220  17.187  0.00  0.00    +0.000 C 
ATOM     20  C   UNL     1      -4.011  10.938  16.018  0.00  0.00    +0.000 C 
ATOM     21  C   UNL     1      -2.618  10.938  16.632  0.00  0.00    +0.000 C 
ENDBRANCH  12  15
ENDBRANCH   6   9
BRANCH   1  22
ATOM     22  C   UNL     1       2.875   3.950  18.982  0.00  0.00    +0.000 C 
ATOM     23  O   UNL     1       3.260   3.227  19.890  0.00  0.00    +0.000 OA
BRANCH  22  24
ATOM     24  O   UNL     1       3.126   3.750  17.658  0.00  0.00    +0.000 OA
BRANCH  24  26
ATOM     25  C   UNL     1       4.945   4.282  16.216  0.00  0.00    +0.000 C 
ATOM     26  C   UNL     1       4.473   3.379  17.342  0.00  0.00    +0.000 C 
ENDBRANCH  24  26
ENDBRANCH  22  24
ENDBRANCH   1  22
TORSDOF 5
ENDMDL
MODEL 6
REMARK VINA RESULT:      -6.3      5.897      8.390
REMARK  Name = 
REMARK  6 active torsions:
REMARK  status: ('A' for Active; 'I' for Inactive)
REMARK    1  A    between atoms: C_1  and  C_2
REMARK    2  A    between atoms: C_2  and  O_3
REMARK    3  A    between atoms: O_3  and  C_4
REMARK    4  A    between atoms: C_4  and  C_6
REMARK    5  A    between atoms: C_11  and  C_13
REMARK    6  A    between atoms: C_16  and  C_17
REMARK                            x       y       z     vdW  Elec       q    Type
REMARK                         _______ _______ _______ _____ _____    ______ ____
ROOT
ATOM      1  C   UNL     1      -3.665  10.052  15.464  0.00  0.00    +0.000 C 
ATOM      2  C   UNL     1      -2.483   9.542  16.304  0.00  0.00    +0.000 C 
ATOM      3  C   UNL     1      -2.675   9.870  17.789  0.00  0.00    +0.000 C 
ATOM      4  C   UNL     1      -2.938  11.362  17.965  0.00  0.00    +0.000 C 
ATOM      5  N   UNL     1      -4.126  11.718  17.196  0.00  0.00    +0.000 N 
ATOM      6  C   UNL     1      -5.374  12.072  17.708  0.00  0.00    +0.000 C 
ATOM      7  O   UNL     1      -6.299  12.419  16.978  0.00  0.00    +0.000 OA
ATOM      8  C   UNL     1      -3.974  11.524  15.755  0.00  0.00    +0.000 C 
ENDROOT
BRANCH   6   9
ATOM      9  C   UNL     1      -5.572  12.066  19.158  0.00  0.00    +0.000 A 
ATOM     10  C   UNL     1      -6.536  11.428  19.917  0.00  0.00    +0.000 A 
ATOM     11  N   UNL     1      -6.311  11.717  21.238  0.00  0.00    +0.000 N 
ATOM     12  C   UNL     1      -5.302  12.645  21.358  0.00  0.00    +0.000 A 
ATOM     13  C   UNL     1      -4.806  12.831  20.079  0.00  0.00    +0.000 A 
ATOM     14  H   UNL     1      -6.836  11.355  22.026  0.00  0.00    +0.000 HD
BRANCH  12  15
ATOM     15  C   UNL     1      -4.911  13.194  22.643  0.00  0.00    +0.000 C 
ATOM     16  O   UNL     1      -4.520  12.451  23.544  0.00  0.00    +0.000 OA
ATOM     17  N   UNL     1      -5.037  14.560  22.830  0.00  0.00    +0.000 N 
ATOM     18  C   UNL     1      -4.640  15.201  24.067  0.00  0.00    +0.000 C 
ATOM     19  C   UNL     1      -5.666  16.309  24.242  0.00  0.00    +0.000 C 
ATOM     20  C   UNL     1      -5.967  16.747  22.816  0.00  0.00    +0.000 C 
ATOM     21  C   UNL     1      -5.758  15.493  21.979  0.00  0.00    +0.000 C 
ENDBRANCH  12  15
ENDBRANCH   6   9
BRANCH   1  22
ATOM     22  C   UNL     1      -3.424   9.865  13.984  0.00  0.00    +0.000 C 
ATOM     23  O   UNL     1      -2.325   9.792  13.453  0.00  0.00    +0.000 OA
BRANCH  22  24
ATOM     24  O   UNL     1      -4.615   9.909  13.323  0.00  0.00    +0.000 OA
BRANCH  24  26
ATOM     25  C   UNL     1      -5.930   9.558  11.370  0.00  0.00    +0.000 C 
ATOM     26  C   UNL     1      -4.526   9.795  11.898  0.00  0.00    +0.000 C 
ENDBRANCH  24  26
ENDBRANCH  22  24
ENDBRANCH   1  22
TORSDOF 5
ENDMDL
MODEL 7
REMARK VINA RESULT:      -6.3      1.831      2.568
REMARK  Name = 
REMARK  6 active torsions:
REMARK  status: ('A' for Active; 'I' for Inactive)
REMARK    1  A    between atoms: C_1  and  C_2
REMARK    2  A    between atoms: C_2  and  O_3
REMARK    3  A    between atoms: O_3  and  C_4
REMARK    4  A    between atoms: C_4  and  C_6
REMARK    5  A    between atoms: C_11  and  C_13
REMARK    6  A    between atoms: C_16  and  C_17
REMARK                            x       y       z     vdW  Elec       q    Type
REMARK                         _______ _______ _______ _____ _____    ______ ____
ROOT
ATOM      1  C   UNL     1       2.606   4.223  18.213  0.00  0.00    +0.000 C 
ATOM      2  C   UNL     1       1.818   3.560  19.353  0.00  0.00    +0.000 C 
ATOM      3  C   UNL     1       1.081   4.604  20.200  0.00  0.00    +0.000 C 
ATOM      4  C   UNL     1       2.060   5.670  20.684  0.00  0.00    +0.000 C 
ATOM      5  N   UNL     1       2.684   6.290  19.521  0.00  0.00    +0.000 N 
ATOM      6  C   UNL     1       2.472   7.587  19.054  0.00  0.00    +0.000 C 
ATOM      7  O   UNL     1       3.096   8.042  18.099  0.00  0.00    +0.000 OA
ATOM      8  C   UNL     1       3.489   5.367  18.723  0.00  0.00    +0.000 C 
ENDROOT
BRANCH   6   9
ATOM      9  C   UNL     1       1.505   8.439  19.747  0.00  0.00    +0.000 A 
ATOM     10  C   UNL     1       1.058   8.388  21.055  0.00  0.00    +0.000 A 
ATOM     11  N   UNL     1       0.152   9.399  21.245  0.00  0.00    +0.000 N 
ATOM     12  C   UNL     1      -0.115  10.031  20.051  0.00  0.00    +0.000 A 
ATOM     13  C   UNL     1       0.754   9.475  19.128  0.00  0.00    +0.000 A 
ATOM     14  H   UNL     1      -0.311   9.630  22.116  0.00  0.00    +0.000 HD
BRANCH  12  15
ATOM     15  C   UNL     1      -1.102  11.088  19.945  0.00  0.00    +0.000 C 
ATOM     16  O   UNL     1      -1.178  11.958  20.813  0.00  0.00    +0.000 OA
ATOM     17  N   UNL     1      -1.973  11.057  18.869  0.00  0.00    +0.000 N 
ATOM     18  C   UNL     1      -2.969  12.088  18.662  0.00  0.00    +0.000 C 
ATOM     19  C   UNL     1      -4.155  11.331  18.088  0.00  0.00    +0.000 C 
ATOM     20  C   UNL     1      -3.509  10.233  17.254  0.00  0.00    +0.000 C 
ATOM     21  C   UNL     1      -2.191   9.945  17.957  0.00  0.00    +0.000 C 
ENDBRANCH  12  15
ENDBRANCH   6   9
BRANCH   1  22
ATOM     22  C   UNL     1       3.451   3.224  17.459  0.00  0.00    +0.000 C 
ATOM     23  O   UNL     1       3.712   2.091  17.841  0.00  0.00    +0.000 OA
BRANCH  22  24
ATOM     24  O   UNL     1       3.973   3.818  16.350  0.00  0.00    +0.000 OA
BRANCH  24  26
ATOM     25  C   UNL     1       5.845   5.023  15.504  0.00  0.00    +0.000 C 
ATOM     26  C   UNL     1       5.401   3.776  16.249  0.00  0.00    +0.000 C 
ENDBRANCH  24  26
ENDBRANCH  22  24
ENDBRANCH   1  22
TORSDOF 5
ENDMDL
MODEL 8
REMARK VINA RESULT:      -6.2      2.630      8.453
REMARK  Name = 
REMARK  6 active torsions:
REMARK  status: ('A' for Active; 'I' for Inactive)
REMARK    1  A    between atoms: C_1  and  C_2
REMARK    2  A    between atoms: C_2  and  O_3
REMARK    3  A    between atoms: O_3  and  C_4
REMARK    4  A    between atoms: C_4  and  C_6
REMARK    5  A    between atoms: C_11  and  C_13
REMARK    6  A    between atoms: C_16  and  C_17
REMARK                            x       y       z     vdW  Elec       q    Type
REMARK                         _______ _______ _______ _____ _____    ______ ____
ROOT
ATOM      1  C   UNL     1      -0.741  10.754  19.803  0.00  0.00    +0.000 C 
ATOM      2  C   UNL     1      -0.741  10.675  18.268  0.00  0.00    +0.000 C 
ATOM      3  C   UNL     1       0.004   9.430  17.775  0.00  0.00    +0.000 C 
ATOM      4  C   UNL     1       1.404   9.384  18.380  0.00  0.00    +0.000 C 
ATOM      5  N   UNL     1       1.282   9.377  19.833  0.00  0.00    +0.000 N 
ATOM      6  C   UNL     1       1.557   8.308  20.686  0.00  0.00    +0.000 C 
ATOM      7  O   UNL     1       1.485   8.418  21.907  0.00  0.00    +0.000 OA
ATOM      8  C   UNL     1       0.669  10.586  20.380  0.00  0.00    +0.000 C 
ENDROOT
BRANCH   6   9
ATOM      9  C   UNL     1       1.977   7.031  20.108  0.00  0.00    +0.000 A 
ATOM     10  C   UNL     1       1.752   5.741  20.552  0.00  0.00    +0.000 A 
ATOM     11  N   UNL     1       2.342   4.869  19.673  0.00  0.00    +0.000 N 
ATOM     12  C   UNL     1       3.072   5.561  18.733  0.00  0.00    +0.000 A 
ATOM     13  C   UNL     1       2.814   6.901  18.966  0.00  0.00    +0.000 A 
ATOM     14  H   UNL     1       2.306   3.858  19.722  0.00  0.00    +0.000 HD
BRANCH  12  15
ATOM     15  C   UNL     1       3.868   4.883  17.728  0.00  0.00    +0.000 C 
ATOM     16  O   UNL     1       3.367   4.007  17.023  0.00  0.00    +0.000 OA
ATOM     17  N   UNL     1       5.207   5.222  17.624  0.00  0.00    +0.000 N 
ATOM     18  C   UNL     1       6.071   4.623  16.627  0.00  0.00    +0.000 C 
ATOM     19  C   UNL     1       7.408   4.501  17.339  0.00  0.00    +0.000 C 
ATOM     20  C   UNL     1       7.445   5.725  18.244  0.00  0.00    +0.000 C 
ATOM     21  C   UNL     1       5.985   5.999  18.575  0.00  0.00    +0.000 C 
ENDBRANCH  12  15
ENDBRANCH   6   9
BRANCH   1  22
ATOM     22  C   UNL     1      -1.344  12.047  20.299  0.00  0.00    +0.000 C 
ATOM     23  O   UNL     1      -2.222  12.679  19.730  0.00  0.00    +0.000 OA
BRANCH  22  24
ATOM     24  O   UNL     1      -0.677  12.457  21.415  0.00  0.00    +0.000 OA
BRANCH  24  26
ATOM     25  C   UNL     1      -2.107  11.712  23.167  0.00  0.00    +0.000 C 
ATOM     26  C   UNL     1      -1.507  12.928  22.483  0.00  0.00    +0.000 C 
ENDBRANCH  24  26
ENDBRANCH  22  24
ENDBRANCH   1  22
TORSDOF 5
ENDMDL
MODEL 9
REMARK VINA RESULT:      -6.2      2.434      8.526
REMARK  Name = 
REMARK  6 active torsions:
REMARK  status: ('A' for Active; 'I' for Inactive)
REMARK    1  A    between atoms: C_1  and  C_2
REMARK    2  A    between atoms: C_2  and  O_3
REMARK    3  A    between atoms: O_3  and  C_4
REMARK    4  A    between atoms: C_4  and  C_6
REMARK    5  A    between atoms: C_11  and  C_13
REMARK    6  A    between atoms: C_16  and  C_17
REMARK                            x       y       z     vdW  Elec       q    Type
REMARK                         _______ _______ _______ _____ _____    ______ ____
ROOT
ATOM      1  C   UNL     1      -0.855  10.616  19.670  0.00  0.00    +0.000 C 
ATOM      2  C   UNL     1      -0.820  10.549  18.135  0.00  0.00    +0.000 C 
ATOM      3  C   UNL     1      -0.006   9.344  17.650  0.00  0.00    +0.000 C 
ATOM      4  C   UNL     1       1.382   9.361  18.284  0.00  0.00    +0.000 C 
ATOM      5  N   UNL     1       1.231   9.337  19.734  0.00  0.00    +0.000 N 
ATOM      6  C   UNL     1       1.538   8.276  20.586  0.00  0.00    +0.000 C 
ATOM      7  O   UNL     1       1.437   8.374  21.806  0.00  0.00    +0.000 OA
ATOM      8  C   UNL     1       0.550  10.512  20.275  0.00  0.00    +0.000 C 
ENDROOT
BRANCH   6   9
ATOM      9  C   UNL     1       2.032   7.026  20.009  0.00  0.00    +0.000 A 
ATOM     10  C   UNL     1       1.869   5.724  20.446  0.00  0.00    +0.000 A 
ATOM     11  N   UNL     1       2.514   4.887  19.571  0.00  0.00    +0.000 N 
ATOM     12  C   UNL     1       3.218   5.619  18.642  0.00  0.00    +0.000 A 
ATOM     13  C   UNL     1       2.887   6.943  18.876  0.00  0.00    +0.000 A 
ATOM     14  H   UNL     1       2.530   3.875  19.617  0.00  0.00    +0.000 HD
BRANCH  12  15
ATOM     15  C   UNL     1       4.059   4.987  17.644  0.00  0.00    +0.000 C 
ATOM     16  O   UNL     1       3.577   4.196  16.833  0.00  0.00    +0.000 OA
ATOM     17  N   UNL     1       5.415   5.269  17.666  0.00  0.00    +0.000 N 
ATOM     18  C   UNL     1       6.327   4.712  16.688  0.00  0.00    +0.000 C 
ATOM     19  C   UNL     1       7.600   4.470  17.483  0.00  0.00    +0.000 C 
ATOM     20  C   UNL     1       7.618   5.613  18.487  0.00  0.00    +0.000 C 
ATOM     21  C   UNL     1       6.150   5.929  18.734  0.00  0.00    +0.000 C 
ENDBRANCH  12  15
ENDBRANCH   6   9
BRANCH   1  22
ATOM     22  C   UNL     1      -1.529  11.875  20.162  0.00  0.00    +0.000 C 
ATOM     23  O   UNL     1      -1.307  12.421  21.233  0.00  0.00    +0.000 OA
BRANCH  22  24
ATOM     24  O   UNL     1      -2.503  12.240  19.281  0.00  0.00    +0.000 OA
BRANCH  24  26
ATOM     25  C   UNL     1      -4.819  12.056  18.761  0.00  0.00    +0.000 C 
ATOM     26  C   UNL     1      -3.810  12.392  19.845  0.00  0.00    +0.000 C 
ENDBRANCH  24  26
ENDBRANCH  22  24
ENDBRANCH   1  22
TORSDOF 5
ENDMDL
