MODEL 1
REMARK VINA RESULT:      -7.7      0.000      0.000
REMARK  Name = 
REMARK  8 active torsions:
REMARK  status: ('A' for Active; 'I' for Inactive)
REMARK    1  A    between atoms: C_1  and  C_2
REMARK    2  A    between atoms: C_2  and  C_3
REMARK    3  A    between atoms: C_2  and  O_4
REMARK    4  A    between atoms: O_4  and  C_5
REMARK    5  A    between atoms: C_5  and  C_7
REMARK    6  A    between atoms: C_10  and  C_11
REMARK    7  A    between atoms: C_11  and  O_12
REMARK    8  A    between atoms: O_12  and  C_13
REMARK                            x       y       z     vdW  Elec       q    Type
REMARK                         _______ _______ _______ _____ _____    ______ ____
ROOT
ATOM      1  C   UNL     1       4.073   7.062  17.990  0.00  0.00    +0.000 C 
ENDROOT
BRANCH   1   5
ATOM      2  C   UNL     1       4.219   3.523  18.591  0.00  0.00    +0.000 A 
ATOM      3  C   UNL     1       4.445   3.453  17.228  0.00  0.00    +0.000 A 
ATOM      4  C   UNL     1       4.419   4.779  16.736  0.00  0.00    +0.000 A 
ATOM      5  C   UNL     1       4.188   5.591  17.826  0.00  0.00    +0.000 A 
ATOM      6  O   UNL     1       4.071   4.835  18.956  0.00  0.00    +0.000 OA
BRANCH   2   7
ATOM      7  C   UNL     1       4.130   2.470  19.576  0.00  0.00    +0.000 C 
ATOM      8  O   UNL     1       5.057   2.109  20.294  0.00  0.00    +0.000 OA
BRANCH   7   9
ATOM      9  O   UNL     1       2.873   1.939  19.612  0.00  0.00    +0.000 OA
BRANCH   9  11
ATOM     10  C   UNL     1       0.633   2.556  18.915  0.00  0.00    +0.000 C 
ATOM     11  C   UNL     1       1.804   2.874  19.840  0.00  0.00    +0.000 C 
ATOM     12  C   UNL     1       1.376   2.743  21.298  0.00  0.00    +0.000 C 
ENDBRANCH   9  11
ENDBRANCH   7   9
ENDBRANCH   2   7
ENDBRANCH   1   5
BRANCH   1  13
ATOM     13  O   UNL     1       2.776   7.432  17.523  0.00  0.00    +0.000 OA
BRANCH  13  14
ATOM     14  C   UNL     1       2.028   8.217  18.358  0.00  0.00    +0.000 A 
ATOM     15  C   UNL     1       1.265   9.201  17.716  0.00  0.00    +0.000 A 
ATOM     16  C   UNL     1       0.462  10.083  18.451  0.00  0.00    +0.000 A 
ATOM     17  C   UNL     1       0.414   9.984  19.840  0.00  0.00    +0.000 A 
ATOM     18  C   UNL     1      -0.394  10.875  20.657  0.00  0.00    +0.000 A 
ATOM     19  C   UNL     1      -0.414  10.713  21.984  0.00  0.00    +0.000 A 
ATOM     20  C   UNL     1       0.358   9.659  22.665  0.00  0.00    +0.000 A 
ATOM     21  O   UNL     1       0.299   9.526  23.881  0.00  0.00    +0.000 OA
ATOM     22  O   UNL     1       1.148   8.843  21.867  0.00  0.00    +0.000 OA
ATOM     23  C   UNL     1       1.171   8.997  20.466  0.00  0.00    +0.000 A 
ATOM     24  C   UNL     1       1.978   8.115  19.747  0.00  0.00    +0.000 A 
ENDBRANCH  13  14
ENDBRANCH   1  13
TORSDOF 6
ENDMDL
MODEL 2
REMARK VINA RESULT:      -7.7      2.186      3.956
REMARK  Name = 
REMARK  8 active torsions:
REMARK  status: ('A' for Active; 'I' for Inactive)
REMARK    1  A    between atoms: C_1  and  C_2
REMARK    2  A    between atoms: C_2  and  C_3
REMARK    3  A    between atoms: C_2  and  O_4
REMARK    4  A    between atoms: O_4  and  C_5
REMARK    5  A    between atoms: C_5  and  C_7
REMARK    6  A    between atoms: C_10  and  C_11
REMARK    7  A    between atoms: C_11  and  O_12
REMARK    8  A    between atoms: O_12  and  C_13
REMARK                            x       y       z     vdW  Elec       q    Type
REMARK                         _______ _______ _______ _____ _____    ______ ____
ROOT
ATOM      1  C   UNL     1       2.181   5.358  18.770  0.00  0.00    +0.000 C 
ENDROOT
BRANCH   1   5
ATOM      2  C   UNL     1       5.065   5.248  16.631  0.00  0.00    +0.000 A 
ATOM      3  C   UNL     1       4.655   3.948  16.396  0.00  0.00    +0.000 A 
ATOM      4  C   UNL     1       3.492   3.735  17.173  0.00  0.00    +0.000 A 
ATOM      5  C   UNL     1       3.247   4.920  17.834  0.00  0.00    +0.000 A 
ATOM      6  O   UNL     1       4.195   5.845  17.504  0.00  0.00    +0.000 OA
BRANCH   2   7
ATOM      7  C   UNL     1       6.197   5.976  16.107  0.00  0.00    +0.000 C 
ATOM      8  O   UNL     1       6.853   5.634  15.128  0.00  0.00    +0.000 OA
BRANCH   7   9
ATOM      9  O   UNL     1       6.433   7.105  16.838  0.00  0.00    +0.000 OA
BRANCH   9  11
ATOM     10  C   UNL     1       8.020   8.628  17.860  0.00  0.00    +0.000 C 
ATOM     11  C   UNL     1       7.725   7.184  17.468  0.00  0.00    +0.000 C 
ATOM     12  C   UNL     1       7.691   6.297  18.709  0.00  0.00    +0.000 C 
ENDBRANCH   9  11
ENDBRANCH   7   9
ENDBRANCH   2   7
ENDBRANCH   1   5
BRANCH   1  13
ATOM     13  O   UNL     1       2.767   6.324  19.643  0.00  0.00    +0.000 OA
BRANCH  13  14
ATOM     14  C   UNL     1       2.080   7.497  19.805  0.00  0.00    +0.000 A 
ATOM     15  C   UNL     1       1.989   8.288  18.653  0.00  0.00    +0.000 A 
ATOM     16  C   UNL     1       1.324   9.522  18.677  0.00  0.00    +0.000 A 
ATOM     17  C   UNL     1       0.741   9.971  19.860  0.00  0.00    +0.000 A 
ATOM     18  C   UNL     1       0.045  11.245  19.949  0.00  0.00    +0.000 A 
ATOM     19  C   UNL     1      -0.513  11.609  21.109  0.00  0.00    +0.000 A 
ATOM     20  C   UNL     1      -0.451  10.767  22.317  0.00  0.00    +0.000 A 
ATOM     21  O   UNL     1      -0.993  11.123  23.356  0.00  0.00    +0.000 OA
ATOM     22  O   UNL     1       0.248   9.572  22.215  0.00  0.00    +0.000 OA
ATOM     23  C   UNL     1       0.832   9.172  20.996  0.00  0.00    +0.000 A 
ATOM     24  C   UNL     1       1.494   7.945  20.987  0.00  0.00    +0.000 A 
ENDBRANCH  13  14
ENDBRANCH   1  13
TORSDOF 6
ENDMDL
MODEL 3
REMARK VINA RESULT:      -7.6      2.914      4.406
REMARK  Name = 
REMARK  8 active torsions:
REMARK  status: ('A' for Active; 'I' for Inactive)
REMARK    1  A    between atoms: C_1  and  C_2
REMARK    2  A    between atoms: C_2  and  C_3
REMARK    3  A    between atoms: C_2  and  O_4
REMARK    4  A    between atoms: O_4  and  C_5
REMARK    5  A    between atoms: C_5  and  C_7
REMARK    6  A    between atoms: C_10  and  C_11
REMARK    7  A    between atoms: C_11  and  O_12
REMARK    8  A    between atoms: O_12  and  C_13
REMARK                            x       y       z     vdW  Elec       q    Type
REMARK                         _______ _______ _______ _____ _____    ______ ____
ROOT
ATOM      1  C   UNL     1       4.053   7.096  17.465  0.00  0.00    +0.000 C 
ENDROOT
BRANCH   1   5
ATOM      2  C   UNL     1       5.808   4.738  15.400  0.00  0.00    +0.000 A 
ATOM      3  C   UNL     1       5.217   3.801  16.229  0.00  0.00    +0.000 A 
ATOM      4  C   UNL     1       4.451   4.515  17.179  0.00  0.00    +0.000 A 
ATOM      5  C   UNL     1       4.605   5.851  16.875  0.00  0.00    +0.000 A 
ATOM      6  O   UNL     1       5.424   5.993  15.792  0.00  0.00    +0.000 OA
BRANCH   2   7
ATOM      7  C   UNL     1       6.697   4.558  14.276  0.00  0.00    +0.000 C 
ATOM      8  O   UNL     1       7.623   5.312  13.992  0.00  0.00    +0.000 OA
BRANCH   7   9
ATOM      9  O   UNL     1       6.380   3.429  13.577  0.00  0.00    +0.000 OA
BRANCH   9  11
ATOM     10  C   UNL     1       7.292   2.752  11.433  0.00  0.00    +0.000 C 
ATOM     11  C   UNL     1       6.241   3.591  12.154  0.00  0.00    +0.000 C 
ATOM     12  C   UNL     1       4.840   3.127  11.768  0.00  0.00    +0.000 C 
ENDBRANCH   9  11
ENDBRANCH   7   9
ENDBRANCH   2   7
ENDBRANCH   1   5
BRANCH   1  13
ATOM     13  O   UNL     1       3.013   6.706  18.361  0.00  0.00    +0.000 OA
BRANCH  13  14
ATOM     14  C   UNL     1       2.234   7.711  18.866  0.00  0.00    +0.000 A 
ATOM     15  C   UNL     1       1.794   8.646  17.921  0.00  0.00    +0.000 A 
ATOM     16  C   UNL     1       0.999   9.736  18.301  0.00  0.00    +0.000 A 
ATOM     17  C   UNL     1       0.635   9.896  19.636  0.00  0.00    +0.000 A 
ATOM     18  C   UNL     1      -0.181  11.010  20.093  0.00  0.00    +0.000 A 
ATOM     19  C   UNL     1      -0.515  11.093  21.385  0.00  0.00    +0.000 A 
ATOM     20  C   UNL     1      -0.086  10.096  22.381  0.00  0.00    +0.000 A 
ATOM     21  O   UNL     1      -0.429  10.193  23.552  0.00  0.00    +0.000 OA
ATOM     22  O   UNL     1       0.721   9.062  21.926  0.00  0.00    +0.000 OA
ATOM     23  C   UNL     1       1.072   8.956  20.565  0.00  0.00    +0.000 A 
ATOM     24  C   UNL     1       1.867   7.869  20.201  0.00  0.00    +0.000 A 
ENDBRANCH  13  14
ENDBRANCH   1  13
TORSDOF 6
ENDMDL
MODEL 4
REMARK VINA RESULT:      -7.5      0.655      1.023
REMARK  Name = 
REMARK  8 active torsions:
REMARK  status: ('A' for Active; 'I' for Inactive)
REMARK    1  A    between atoms: C_1  and  C_2
REMARK    2  A    between atoms: C_2  and  C_3
REMARK    3  A    between atoms: C_2  and  O_4
REMARK    4  A    between atoms: O_4  and  C_5
REMARK    5  A    between atoms: C_5  and  C_7
REMARK    6  A    between atoms: C_10  and  C_11
REMARK    7  A    between atoms: C_11  and  O_12
REMARK    8  A    between atoms: O_12  and  C_13
REMARK                            x       y       z     vdW  Elec       q    Type
REMARK                         _______ _______ _______ _____ _____    ______ ____
ROOT
ATOM      1  C   UNL     1       3.909   7.302  17.822  0.00  0.00    +0.000 C 
ENDROOT
BRANCH   1   5
ATOM      2  C   UNL     1       3.996   3.713  17.939  0.00  0.00    +0.000 A 
ATOM      3  C   UNL     1       4.754   3.844  16.788  0.00  0.00    +0.000 A 
ATOM      4  C   UNL     1       4.854   5.228  16.516  0.00  0.00    +0.000 A 
ATOM      5  C   UNL     1       4.161   5.871  17.519  0.00  0.00    +0.000 A 
ATOM      6  O   UNL     1       3.642   4.957  18.389  0.00  0.00    +0.000 OA
BRANCH   2   7
ATOM      7  C   UNL     1       3.578   2.526  18.648  0.00  0.00    +0.000 C 
ATOM      8  O   UNL     1       3.629   1.388  18.192  0.00  0.00    +0.000 OA
BRANCH   7   9
ATOM      9  O   UNL     1       3.132   2.836  19.900  0.00  0.00    +0.000 OA
BRANCH   9  11
ATOM     10  C   UNL     1       1.523   2.643  21.705  0.00  0.00    +0.000 C 
ATOM     11  C   UNL     1       1.829   2.331  20.244  0.00  0.00    +0.000 C 
ATOM     12  C   UNL     1       0.812   3.012  19.335  0.00  0.00    +0.000 C 
ENDBRANCH   9  11
ENDBRANCH   7   9
ENDBRANCH   2   7
ENDBRANCH   1   5
BRANCH   1  13
ATOM     13  O   UNL     1       2.538   7.557  17.514  0.00  0.00    +0.000 OA
BRANCH  13  14
ATOM     14  C   UNL     1       1.850   8.341  18.400  0.00  0.00    +0.000 A 
ATOM     15  C   UNL     1       1.119   9.384  17.817  0.00  0.00    +0.000 A 
ATOM     16  C   UNL     1       0.377  10.273  18.607  0.00  0.00    +0.000 A 
ATOM     17  C   UNL     1       0.360  10.121  19.992  0.00  0.00    +0.000 A 
ATOM     18  C   UNL     1      -0.384  11.015  20.865  0.00  0.00    +0.000 A 
ATOM     19  C   UNL     1      -0.378  10.801  22.185  0.00  0.00    +0.000 A 
ATOM     20  C   UNL     1       0.361   9.687  22.803  0.00  0.00    +0.000 A 
ATOM     21  O   UNL     1       0.326   9.508  24.015  0.00  0.00    +0.000 OA
ATOM     22  O   UNL     1       1.091   8.868  21.952  0.00  0.00    +0.000 OA
ATOM     23  C   UNL     1       1.085   9.076  20.558  0.00  0.00    +0.000 A 
ATOM     24  C   UNL     1       1.830   8.187  19.784  0.00  0.00    +0.000 A 
ENDBRANCH  13  14
ENDBRANCH   1  13
TORSDOF 6
ENDMDL
MODEL 5
REMARK VINA RESULT:      -7.5      4.019      7.245
REMARK  Name = 
REMARK  8 active torsions:
REMARK  status: ('A' for Active; 'I' for Inactive)
REMARK    1  A    between atoms: C_1  and  C_2
REMARK    2  A    between atoms: C_2  and  C_3
REMARK    3  A    between atoms: C_2  and  O_4
REMARK    4  A    between atoms: O_4  and  C_5
REMARK    5  A    between atoms: C_5  and  C_7
REMARK    6  A    between atoms: C_10  and  C_11
REMARK    7  A    between atoms: C_11  and  O_12
REMARK    8  A    between atoms: O_12  and  C_13
REMARK                            x       y       z     vdW  Elec       q    Type
REMARK                         _______ _______ _______ _____ _____    ______ ____
ROOT
ATOM      1  C   UNL     1       6.749   5.226  16.009  0.00  0.00    +0.000 C 
ENDROOT
BRANCH   1   5
ATOM      2  C   UNL     1       7.981   7.931  18.027  0.00  0.00    +0.000 A 
ATOM      3  C   UNL     1       8.194   6.936  18.965  0.00  0.00    +0.000 A 
ATOM      4  C   UNL     1       7.754   5.722  18.385  0.00  0.00    +0.000 A 
ATOM      5  C   UNL     1       7.305   6.038  17.121  0.00  0.00    +0.000 A 
ATOM      6  O   UNL     1       7.445   7.377  16.895  0.00  0.00    +0.000 OA
BRANCH   2   7
ATOM      7  C   UNL     1       8.236   9.351  18.102  0.00  0.00    +0.000 C 
ATOM      8  O   UNL     1       7.705  10.193  17.385  0.00  0.00    +0.000 OA
BRANCH   7   9
ATOM      9  O   UNL     1       9.139   9.634  19.087  0.00  0.00    +0.000 OA
BRANCH   9  11
ATOM     10  C   UNL     1       9.456  11.316  20.805  0.00  0.00    +0.000 C 
ATOM     11  C   UNL     1       9.407  11.030  19.308  0.00  0.00    +0.000 C 
ATOM     12  C   UNL     1      10.752  11.352  18.665  0.00  0.00    +0.000 C 
ENDBRANCH   9  11
ENDBRANCH   7   9
ENDBRANCH   2   7
ENDBRANCH   1   5
BRANCH   1  13
ATOM     13  O   UNL     1       6.211   4.039  16.591  0.00  0.00    +0.000 OA
BRANCH  13  14
ATOM     14  C   UNL     1       5.112   4.196  17.392  0.00  0.00    +0.000 A 
ATOM     15  C   UNL     1       4.232   5.209  16.992  0.00  0.00    +0.000 A 
ATOM     16  C   UNL     1       3.072   5.489  17.727  0.00  0.00    +0.000 A 
ATOM     17  C   UNL     1       2.783   4.750  18.872  0.00  0.00    +0.000 A 
ATOM     18  C   UNL     1       1.600   4.998  19.681  0.00  0.00    +0.000 A 
ATOM     19  C   UNL     1       1.369   4.238  20.757  0.00  0.00    +0.000 A 
ATOM     20  C   UNL     1       2.271   3.148  21.166  0.00  0.00    +0.000 A 
ATOM     21  O   UNL     1       2.016   2.458  22.145  0.00  0.00    +0.000 OA
ATOM     22  O   UNL     1       3.411   2.954  20.398  0.00  0.00    +0.000 OA
ATOM     23  C   UNL     1       3.662   3.741  19.256  0.00  0.00    +0.000 A 
ATOM     24  C   UNL     1       4.822   3.455  18.536  0.00  0.00    +0.000 A 
ENDBRANCH  13  14
ENDBRANCH   1  13
TORSDOF 6
ENDMDL
MODEL 6
REMARK VINA RESULT:      -7.4      3.077      8.486
REMARK  Name = 
REMARK  8 active torsions:
REMARK  status: ('A' for Active; 'I' for Inactive)
REMARK    1  A    between atoms: C_1  and  C_2
REMARK    2  A    between atoms: C_2  and  C_3
REMARK    3  A    between atoms: C_2  and  O_4
REMARK    4  A    between atoms: O_4  and  C_5
REMARK    5  A    between atoms: C_5  and  C_7
REMARK    6  A    between atoms: C_10  and  C_11
REMARK    7  A    between atoms: C_11  and  O_12
REMARK    8  A    between atoms: O_12  and  C_13
REMARK                            x       y       z     vdW  Elec       q    Type
REMARK                         _______ _______ _______ _____ _____    ______ ____
ROOT
ATOM      1  C   UNL     1       1.970   8.833  18.165  0.00  0.00    +0.000 C 
ENDROOT
BRANCH   1   5
ATOM      2  C   UNL     1      -0.859  10.748  19.276  0.00  0.00    +0.000 A 
ATOM      3  C   UNL     1      -0.256  10.638  20.516  0.00  0.00    +0.000 A 
ATOM      4  C   UNL     1       0.924   9.879  20.336  0.00  0.00    +0.000 A 
ATOM      5  C   UNL     1       0.986   9.573  18.993  0.00  0.00    +0.000 A 
ATOM      6  O   UNL     1      -0.091  10.103  18.343  0.00  0.00    +0.000 OA
BRANCH   2   7
ATOM      7  C   UNL     1      -2.087  11.404  18.893  0.00  0.00    +0.000 C 
ATOM      8  O   UNL     1      -2.393  12.549  19.210  0.00  0.00    +0.000 OA
BRANCH   7   9
ATOM      9  O   UNL     1      -2.858  10.585  18.118  0.00  0.00    +0.000 OA
BRANCH   9  11
ATOM     10  C   UNL     1      -2.724   9.955  15.780  0.00  0.00    +0.000 C 
ATOM     11  C   UNL     1      -3.107  11.044  16.777  0.00  0.00    +0.000 C 
ATOM     12  C   UNL     1      -4.594  11.364  16.665  0.00  0.00    +0.000 C 
ENDBRANCH   9  11
ENDBRANCH   7   9
ENDBRANCH   2   7
ENDBRANCH   1   5
BRANCH   1  13
ATOM     13  O   UNL     1       2.184   7.572  18.801  0.00  0.00    +0.000 OA
BRANCH  13  14
ATOM     14  C   UNL     1       2.962   6.672  18.125  0.00  0.00    +0.000 A 
ATOM     15  C   UNL     1       2.521   5.345  18.193  0.00  0.00    +0.000 A 
ATOM     16  C   UNL     1       3.229   4.316  17.556  0.00  0.00    +0.000 A 
ATOM     17  C   UNL     1       4.389   4.613  16.843  0.00  0.00    +0.000 A 
ATOM     18  C   UNL     1       5.171   3.588  16.169  0.00  0.00    +0.000 A 
ATOM     19  C   UNL     1       6.262   3.941  15.481  0.00  0.00    +0.000 A 
ATOM     20  C   UNL     1       6.715   5.339  15.376  0.00  0.00    +0.000 A 
ATOM     21  O   UNL     1       7.707   5.629  14.719  0.00  0.00    +0.000 OA
ATOM     22  O   UNL     1       5.971   6.294  16.056  0.00  0.00    +0.000 OA
ATOM     23  C   UNL     1       4.813   5.936  16.777  0.00  0.00    +0.000 A 
ATOM     24  C   UNL     1       4.120   6.969  17.409  0.00  0.00    +0.000 A 
ENDBRANCH  13  14
ENDBRANCH   1  13
TORSDOF 6
ENDMDL
MODEL 7
REMARK VINA RESULT:      -7.4      3.181      4.909
REMARK  Name = 
REMARK  8 active torsions:
REMARK  status: ('A' for Active; 'I' for Inactive)
REMARK    1  A    between atoms: C_1  and  C_2
REMARK    2  A    between atoms: C_2  and  C_3
REMARK    3  A    between atoms: C_2  and  O_4
REMARK    4  A    between atoms: O_4  and  C_5
REMARK    5  A    between atoms: C_5  and  C_7
REMARK    6  A    between atoms: C_10  and  C_11
REMARK    7  A    between atoms: C_11  and  O_12
REMARK    8  A    between atoms: O_12  and  C_13
REMARK                            x       y       z     vdW  Elec       q    Type
REMARK                         _______ _______ _______ _____ _____    ______ ____
ROOT
ATOM      1  C   UNL     1       4.038   4.500  18.425  0.00  0.00    +0.000 C 
ENDROOT
BRANCH   1   5
ATOM      2  C   UNL     1       6.585   4.612  15.894  0.00  0.00    +0.000 A 
ATOM      3  C   UNL     1       7.446   4.670  16.976  0.00  0.00    +0.000 A 
ATOM      4  C   UNL     1       6.645   4.653  18.142  0.00  0.00    +0.000 A 
ATOM      5  C   UNL     1       5.338   4.576  17.712  0.00  0.00    +0.000 A 
ATOM      6  O   UNL     1       5.294   4.545  16.348  0.00  0.00    +0.000 OA
BRANCH   2   7
ATOM      7  C   UNL     1       6.868   4.613  14.478  0.00  0.00    +0.000 C 
ATOM      8  O   UNL     1       7.653   5.378  13.925  0.00  0.00    +0.000 OA
BRANCH   7   9
ATOM      9  O   UNL     1       6.157   3.640  13.836  0.00  0.00    +0.000 OA
BRANCH   9  11
ATOM     10  C   UNL     1       7.041   2.630  11.816  0.00  0.00    +0.000 C 
ATOM     11  C   UNL     1       6.145   3.718  12.399  0.00  0.00    +0.000 C 
ATOM     12  C   UNL     1       4.706   3.521  11.935  0.00  0.00    +0.000 C 
ENDBRANCH   9  11
ENDBRANCH   7   9
ENDBRANCH   2   7
ENDBRANCH   1   5
BRANCH   1  13
ATOM     13  O   UNL     1       3.133   5.361  17.733  0.00  0.00    +0.000 OA
BRANCH  13  14
ATOM     14  C   UNL     1       2.610   6.401  18.453  0.00  0.00    +0.000 A 
ATOM     15  C   UNL     1       2.288   6.094  19.781  0.00  0.00    +0.000 A 
ATOM     16  C   UNL     1       1.733   7.061  20.630  0.00  0.00    +0.000 A 
ATOM     17  C   UNL     1       1.497   8.349  20.152  0.00  0.00    +0.000 A 
ATOM     18  C   UNL     1       0.916   9.392  20.982  0.00  0.00    +0.000 A 
ATOM     19  C   UNL     1       0.736  10.614  20.470  0.00  0.00    +0.000 A 
ATOM     20  C   UNL     1       1.103  10.956  19.085  0.00  0.00    +0.000 A 
ATOM     21  O   UNL     1       0.944  12.092  18.656  0.00  0.00    +0.000 OA
ATOM     22  O   UNL     1       1.624   9.933  18.303  0.00  0.00    +0.000 OA
ATOM     23  C   UNL     1       1.828   8.643  18.833  0.00  0.00    +0.000 A 
ATOM     24  C   UNL     1       2.377   7.689  17.976  0.00  0.00    +0.000 A 
ENDBRANCH  13  14
ENDBRANCH   1  13
TORSDOF 6
ENDMDL
MODEL 8
REMARK VINA RESULT:      -7.3      6.821      8.201
REMARK  Name = 
REMARK  8 active torsions:
REMARK  status: ('A' for Active; 'I' for Inactive)
REMARK    1  A    between atoms: C_1  and  C_2
REMARK    2  A    between atoms: C_2  and  C_3
REMARK    3  A    between atoms: C_2  and  O_4
REMARK    4  A    between atoms: O_4  and  C_5
REMARK    5  A    between atoms: C_5  and  C_7
REMARK    6  A    between atoms: C_10  and  C_11
REMARK    7  A    between atoms: C_11  and  O_12
REMARK    8  A    between atoms: O_12  and  C_13
REMARK                            x       y       z     vdW  Elec       q    Type
REMARK                         _______ _______ _______ _____ _____    ______ ____
ROOT
ATOM      1  C   UNL     1       8.138   9.152  17.839  0.00  0.00    +0.000 C 
ENDROOT
BRANCH   1   5
ATOM      2  C   UNL     1       6.569   6.046  16.947  0.00  0.00    +0.000 A 
ATOM      3  C   UNL     1       7.251   5.559  18.048  0.00  0.00    +0.000 A 
ATOM      4  C   UNL     1       7.988   6.639  18.589  0.00  0.00    +0.000 A 
ATOM      5  C   UNL     1       7.710   7.732  17.796  0.00  0.00    +0.000 A 
ATOM      6  O   UNL     1       6.844   7.380  16.801  0.00  0.00    +0.000 OA
BRANCH   2   7
ATOM      7  C   UNL     1       5.685   5.371  16.026  0.00  0.00    +0.000 C 
ATOM      8  O   UNL     1       4.736   4.668  16.360  0.00  0.00    +0.000 OA
BRANCH   7   9
ATOM      9  O   UNL     1       6.037   5.629  14.732  0.00  0.00    +0.000 OA
BRANCH   9  11
ATOM     10  C   UNL     1       5.987   3.717  13.240  0.00  0.00    +0.000 C 
ATOM     11  C   UNL     1       6.857   4.633  14.095  0.00  0.00    +0.000 C 
ATOM     12  C   UNL     1       7.876   5.359  13.223  0.00  0.00    +0.000 C 
ENDBRANCH   9  11
ENDBRANCH   7   9
ENDBRANCH   2   7
ENDBRANCH   1   5
BRANCH   1  13
ATOM     13  O   UNL     1       9.022   9.286  18.953  0.00  0.00    +0.000 OA
BRANCH  13  14
ATOM     14  C   UNL     1       9.466  10.551  19.230  0.00  0.00    +0.000 A 
ATOM     15  C   UNL     1      10.222  11.145  18.213  0.00  0.00    +0.000 A 
ATOM     16  C   UNL     1      10.751  12.434  18.367  0.00  0.00    +0.000 A 
ATOM     17  C   UNL     1      10.522  13.140  19.546  0.00  0.00    +0.000 A 
ATOM     18  C   UNL     1      11.051  14.476  19.768  0.00  0.00    +0.000 A 
ATOM     19  C   UNL     1      10.776  15.110  20.913  0.00  0.00    +0.000 A 
ATOM     20  C   UNL     1       9.953  14.506  21.976  0.00  0.00    +0.000 A 
ATOM     21  O   UNL     1       9.704  15.124  23.003  0.00  0.00    +0.000 OA
ATOM     22  O   UNL     1       9.489  13.216  21.754  0.00  0.00    +0.000 OA
ATOM     23  C   UNL     1       9.763  12.541  20.547  0.00  0.00    +0.000 A 
ATOM     24  C   UNL     1       9.234  11.258  20.408  0.00  0.00    +0.000 A 
ENDBRANCH  13  14
ENDBRANCH   1  13
TORSDOF 6
ENDMDL
MODEL 9
REMARK VINA RESULT:      -7.3      0.965      1.609
REMARK  Name = 
REMARK  8 active torsions:
REMARK  status: ('A' for Active; 'I' for Inactive)
REMARK    1  A    between atoms: C_1  and  C_2
REMARK    2  A    between atoms: C_2  and  C_3
REMARK    3  A    between atoms: C_2  and  O_4
REMARK    4  A    between atoms: O_4  and  C_5
REMARK    5  A    between atoms: C_5  and  C_7
REMARK    6  A    between atoms: C_10  and  C_11
REMARK    7  A    between atoms: C_11  and  O_12
REMARK    8  A    between atoms: O_12  and  C_13
REMARK                            x       y       z     vdW  Elec       q    Type
REMARK                         _______ _______ _______ _____ _____    ______ ____
ROOT
ATOM      1  C   UNL     1       3.725   7.399  17.879  0.00  0.00    +0.000 C 
ENDROOT
BRANCH   1   5
ATOM      2  C   UNL     1       2.843   3.916  17.888  0.00  0.00    +0.000 A 
ATOM      3  C   UNL     1       3.912   3.798  17.016  0.00  0.00    +0.000 A 
ATOM      4  C   UNL     1       4.442   5.097  16.835  0.00  0.00    +0.000 A 
ATOM      5  C   UNL     1       3.675   5.939  17.612  0.00  0.00    +0.000 A 
ATOM      6  O   UNL     1       2.707   5.228  18.258  0.00  0.00    +0.000 OA
BRANCH   2   7
ATOM      7  C   UNL     1       1.944   2.909  18.400  0.00  0.00    +0.000 C 
ATOM      8  O   UNL     1       0.764   2.802  18.082  0.00  0.00    +0.000 OA
BRANCH   7   9
ATOM      9  O   UNL     1       2.585   2.082  19.277  0.00  0.00    +0.000 OA
BRANCH   9  11
ATOM     10  C   UNL     1       2.337   2.745  21.597  0.00  0.00    +0.000 C 
ATOM     11  C   UNL     1       3.251   2.730  20.376  0.00  0.00    +0.000 C 
ATOM     12  C   UNL     1       4.522   1.942  20.678  0.00  0.00    +0.000 C 
ENDBRANCH   9  11
ENDBRANCH   7   9
ENDBRANCH   2   7
ENDBRANCH   1   5
BRANCH   1  13
ATOM     13  O   UNL     1       2.487   7.946  17.424  0.00  0.00    +0.000 OA
BRANCH  13  14
ATOM     14  C   UNL     1       1.745   8.628  18.351  0.00  0.00    +0.000 A 
ATOM     15  C   UNL     1       0.867   9.580  17.817  0.00  0.00    +0.000 A 
ATOM     16  C   UNL     1       0.055  10.360  18.652  0.00  0.00    +0.000 A 
ATOM     17  C   UNL     1       0.115  10.188  20.033  0.00  0.00    +0.000 A 
ATOM     18  C   UNL     1      -0.696  10.972  20.951  0.00  0.00    +0.000 A 
ATOM     19  C   UNL     1      -0.609  10.743  22.265  0.00  0.00    +0.000 A 
ATOM     20  C   UNL     1       0.286   9.720  22.834  0.00  0.00    +0.000 A 
ATOM     21  O   UNL     1       0.325   9.523  24.042  0.00  0.00    +0.000 OA
ATOM     22  O   UNL     1       1.075   9.009  21.940  0.00  0.00    +0.000 OA
ATOM     23  C   UNL     1       0.986   9.234  20.551  0.00  0.00    +0.000 A 
ATOM     24  C   UNL     1       1.802   8.454  19.732  0.00  0.00    +0.000 A 
ENDBRANCH  13  14
ENDBRANCH   1  13
TORSDOF 6
ENDMDL
