MODEL 1
REMARK VINA RESULT:      -7.0      0.000      0.000
REMARK  Name = 
REMARK  9 active torsions:
REMARK  status: ('A' for Active; 'I' for Inactive)
REMARK    1  A    between atoms: C_1  and  N_2
REMARK    2  A    between atoms: N_7  and  C_8
REMARK    3  A    between atoms: C_8  and  C_9
REMARK    4  A    between atoms: CA_10  and  C_11
REMARK    5  A    between atoms: CA_17  and  N_18
REMARK    6  A    between atoms: C_19  and  C_21
REMARK    7  A    between atoms: C_21  and  S_22
REMARK    8  A    between atoms: S_22  and  C_25
REMARK    9  A    between atoms: C_25  and  C_26
REMARK                            x       y       z     vdW  Elec       q    Type
REMARK                         _______ _______ _______ _____ _____    ______ ____
ROOT
ATOM      1  C   UNL     1       2.021   6.330  20.281  0.00  0.00    +0.000 C 
ATOM      2  CA  UNL     1       2.453   5.041  20.338  0.00  0.00    +0.000 C 
ATOM      3  N   UNL     1       3.647   4.704  19.756  0.00  0.00    +0.000 N 
ATOM      4  C   UNL     1       4.070   3.652  19.010  0.00  0.00    +0.000 C 
ATOM      5  O   UNL     1       3.554   2.624  18.647  0.00  0.00    +0.000 OA
ATOM      6  CA  UNL     1       5.395   4.416  18.692  0.00  0.00    +0.000 C 
ATOM      7  C   UNL     1       4.652   5.645  19.303  0.00  0.00    +0.000 C 
ATOM      8  S   UNL     1       3.826   6.796  18.161  0.00  0.00    +0.000 S 
ATOM      9  C   UNL     1       2.695   7.405  19.444  0.00  0.00    +0.000 C 
ENDROOT
BRANCH   6  10
ATOM     10  N   UNL     1       5.845   4.509  17.268  0.00  0.00    +0.000 N 
ATOM     11  C   UNL     1       7.191   4.499  16.964  0.00  0.00    +0.000 C 
ATOM     12  O   UNL     1       8.056   4.482  17.840  0.00  0.00    +0.000 OA
ATOM     13  H   UNL     1       5.147   4.435  16.532  0.00  0.00    +0.000 HD
BRANCH  11  14
ATOM     14  C   UNL     1       7.542   4.596  15.511  0.00  0.00    +0.000 C 
BRANCH  14  15
ATOM     15  S   UNL     1       6.113   4.244  14.516  0.00  0.00    +0.000 S 
ATOM     16  O   UNL     1       5.539   2.981  14.942  0.00  0.00    +0.000 OA
ATOM     17  O   UNL     1       5.290   5.439  14.471  0.00  0.00    +0.000 OA
BRANCH  15  18
ATOM     18  C   UNL     1       6.754   3.953  12.885  0.00  0.00    +0.000 C 
BRANCH  18  19
ATOM     19  C   UNL     1       5.729   3.256  12.124  0.00  0.00    +0.000 C 
ATOM     20  N   UNL     1       4.898   2.754  11.501  0.00  0.00    +0.000 NA
ENDBRANCH  18  19
ENDBRANCH  15  18
ENDBRANCH  14  15
ENDBRANCH  11  14
ENDBRANCH   6  10
BRANCH   2  21
ATOM     21  C   UNL     1       1.686   3.918  21.133  0.00  0.00    +0.000 C 
ATOM     22  O   UNL     1       0.672   3.431  20.568  0.00  0.00    +0.000 OA
ATOM     23  OXT UNL     1       2.235   3.493  22.200  0.00  0.00    +0.000 OA
ENDBRANCH   2  21
BRANCH   1  24
ATOM     24  C   UNL     1       0.792   6.862  20.989  0.00  0.00    +0.000 C 
BRANCH  24  31
ATOM     25  C   UNL     1       0.621  11.287  20.355  0.00  0.00    +0.000 C 
ATOM     26  N   UNL     1       0.248  10.501  21.499  0.00  0.00    +0.000 N 
ATOM     27  N   UNL     1      -0.119  11.093  22.649  0.00  0.00    +0.000 NA
ATOM     28  N   UNL     1      -0.219  10.109  23.530  0.00  0.00    +0.000 NA
ATOM     29  N   UNL     1       0.104   8.900  22.962  0.00  0.00    +0.000 NA
ATOM     30  C   UNL     1       0.347   9.142  21.687  0.00  0.00    +0.000 A 
ATOM     31  N   UNL     1       0.693   8.283  20.702  0.00  0.00    +0.000 N 
ATOM     32  H   UNL     1       0.500   8.506  19.733  0.00  0.00    +0.000 HD
ENDBRANCH  24  31
ENDBRANCH   1  24
TORSDOF 8
ENDMDL
MODEL 2
REMARK VINA RESULT:      -6.9      1.099      1.198
REMARK  Name = 
REMARK  9 active torsions:
REMARK  status: ('A' for Active; 'I' for Inactive)
REMARK    1  A    between atoms: C_1  and  N_2
REMARK    2  A    between atoms: N_7  and  C_8
REMARK    3  A    between atoms: C_8  and  C_9
REMARK    4  A    between atoms: CA_10  and  C_11
REMARK    5  A    between atoms: CA_17  and  N_18
REMARK    6  A    between atoms: C_19  and  C_21
REMARK    7  A    between atoms: C_21  and  S_22
REMARK    8  A    between atoms: S_22  and  C_25
REMARK    9  A    between atoms: C_25  and  C_26
REMARK                            x       y       z     vdW  Elec       q    Type
REMARK                         _______ _______ _______ _____ _____    ______ ____
ROOT
ATOM      1  C   UNL     1       2.129   6.204  20.205  0.00  0.00    +0.000 C 
ATOM      2  CA  UNL     1       2.529   4.911  20.355  0.00  0.00    +0.000 C 
ATOM      3  N   UNL     1       3.731   4.513  19.832  0.00  0.00    +0.000 N 
ATOM      4  C   UNL     1       4.151   3.408  19.166  0.00  0.00    +0.000 C 
ATOM      5  O   UNL     1       3.623   2.370  18.852  0.00  0.00    +0.000 OA
ATOM      6  CA  UNL     1       5.502   4.122  18.843  0.00  0.00    +0.000 C 
ATOM      7  C   UNL     1       4.771   5.403  19.352  0.00  0.00    +0.000 C 
ATOM      8  S   UNL     1       4.006   6.497  18.117  0.00  0.00    +0.000 S 
ATOM      9  C   UNL     1       2.852   7.209  19.324  0.00  0.00    +0.000 C 
ENDROOT
BRANCH   6  10
ATOM     10  N   UNL     1       5.997   4.116  17.430  0.00  0.00    +0.000 N 
ATOM     11  C   UNL     1       7.187   4.736  17.109  0.00  0.00    +0.000 C 
ATOM     12  O   UNL     1       7.839   5.364  17.943  0.00  0.00    +0.000 OA
ATOM     13  H   UNL     1       5.517   3.530  16.751  0.00  0.00    +0.000 HD
BRANCH  11  14
ATOM     14  C   UNL     1       7.597   4.675  15.670  0.00  0.00    +0.000 C 
BRANCH  14  15
ATOM     15  S   UNL     1       6.165   4.480  14.637  0.00  0.00    +0.000 S 
ATOM     16  O   UNL     1       5.657   3.128  14.784  0.00  0.00    +0.000 OA
ATOM     17  O   UNL     1       5.289   5.615  14.863  0.00  0.00    +0.000 OA
BRANCH  15  18
ATOM     18  C   UNL     1       6.785   4.581  12.975  0.00  0.00    +0.000 C 
BRANCH  18  19
ATOM     19  C   UNL     1       7.988   5.398  13.001  0.00  0.00    +0.000 C 
ATOM     20  N   UNL     1       8.942   6.047  12.963  0.00  0.00    +0.000 NA
ENDBRANCH  18  19
ENDBRANCH  15  18
ENDBRANCH  14  15
ENDBRANCH  11  14
ENDBRANCH   6  10
BRANCH   2  21
ATOM     21  C   UNL     1       1.713   3.858  21.194  0.00  0.00    +0.000 C 
ATOM     22  O   UNL     1       0.690   3.377  20.639  0.00  0.00    +0.000 OA
ATOM     23  OXT UNL     1       2.232   3.468  22.289  0.00  0.00    +0.000 OA
ENDBRANCH   2  21
BRANCH   1  24
ATOM     24  C   UNL     1       0.892   6.805  20.840  0.00  0.00    +0.000 C 
BRANCH  24  31
ATOM     25  C   UNL     1       1.017  11.234  20.222  0.00  0.00    +0.000 C 
ATOM     26  N   UNL     1       0.528  10.469  21.336  0.00  0.00    +0.000 N 
ATOM     27  N   UNL     1       0.124  11.078  22.464  0.00  0.00    +0.000 NA
ATOM     28  N   UNL     1      -0.088  10.100  23.330  0.00  0.00    +0.000 NA
ATOM     29  N   UNL     1       0.200   8.876  22.777  0.00  0.00    +0.000 NA
ATOM     30  C   UNL     1       0.536   9.106  21.522  0.00  0.00    +0.000 A 
ATOM     31  N   UNL     1       0.893   8.230  20.556  0.00  0.00    +0.000 N 
ATOM     32  H   UNL     1       0.775   8.466  19.577  0.00  0.00    +0.000 HD
ENDBRANCH  24  31
ENDBRANCH   1  24
TORSDOF 8
ENDMDL
MODEL 3
REMARK VINA RESULT:      -6.7      5.716     10.922
REMARK  Name = 
REMARK  9 active torsions:
REMARK  status: ('A' for Active; 'I' for Inactive)
REMARK    1  A    between atoms: C_1  and  N_2
REMARK    2  A    between atoms: N_7  and  C_8
REMARK    3  A    between atoms: C_8  and  C_9
REMARK    4  A    between atoms: CA_10  and  C_11
REMARK    5  A    between atoms: CA_17  and  N_18
REMARK    6  A    between atoms: C_19  and  C_21
REMARK    7  A    between atoms: C_21  and  S_22
REMARK    8  A    between atoms: S_22  and  C_25
REMARK    9  A    between atoms: C_25  and  C_26
REMARK                            x       y       z     vdW  Elec       q    Type
REMARK                         _______ _______ _______ _____ _____    ______ ____
ROOT
ATOM      1  C   UNL     1       1.638   8.280  20.180  0.00  0.00    +0.000 C 
ATOM      2  CA  UNL     1       1.266   9.381  19.472  0.00  0.00    +0.000 C 
ATOM      3  N   UNL     1       0.589  10.390  20.104  0.00  0.00    +0.000 N 
ATOM      4  C   UNL     1      -0.465  11.176  19.766  0.00  0.00    +0.000 C 
ATOM      5  O   UNL     1      -1.136  11.291  18.770  0.00  0.00    +0.000 OA
ATOM      6  CA  UNL     1      -0.536  11.705  21.234  0.00  0.00    +0.000 C 
ATOM      7  C   UNL     1       0.453  10.537  21.540  0.00  0.00    +0.000 C 
ATOM      8  S   UNL     1      -0.239   8.977  22.169  0.00  0.00    +0.000 S 
ATOM      9  C   UNL     1       1.188   8.007  21.606  0.00  0.00    +0.000 C 
ENDROOT
BRANCH   6  10
ATOM     10  N   UNL     1      -1.858  11.702  21.935  0.00  0.00    +0.000 N 
ATOM     11  C   UNL     1      -2.044  12.469  23.067  0.00  0.00    +0.000 C 
ATOM     12  O   UNL     1      -1.128  13.116  23.573  0.00  0.00    +0.000 OA
ATOM     13  H   UNL     1      -2.646  11.244  21.483  0.00  0.00    +0.000 HD
BRANCH  11  14
ATOM     14  C   UNL     1      -3.402  12.400  23.697  0.00  0.00    +0.000 C 
BRANCH  14  15
ATOM     15  S   UNL     1      -4.596  13.205  22.656  0.00  0.00    +0.000 S 
ATOM     16  O   UNL     1      -4.049  14.470  22.200  0.00  0.00    +0.000 OA
ATOM     17  O   UNL     1      -5.082  12.233  21.693  0.00  0.00    +0.000 OA
BRANCH  15  18
ATOM     18  C   UNL     1      -5.937  13.625  23.743  0.00  0.00    +0.000 C 
BRANCH  18  19
ATOM     19  C   UNL     1      -6.827  12.478  23.812  0.00  0.00    +0.000 C 
ATOM     20  N   UNL     1      -7.537  11.567  23.808  0.00  0.00    +0.000 NA
ENDBRANCH  18  19
ENDBRANCH  15  18
ENDBRANCH  14  15
ENDBRANCH  11  14
ENDBRANCH   6  10
BRANCH   2  21
ATOM     21  C   UNL     1       1.663   9.599  17.963  0.00  0.00    +0.000 C 
ATOM     22  O   UNL     1       1.107   8.839  17.127  0.00  0.00    +0.000 OA
ATOM     23  OXT UNL     1       2.385  10.614  17.700  0.00  0.00    +0.000 OA
ENDBRANCH   2  21
BRANCH   1  24
ATOM     24  C   UNL     1       2.498   7.156  19.641  0.00  0.00    +0.000 C 
BRANCH  24  31
ATOM     25  C   UNL     1       1.331   3.211  21.399  0.00  0.00    +0.000 C 
ATOM     26  N   UNL     1       1.332   3.650  20.031  0.00  0.00    +0.000 N 
ATOM     27  N   UNL     1       1.061   2.791  19.033  0.00  0.00    +0.000 NA
ATOM     28  N   UNL     1       1.318   3.460  17.920  0.00  0.00    +0.000 NA
ATOM     29  N   UNL     1       1.772   4.726  18.195  0.00  0.00    +0.000 NA
ATOM     30  C   UNL     1       1.733   4.857  19.508  0.00  0.00    +0.000 A 
ATOM     31  N   UNL     1       2.066   5.921  20.273  0.00  0.00    +0.000 N 
ATOM     32  H   UNL     1       1.665   6.036  21.197  0.00  0.00    +0.000 HD
ENDBRANCH  24  31
ENDBRANCH   1  24
TORSDOF 8
ENDMDL
MODEL 4
REMARK VINA RESULT:      -6.7      3.030      9.188
REMARK  Name = 
REMARK  9 active torsions:
REMARK  status: ('A' for Active; 'I' for Inactive)
REMARK    1  A    between atoms: C_1  and  N_2
REMARK    2  A    between atoms: N_7  and  C_8
REMARK    3  A    between atoms: C_8  and  C_9
REMARK    4  A    between atoms: CA_10  and  C_11
REMARK    5  A    between atoms: CA_17  and  N_18
REMARK    6  A    between atoms: C_19  and  C_21
REMARK    7  A    between atoms: C_21  and  S_22
REMARK    8  A    between atoms: S_22  and  C_25
REMARK    9  A    between atoms: C_25  and  C_26
REMARK                            x       y       z     vdW  Elec       q    Type
REMARK                         _______ _______ _______ _____ _____    ______ ____
ROOT
ATOM      1  C   UNL     1       5.293   5.091  17.238  0.00  0.00    +0.000 C 
ATOM      2  CA  UNL     1       4.322   4.626  18.070  0.00  0.00    +0.000 C 
ATOM      3  N   UNL     1       3.263   5.434  18.387  0.00  0.00    +0.000 N 
ATOM      4  C   UNL     1       2.580   5.691  19.531  0.00  0.00    +0.000 C 
ATOM      5  O   UNL     1       2.636   5.253  20.654  0.00  0.00    +0.000 OA
ATOM      6  CA  UNL     1       1.851   6.878  18.825  0.00  0.00    +0.000 C 
ATOM      7  C   UNL     1       2.920   6.669  17.708  0.00  0.00    +0.000 C 
ATOM      8  S   UNL     1       4.403   7.722  17.738  0.00  0.00    +0.000 S 
ATOM      9  C   UNL     1       5.380   6.535  16.774  0.00  0.00    +0.000 C 
ENDROOT
BRANCH   6  10
ATOM     10  N   UNL     1       1.811   8.206  19.513  0.00  0.00    +0.000 N 
ATOM     11  C   UNL     1       1.217   9.289  18.898  0.00  0.00    +0.000 C 
ATOM     12  O   UNL     1       0.767   9.221  17.754  0.00  0.00    +0.000 OA
ATOM     13  H   UNL     1       2.097   8.257  20.488  0.00  0.00    +0.000 HD
BRANCH  11  14
ATOM     14  C   UNL     1       1.226  10.575  19.667  0.00  0.00    +0.000 C 
BRANCH  14  15
ATOM     15  S   UNL     1       0.556  10.317  21.291  0.00  0.00    +0.000 S 
ATOM     16  O   UNL     1      -0.602   9.447  21.192  0.00  0.00    +0.000 OA
ATOM     17  O   UNL     1       1.650   9.973  22.181  0.00  0.00    +0.000 OA
BRANCH  15  18
ATOM     18  C   UNL     1      -0.077  11.904  21.780  0.00  0.00    +0.000 C 
BRANCH  18  19
ATOM     19  C   UNL     1      -1.211  11.675  22.661  0.00  0.00    +0.000 C 
ATOM     20  N   UNL     1      -2.144  11.527  23.324  0.00  0.00    +0.000 NA
ENDBRANCH  18  19
ENDBRANCH  15  18
ENDBRANCH  14  15
ENDBRANCH  11  14
ENDBRANCH   6  10
BRANCH   2  21
ATOM     21  C   UNL     1       4.303   3.149  18.619  0.00  0.00    +0.000 C 
ATOM     22  O   UNL     1       4.950   2.942  19.679  0.00  0.00    +0.000 OA
ATOM     23  OXT UNL     1       3.519   2.330  18.039  0.00  0.00    +0.000 OA
ENDBRANCH   2  21
BRANCH   1  24
ATOM     24  C   UNL     1       6.444   4.262  16.706  0.00  0.00    +0.000 C 
BRANCH  24  31
ATOM     25  C   UNL     1       5.852   3.270  12.384  0.00  0.00    +0.000 C 
ATOM     26  N   UNL     1       6.684   4.268  12.999  0.00  0.00    +0.000 N 
ATOM     27  N   UNL     1       7.539   4.999  12.262  0.00  0.00    +0.000 NA
ATOM     28  N   UNL     1       8.262   5.677  13.141  0.00  0.00    +0.000 NA
ATOM     29  N   UNL     1       7.895   5.369  14.428  0.00  0.00    +0.000 NA
ATOM     30  C   UNL     1       6.881   4.530  14.334  0.00  0.00    +0.000 A 
ATOM     31  N   UNL     1       6.160   3.944  15.317  0.00  0.00    +0.000 N 
ATOM     32  H   UNL     1       5.214   3.625  15.141  0.00  0.00    +0.000 HD
ENDBRANCH  24  31
ENDBRANCH   1  24
TORSDOF 8
ENDMDL
MODEL 5
REMARK VINA RESULT:      -6.6      3.260      8.951
REMARK  Name = 
REMARK  9 active torsions:
REMARK  status: ('A' for Active; 'I' for Inactive)
REMARK    1  A    between atoms: C_1  and  N_2
REMARK    2  A    between atoms: N_7  and  C_8
REMARK    3  A    between atoms: C_8  and  C_9
REMARK    4  A    between atoms: CA_10  and  C_11
REMARK    5  A    between atoms: CA_17  and  N_18
REMARK    6  A    between atoms: C_19  and  C_21
REMARK    7  A    between atoms: C_21  and  S_22
REMARK    8  A    between atoms: S_22  and  C_25
REMARK    9  A    between atoms: C_25  and  C_26
REMARK                            x       y       z     vdW  Elec       q    Type
REMARK                         _______ _______ _______ _____ _____    ______ ____
ROOT
ATOM      1  C   UNL     1       5.279   4.955  17.195  0.00  0.00    +0.000 C 
ATOM      2  CA  UNL     1       4.306   4.549  18.056  0.00  0.00    +0.000 C 
ATOM      3  N   UNL     1       3.278   5.402  18.359  0.00  0.00    +0.000 N 
ATOM      4  C   UNL     1       2.620   5.718  19.504  0.00  0.00    +0.000 C 
ATOM      5  O   UNL     1       2.680   5.318  20.640  0.00  0.00    +0.000 OA
ATOM      6  CA  UNL     1       1.917   6.903  18.767  0.00  0.00    +0.000 C 
ATOM      7  C   UNL     1       2.962   6.622  17.643  0.00  0.00    +0.000 C 
ATOM      8  S   UNL     1       4.478   7.629  17.616  0.00  0.00    +0.000 S 
ATOM      9  C   UNL     1       5.404   6.379  16.680  0.00  0.00    +0.000 C 
ENDROOT
BRANCH   6  10
ATOM     10  N   UNL     1       1.929   8.255  19.409  0.00  0.00    +0.000 N 
ATOM     11  C   UNL     1       1.291   9.317  18.802  0.00  0.00    +0.000 C 
ATOM     12  O   UNL     1       0.758   9.210  17.697  0.00  0.00    +0.000 OA
ATOM     13  H   UNL     1       2.287   8.339  20.357  0.00  0.00    +0.000 HD
BRANCH  11  14
ATOM     14  C   UNL     1       1.357  10.629  19.521  0.00  0.00    +0.000 C 
BRANCH  14  15
ATOM     15  S   UNL     1       0.030  10.746  20.696  0.00  0.00    +0.000 S 
ATOM     16  O   UNL     1      -0.394   9.407  21.065  0.00  0.00    +0.000 OA
ATOM     17  O   UNL     1       0.420  11.694  21.724  0.00  0.00    +0.000 OA
BRANCH  15  18
ATOM     18  C   UNL     1      -1.325  11.444  19.784  0.00  0.00    +0.000 C 
BRANCH  18  19
ATOM     19  C   UNL     1      -0.813  12.576  19.029  0.00  0.00    +0.000 C 
ATOM     20  N   UNL     1      -0.445  13.463  18.388  0.00  0.00    +0.000 NA
ENDBRANCH  18  19
ENDBRANCH  15  18
ENDBRANCH  14  15
ENDBRANCH  11  14
ENDBRANCH   6  10
BRANCH   2  21
ATOM     21  C   UNL     1       4.250   3.094  18.656  0.00  0.00    +0.000 C 
ATOM     22  O   UNL     1       4.906   2.903  19.714  0.00  0.00    +0.000 OA
ATOM     23  OXT UNL     1       3.433   2.281  18.117  0.00  0.00    +0.000 OA
ENDBRANCH   2  21
BRANCH   1  24
ATOM     24  C   UNL     1       6.396   4.073  16.677  0.00  0.00    +0.000 C 
BRANCH  24  31
ATOM     25  C   UNL     1       5.901   3.273  12.302  0.00  0.00    +0.000 C 
ATOM     26  N   UNL     1       6.703   4.255  12.979  0.00  0.00    +0.000 N 
ATOM     27  N   UNL     1       7.557   5.035  12.293  0.00  0.00    +0.000 NA
ATOM     28  N   UNL     1       8.251   5.684  13.216  0.00  0.00    +0.000 NA
ATOM     29  N   UNL     1       7.867   5.310  14.480  0.00  0.00    +0.000 NA
ATOM     30  C   UNL     1       6.871   4.458  14.329  0.00  0.00    +0.000 A 
ATOM     31  N   UNL     1       6.143   3.815  15.269  0.00  0.00    +0.000 N 
ATOM     32  H   UNL     1       5.206   3.488  15.061  0.00  0.00    +0.000 HD
ENDBRANCH  24  31
ENDBRANCH   1  24
TORSDOF 8
ENDMDL
MODEL 6
REMARK VINA RESULT:      -6.5      2.977      9.101
REMARK  Name = 
REMARK  9 active torsions:
REMARK  status: ('A' for Active; 'I' for Inactive)
REMARK    1  A    between atoms: C_1  and  N_2
REMARK    2  A    between atoms: N_7  and  C_8
REMARK    3  A    between atoms: C_8  and  C_9
REMARK    4  A    between atoms: CA_10  and  C_11
REMARK    5  A    between atoms: CA_17  and  N_18
REMARK    6  A    between atoms: C_19  and  C_21
REMARK    7  A    between atoms: C_21  and  S_22
REMARK    8  A    between atoms: S_22  and  C_25
REMARK    9  A    between atoms: C_25  and  C_26
REMARK                            x       y       z     vdW  Elec       q    Type
REMARK                         _______ _______ _______ _____ _____    ______ ____
ROOT
ATOM      1  C   UNL     1       5.317   4.922  17.277  0.00  0.00    +0.000 C 
ATOM      2  CA  UNL     1       4.394   4.452  18.160  0.00  0.00    +0.000 C 
ATOM      3  N   UNL     1       3.341   5.250  18.521  0.00  0.00    +0.000 N 
ATOM      4  C   UNL     1       2.711   5.509  19.696  0.00  0.00    +0.000 C 
ATOM      5  O   UNL     1       2.829   5.084  20.818  0.00  0.00    +0.000 OA
ATOM      6  CA  UNL     1       1.932   6.679  19.015  0.00  0.00    +0.000 C 
ATOM      7  C   UNL     1       2.947   6.473  17.848  0.00  0.00    +0.000 C 
ATOM      8  S   UNL     1       4.415   7.546  17.796  0.00  0.00    +0.000 S 
ATOM      9  C   UNL     1       5.361   6.362  16.795  0.00  0.00    +0.000 C 
ENDROOT
BRANCH   6  10
ATOM     10  N   UNL     1       1.907   8.014  19.691  0.00  0.00    +0.000 N 
ATOM     11  C   UNL     1       1.163   8.197  20.839  0.00  0.00    +0.000 C 
ATOM     12  O   UNL     1       0.450   7.306  21.301  0.00  0.00    +0.000 OA
ATOM     13  H   UNL     1       2.556   8.731  19.374  0.00  0.00    +0.000 HD
BRANCH  11  14
ATOM     14  C   UNL     1       1.203   9.568  21.442  0.00  0.00    +0.000 C 
BRANCH  14  15
ATOM     15  S   UNL     1       0.454  10.740  20.336  0.00  0.00    +0.000 S 
ATOM     16  O   UNL     1       1.476  11.281  19.458  0.00  0.00    +0.000 OA
ATOM     17  O   UNL     1      -0.739  10.132  19.776  0.00  0.00    +0.000 OA
BRANCH  15  18
ATOM     18  C   UNL     1      -0.048  12.090  21.377  0.00  0.00    +0.000 C 
BRANCH  18  19
ATOM     19  C   UNL     1      -0.940  11.556  22.394  0.00  0.00    +0.000 C 
ATOM     20  N   UNL     1      -1.653  11.186  23.222  0.00  0.00    +0.000 NA
ENDBRANCH  18  19
ENDBRANCH  15  18
ENDBRANCH  14  15
ENDBRANCH  11  14
ENDBRANCH   6  10
BRANCH   2  21
ATOM     21  C   UNL     1       4.423   2.982  18.724  0.00  0.00    +0.000 C 
ATOM     22  O   UNL     1       5.064   2.809  19.794  0.00  0.00    +0.000 OA
ATOM     23  OXT UNL     1       3.677   2.129  18.143  0.00  0.00    +0.000 OA
ENDBRANCH   2  21
BRANCH   1  24
ATOM     24  C   UNL     1       6.452   4.103  16.697  0.00  0.00    +0.000 C 
BRANCH  24  31
ATOM     25  C   UNL     1       5.795   3.297  12.346  0.00  0.00    +0.000 C 
ATOM     26  N   UNL     1       6.643   4.262  12.990  0.00  0.00    +0.000 N 
ATOM     27  N   UNL     1       7.493   5.017  12.274  0.00  0.00    +0.000 NA
ATOM     28  N   UNL     1       8.233   5.652  13.169  0.00  0.00    +0.000 NA
ATOM     29  N   UNL     1       7.881   5.294  14.448  0.00  0.00    +0.000 NA
ATOM     30  C   UNL     1       6.860   4.466  14.333  0.00  0.00    +0.000 A 
ATOM     31  N   UNL     1       6.147   3.846  15.300  0.00  0.00    +0.000 N 
ATOM     32  H   UNL     1       5.196   3.542  15.124  0.00  0.00    +0.000 HD
ENDBRANCH  24  31
ENDBRANCH   1  24
TORSDOF 8
ENDMDL
MODEL 7
REMARK VINA RESULT:      -6.5      3.365      9.080
REMARK  Name = 
REMARK  9 active torsions:
REMARK  status: ('A' for Active; 'I' for Inactive)
REMARK    1  A    between atoms: C_1  and  N_2
REMARK    2  A    between atoms: N_7  and  C_8
REMARK    3  A    between atoms: C_8  and  C_9
REMARK    4  A    between atoms: CA_10  and  C_11
REMARK    5  A    between atoms: CA_17  and  N_18
REMARK    6  A    between atoms: C_19  and  C_21
REMARK    7  A    between atoms: C_21  and  S_22
REMARK    8  A    between atoms: S_22  and  C_25
REMARK    9  A    between atoms: C_25  and  C_26
REMARK                            x       y       z     vdW  Elec       q    Type
REMARK                         _______ _______ _______ _____ _____    ______ ____
ROOT
ATOM      1  C   UNL     1       5.279   5.074  17.119  0.00  0.00    +0.000 C 
ATOM      2  CA  UNL     1       4.234   4.714  17.913  0.00  0.00    +0.000 C 
ATOM      3  N   UNL     1       3.242   5.623  18.173  0.00  0.00    +0.000 N 
ATOM      4  C   UNL     1       2.538   5.960  19.283  0.00  0.00    +0.000 C 
ATOM      5  O   UNL     1       2.506   5.537  20.413  0.00  0.00    +0.000 OA
ATOM      6  CA  UNL     1       1.953   7.197  18.531  0.00  0.00    +0.000 C 
ATOM      7  C   UNL     1       3.044   6.872  17.464  0.00  0.00    +0.000 C 
ATOM      8  S   UNL     1       4.615   7.784  17.546  0.00  0.00    +0.000 S 
ATOM      9  C   UNL     1       5.519   6.496  16.640  0.00  0.00    +0.000 C 
ENDROOT
BRANCH   6  10
ATOM     10  N   UNL     1       2.007   8.535  19.200  0.00  0.00    +0.000 N 
ATOM     11  C   UNL     1       1.161   9.547  18.797  0.00  0.00    +0.000 C 
ATOM     12  O   UNL     1       0.392   9.412  17.844  0.00  0.00    +0.000 OA
ATOM     13  H   UNL     1       2.571   8.635  20.041  0.00  0.00    +0.000 HD
BRANCH  11  14
ATOM     14  C   UNL     1       1.290  10.849  19.527  0.00  0.00    +0.000 C 
BRANCH  14  15
ATOM     15  S   UNL     1      -0.108  11.087  20.597  0.00  0.00    +0.000 S 
ATOM     16  O   UNL     1       0.283  11.944  21.702  0.00  0.00    +0.000 OA
ATOM     17  O   UNL     1      -1.251  11.438  19.773  0.00  0.00    +0.000 OA
BRANCH  15  18
ATOM     18  C   UNL     1      -0.411   9.489  21.313  0.00  0.00    +0.000 C 
BRANCH  18  19
ATOM     19  C   UNL     1       0.074   9.520  22.683  0.00  0.00    +0.000 C 
ATOM     20  N   UNL     1       0.416   9.579  23.784  0.00  0.00    +0.000 NA
ENDBRANCH  18  19
ENDBRANCH  15  18
ENDBRANCH  14  15
ENDBRANCH  11  14
ENDBRANCH   6  10
BRANCH   2  21
ATOM     21  C   UNL     1       4.056   3.255  18.479  0.00  0.00    +0.000 C 
ATOM     22  O   UNL     1       3.392   2.459  17.764  0.00  0.00    +0.000 OA
ATOM     23  OXT UNL     1       4.718   2.960  19.526  0.00  0.00    +0.000 OA
ENDBRANCH   2  21
BRANCH   1  24
ATOM     24  C   UNL     1       6.370   4.134  16.648  0.00  0.00    +0.000 C 
BRANCH  24  31
ATOM     25  C   UNL     1       5.970   3.294  12.272  0.00  0.00    +0.000 C 
ATOM     26  N   UNL     1       6.763   4.278  12.956  0.00  0.00    +0.000 N 
ATOM     27  N   UNL     1       7.638   5.044  12.283  0.00  0.00    +0.000 NA
ATOM     28  N   UNL     1       8.316   5.698  13.215  0.00  0.00    +0.000 NA
ATOM     29  N   UNL     1       7.900   5.339  14.474  0.00  0.00    +0.000 NA
ATOM     30  C   UNL     1       6.901   4.493  14.308  0.00  0.00    +0.000 A 
ATOM     31  N   UNL     1       6.147   3.864  15.238  0.00  0.00    +0.000 N 
ATOM     32  H   UNL     1       5.213   3.542  15.011  0.00  0.00    +0.000 HD
ENDBRANCH  24  31
ENDBRANCH   1  24
TORSDOF 8
ENDMDL
MODEL 8
REMARK VINA RESULT:      -6.4      3.327      9.086
REMARK  Name = 
REMARK  9 active torsions:
REMARK  status: ('A' for Active; 'I' for Inactive)
REMARK    1  A    between atoms: C_1  and  N_2
REMARK    2  A    between atoms: N_7  and  C_8
REMARK    3  A    between atoms: C_8  and  C_9
REMARK    4  A    between atoms: CA_10  and  C_11
REMARK    5  A    between atoms: CA_17  and  N_18
REMARK    6  A    between atoms: C_19  and  C_21
REMARK    7  A    between atoms: C_21  and  S_22
REMARK    8  A    between atoms: S_22  and  C_25
REMARK    9  A    between atoms: C_25  and  C_26
REMARK                            x       y       z     vdW  Elec       q    Type
REMARK                         _______ _______ _______ _____ _____    ______ ____
ROOT
ATOM      1  C   UNL     1       5.327   5.036  17.225  0.00  0.00    +0.000 C 
ATOM      2  CA  UNL     1       4.347   4.590  18.058  0.00  0.00    +0.000 C 
ATOM      3  N   UNL     1       3.299   5.416  18.367  0.00  0.00    +0.000 N 
ATOM      4  C   UNL     1       2.617   5.690  19.508  0.00  0.00    +0.000 C 
ATOM      5  O   UNL     1       2.665   5.259  20.633  0.00  0.00    +0.000 OA
ATOM      6  CA  UNL     1       1.905   6.882  18.792  0.00  0.00    +0.000 C 
ATOM      7  C   UNL     1       2.974   6.651  17.678  0.00  0.00    +0.000 C 
ATOM      8  S   UNL     1       4.471   7.683  17.705  0.00  0.00    +0.000 S 
ATOM      9  C   UNL     1       5.435   6.476  16.751  0.00  0.00    +0.000 C 
ENDROOT
BRANCH   6  10
ATOM     10  N   UNL     1       1.883   8.216  19.471  0.00  0.00    +0.000 N 
ATOM     11  C   UNL     1       1.269   9.292  18.864  0.00  0.00    +0.000 C 
ATOM     12  O   UNL     1       0.788   9.215  17.734  0.00  0.00    +0.000 OA
ATOM     13  H   UNL     1       2.196   8.274  20.436  0.00  0.00    +0.000 HD
BRANCH  11  14
ATOM     14  C   UNL     1       1.298  10.584  19.622  0.00  0.00    +0.000 C 
BRANCH  14  15
ATOM     15  S   UNL     1      -0.275  11.400  19.492  0.00  0.00    +0.000 S 
ATOM     16  O   UNL     1      -0.204  12.397  18.439  0.00  0.00    +0.000 OA
ATOM     17  O   UNL     1      -1.309  10.382  19.462  0.00  0.00    +0.000 OA
BRANCH  15  18
ATOM     18  C   UNL     1      -0.440  12.313  21.007  0.00  0.00    +0.000 C 
BRANCH  18  19
ATOM     19  C   UNL     1      -0.350  11.366  22.107  0.00  0.00    +0.000 C 
ATOM     20  N   UNL     1      -0.318  10.646  23.008  0.00  0.00    +0.000 NA
ENDBRANCH  18  19
ENDBRANCH  15  18
ENDBRANCH  14  15
ENDBRANCH  11  14
ENDBRANCH   6  10
BRANCH   2  21
ATOM     21  C   UNL     1       4.306   3.118  18.617  0.00  0.00    +0.000 C 
ATOM     22  O   UNL     1       4.947   2.910  19.680  0.00  0.00    +0.000 OA
ATOM     23  OXT UNL     1       3.514   2.306  18.040  0.00  0.00    +0.000 OA
ENDBRANCH   2  21
BRANCH   1  24
ATOM     24  C   UNL     1       6.467   4.188  16.701  0.00  0.00    +0.000 C 
BRANCH  24  31
ATOM     25  C   UNL     1       5.910   3.254  12.361  0.00  0.00    +0.000 C 
ATOM     26  N   UNL     1       6.710   4.266  12.995  0.00  0.00    +0.000 N 
ATOM     27  N   UNL     1       7.542   5.037  12.273  0.00  0.00    +0.000 NA
ATOM     28  N   UNL     1       8.243   5.721  13.164  0.00  0.00    +0.000 NA
ATOM     29  N   UNL     1       7.885   5.380  14.445  0.00  0.00    +0.000 NA
ATOM     30  C   UNL     1       6.898   4.511  14.335  0.00  0.00    +0.000 A 
ATOM     31  N   UNL     1       6.194   3.886  15.307  0.00  0.00    +0.000 N 
ATOM     32  H   UNL     1       5.258   3.541  15.124  0.00  0.00    +0.000 HD
ENDBRANCH  24  31
ENDBRANCH   1  24
TORSDOF 8
ENDMDL
MODEL 9
REMARK VINA RESULT:      -6.3      5.566     10.979
REMARK  Name = 
REMARK  9 active torsions:
REMARK  status: ('A' for Active; 'I' for Inactive)
REMARK    1  A    between atoms: C_1  and  N_2
REMARK    2  A    between atoms: N_7  and  C_8
REMARK    3  A    between atoms: C_8  and  C_9
REMARK    4  A    between atoms: CA_10  and  C_11
REMARK    5  A    between atoms: CA_17  and  N_18
REMARK    6  A    between atoms: C_19  and  C_21
REMARK    7  A    between atoms: C_21  and  S_22
REMARK    8  A    between atoms: S_22  and  C_25
REMARK    9  A    between atoms: C_25  and  C_26
REMARK                            x       y       z     vdW  Elec       q    Type
REMARK                         _______ _______ _______ _____ _____    ______ ____
ROOT
ATOM      1  C   UNL     1       1.650   8.228  20.082  0.00  0.00    +0.000 C 
ATOM      2  CA  UNL     1       1.411   9.435  19.500  0.00  0.00    +0.000 C 
ATOM      3  N   UNL     1       0.763  10.409  20.213  0.00  0.00    +0.000 N 
ATOM      4  C   UNL     1      -0.205  11.312  19.913  0.00  0.00    +0.000 C 
ATOM      5  O   UNL     1      -0.789  11.605  18.899  0.00  0.00    +0.000 OA
ATOM      6  CA  UNL     1      -0.346  11.658  21.429  0.00  0.00    +0.000 C 
ATOM      7  C   UNL     1       0.531  10.385  21.644  0.00  0.00    +0.000 C 
ATOM      8  S   UNL     1      -0.316   8.819  22.019  0.00  0.00    +0.000 S 
ATOM      9  C   UNL     1       1.076   7.816  21.427  0.00  0.00    +0.000 C 
ENDROOT
BRANCH   6  10
ATOM     10  N   UNL     1      -1.714  11.674  22.036  0.00  0.00    +0.000 N 
ATOM     11  C   UNL     1      -1.997  12.525  23.085  0.00  0.00    +0.000 C 
ATOM     12  O   UNL     1      -1.134  13.238  23.596  0.00  0.00    +0.000 OA
ATOM     13  H   UNL     1      -2.457  11.158  21.572  0.00  0.00    +0.000 HD
BRANCH  11  14
ATOM     14  C   UNL     1      -3.394  12.468  23.625  0.00  0.00    +0.000 C 
BRANCH  14  15
ATOM     15  S   UNL     1      -4.527  13.173  22.452  0.00  0.00    +0.000 S 
ATOM     16  O   UNL     1      -3.773  13.855  21.417  0.00  0.00    +0.000 OA
ATOM     17  O   UNL     1      -5.497  12.153  22.094  0.00  0.00    +0.000 OA
BRANCH  15  18
ATOM     18  C   UNL     1      -5.374  14.451  23.350  0.00  0.00    +0.000 C 
BRANCH  18  19
ATOM     19  C   UNL     1      -4.385  15.166  24.140  0.00  0.00    +0.000 C 
ATOM     20  N   UNL     1      -3.595  15.687  24.802  0.00  0.00    +0.000 NA
ENDBRANCH  18  19
ENDBRANCH  15  18
ENDBRANCH  14  15
ENDBRANCH  11  14
ENDBRANCH   6  10
BRANCH   2  21
ATOM     21  C   UNL     1       1.934   9.807  18.062  0.00  0.00    +0.000 C 
ATOM     22  O   UNL     1       2.428  10.958  17.931  0.00  0.00    +0.000 OA
ATOM     23  OXT UNL     1       1.956   8.872  17.198  0.00  0.00    +0.000 OA
ENDBRANCH   2  21
BRANCH   1  24
ATOM     24  C   UNL     1       2.466   7.114  19.457  0.00  0.00    +0.000 C 
BRANCH  24  31
ATOM     25  C   UNL     1       1.422   3.133  21.211  0.00  0.00    +0.000 C 
ATOM     26  N   UNL     1       1.421   3.570  19.842  0.00  0.00    +0.000 N 
ATOM     27  N   UNL     1       1.191   2.700  18.843  0.00  0.00    +0.000 NA
ATOM     28  N   UNL     1       1.435   3.376  17.731  0.00  0.00    +0.000 NA
ATOM     29  N   UNL     1       1.841   4.658  18.009  0.00  0.00    +0.000 NA
ATOM     30  C   UNL     1       1.784   4.790  19.321  0.00  0.00    +0.000 A 
ATOM     31  N   UNL     1       2.071   5.866  20.087  0.00  0.00    +0.000 N 
ATOM     32  H   UNL     1       1.656   5.968  21.007  0.00  0.00    +0.000 HD
ENDBRANCH  24  31
ENDBRANCH   1  24
TORSDOF 8
ENDMDL
