MODEL 1
REMARK VINA RESULT:      -8.4      0.000      0.000
REMARK  Name = 
REMARK  5 active torsions:
REMARK  status: ('A' for Active; 'I' for Inactive)
REMARK    1  A    between atoms: C_1  and  N_2
REMARK    2  A    between atoms: N_2  and  C_18
REMARK    3  A    between atoms: C_3  and  C_5
REMARK    4  A    between atoms: C_5  and  N_6
REMARK    5  A    between atoms: N_9  and  C_10
REMARK                            x       y       z     vdW  Elec       q    Type
REMARK                         _______ _______ _______ _____ _____    ______ ____
ROOT
ATOM      1  N   UNL     1       8.461   7.567  18.887  0.00  0.00    +0.000 N 
ATOM      2  C   UNL     1       8.512   8.894  18.530  0.00  0.00    +0.000 C 
ATOM      3  O   UNL     1       7.839   9.321  17.596  0.00  0.00    +0.000 OA
ATOM      4  N   UNL     1       9.393   9.635  19.275  0.00  0.00    +0.000 N 
ATOM      5  H   UNL     1       8.759   7.249  19.798  0.00  0.00    +0.000 HD
ATOM      6  H   UNL     1      10.125   9.124  19.747  0.00  0.00    +0.000 HD
ENDROOT
BRANCH   4   7
ATOM      7  C   UNL     1       9.616  11.026  19.075  0.00  0.00    +0.000 A 
ATOM      8  C   UNL     1      10.066  11.526  17.844  0.00  0.00    +0.000 A 
ATOM      9  C   UNL     1      10.401  12.870  17.685  0.00  0.00    +0.000 A 
ATOM     10  C   UNL     1      10.257  13.745  18.756  0.00  0.00    +0.000 A 
ATOM     11 BR   UNL     1      10.770  15.551  18.553  0.00  0.00    +0.000 Br
ATOM     12  C   UNL     1       9.743  13.287  19.969  0.00  0.00    +0.000 A 
ATOM     13  C   UNL     1       9.417  11.935  20.125  0.00  0.00    +0.000 A 
ATOM     14 BR   UNL     1       8.740  11.374  21.810  0.00  0.00    +0.000 Br
ENDBRANCH   4   7
BRANCH   1  15
ATOM     15  C   UNL     1       7.522   6.742  18.137  0.00  0.00    +0.000 C 
BRANCH  15  18
ATOM     16  C   UNL     1       4.986   5.717  17.136  0.00  0.00    +0.000 C 
ATOM     17  N   UNL     1       5.523   5.249  18.416  0.00  0.00    +0.000 N 
ATOM     18  C   UNL     1       6.733   5.727  18.961  0.00  0.00    +0.000 C 
ATOM     19  O   UNL     1       7.171   5.342  20.048  0.00  0.00    +0.000 OA
BRANCH  17  20
ATOM     20  C   UNL     1       4.725   4.324  19.257  0.00  0.00    +0.000 C 
ATOM     21  C   UNL     1       4.307   2.988  18.605  0.00  0.00    +0.000 C 
ATOM     22  C   UNL     1       3.164   3.046  17.599  0.00  0.00    +0.000 C 
ATOM     23  S   UNL     1       1.728   3.889  18.216  0.00  0.00    +0.000 S 
ATOM     24  O   UNL     1       0.942   4.308  17.071  0.00  0.00    +0.000 OA
ATOM     25  O   UNL     1       1.148   3.068  19.259  0.00  0.00    +0.000 OA
ATOM     26  C   UNL     1       2.394   5.352  18.974  0.00  0.00    +0.000 C 
ATOM     27  C   UNL     1       3.529   5.028  19.926  0.00  0.00    +0.000 C 
ENDBRANCH  17  20
ENDBRANCH  15  18
ENDBRANCH   1  15
TORSDOF 4
ENDMDL
MODEL 2
REMARK VINA RESULT:      -7.5      1.248      1.379
REMARK  Name = 
REMARK  5 active torsions:
REMARK  status: ('A' for Active; 'I' for Inactive)
REMARK    1  A    between atoms: C_1  and  N_2
REMARK    2  A    between atoms: N_2  and  C_18
REMARK    3  A    between atoms: C_3  and  C_5
REMARK    4  A    between atoms: C_5  and  N_6
REMARK    5  A    between atoms: N_9  and  C_10
REMARK                            x       y       z     vdW  Elec       q    Type
REMARK                         _______ _______ _______ _____ _____    ______ ____
ROOT
ATOM      1  N   UNL     1       8.210   8.084  18.456  0.00  0.00    +0.000 N 
ATOM      2  C   UNL     1       8.556   9.410  18.354  0.00  0.00    +0.000 C 
ATOM      3  O   UNL     1       8.077  10.120  17.473  0.00  0.00    +0.000 OA
ATOM      4  N   UNL     1       9.485   9.815  19.277  0.00  0.00    +0.000 N 
ATOM      5  H   UNL     1       8.347   7.562  19.310  0.00  0.00    +0.000 HD
ATOM      6  H   UNL     1      10.051   9.090  19.693  0.00  0.00    +0.000 HD
ENDROOT
BRANCH   4   7
ATOM      7  C   UNL     1       9.994  11.141  19.352  0.00  0.00    +0.000 A 
ATOM      8  C   UNL     1      10.774  11.685  18.321  0.00  0.00    +0.000 A 
ATOM      9  C   UNL     1      11.374  12.937  18.447  0.00  0.00    +0.000 A 
ATOM     10  C   UNL     1      11.172  13.682  19.604  0.00  0.00    +0.000 A 
ATOM     11 BR   UNL     1      12.037  15.349  19.795  0.00  0.00    +0.000 Br
ATOM     12  C   UNL     1      10.343  13.195  20.613  0.00  0.00    +0.000 A 
ATOM     13  C   UNL     1       9.751  11.933  20.484  0.00  0.00    +0.000 A 
ATOM     14 BR   UNL     1       8.647  11.321  21.905  0.00  0.00    +0.000 Br
ENDBRANCH   4   7
BRANCH   1  15
ATOM     15  C   UNL     1       7.209   7.612  17.508  0.00  0.00    +0.000 C 
BRANCH  15  18
ATOM     16  C   UNL     1       4.441   6.706  17.558  0.00  0.00    +0.000 C 
ATOM     17  N   UNL     1       5.539   5.737  17.567  0.00  0.00    +0.000 N 
ATOM     18  C   UNL     1       6.898   6.118  17.567  0.00  0.00    +0.000 C 
ATOM     19  O   UNL     1       7.818   5.298  17.592  0.00  0.00    +0.000 OA
BRANCH  17  20
ATOM     20  C   UNL     1       5.246   4.291  17.704  0.00  0.00    +0.000 C 
ATOM     21  C   UNL     1       4.086   3.738  16.845  0.00  0.00    +0.000 C 
ATOM     22  C   UNL     1       2.674   4.061  17.315  0.00  0.00    +0.000 C 
ATOM     23  S   UNL     1       2.395   3.668  19.024  0.00  0.00    +0.000 S 
ATOM     24  O   UNL     1       1.252   4.441  19.469  0.00  0.00    +0.000 OA
ATOM     25  O   UNL     1       2.417   2.225  19.155  0.00  0.00    +0.000 OA
ATOM     26  C   UNL     1       3.834   4.315  19.843  0.00  0.00    +0.000 C 
ATOM     27  C   UNL     1       5.117   3.857  19.177  0.00  0.00    +0.000 C 
ENDBRANCH  17  20
ENDBRANCH  15  18
ENDBRANCH   1  15
TORSDOF 4
ENDMDL
MODEL 3
REMARK VINA RESULT:      -7.4      1.378      1.559
REMARK  Name = 
REMARK  5 active torsions:
REMARK  status: ('A' for Active; 'I' for Inactive)
REMARK    1  A    between atoms: C_1  and  N_2
REMARK    2  A    between atoms: N_2  and  C_18
REMARK    3  A    between atoms: C_3  and  C_5
REMARK    4  A    between atoms: C_5  and  N_6
REMARK    5  A    between atoms: N_9  and  C_10
REMARK                            x       y       z     vdW  Elec       q    Type
REMARK                         _______ _______ _______ _____ _____    ______ ____
ROOT
ATOM      1  N   UNL     1       8.866   8.555  19.034  0.00  0.00    +0.000 N 
ATOM      2  C   UNL     1       9.049   9.914  18.932  0.00  0.00    +0.000 C 
ATOM      3  O   UNL     1       8.515  10.555  18.031  0.00  0.00    +0.000 OA
ATOM      4  N   UNL     1       9.891  10.434  19.881  0.00  0.00    +0.000 N 
ATOM      5  H   UNL     1       9.038   8.058  19.896  0.00  0.00    +0.000 HD
ATOM      6  H   UNL     1      10.528   9.786  20.321  0.00  0.00    +0.000 HD
ENDROOT
BRANCH   4   7
ATOM      7  C   UNL     1      10.230  11.812  19.961  0.00  0.00    +0.000 A 
ATOM      8  C   UNL     1      11.108  12.406  19.041  0.00  0.00    +0.000 A 
ATOM      9  C   UNL     1      11.536  13.724  19.192  0.00  0.00    +0.000 A 
ATOM     10  C   UNL     1      11.061  14.483  20.255  0.00  0.00    +0.000 A 
ATOM     11 BR   UNL     1      11.690  16.248  20.489  0.00  0.00    +0.000 Br
ATOM     12  C   UNL     1      10.131  13.940  21.142  0.00  0.00    +0.000 A 
ATOM     13  C   UNL     1       9.713  12.613  20.991  0.00  0.00    +0.000 A 
ATOM     14 BR   UNL     1       8.460  11.930  22.246  0.00  0.00    +0.000 Br
ENDBRANCH   4   7
BRANCH   1  15
ATOM     15  C   UNL     1       7.961   7.960  18.059  0.00  0.00    +0.000 C 
BRANCH  15  18
ATOM     16  C   UNL     1       5.649   6.810  16.713  0.00  0.00    +0.000 C 
ATOM     17  N   UNL     1       6.456   5.997  17.626  0.00  0.00    +0.000 N 
ATOM     18  C   UNL     1       7.573   6.507  18.322  0.00  0.00    +0.000 C 
ATOM     19  O   UNL     1       8.239   5.823  19.102  0.00  0.00    +0.000 OA
BRANCH  17  20
ATOM     20  C   UNL     1       6.039   4.611  17.945  0.00  0.00    +0.000 C 
ATOM     21  C   UNL     1       5.315   3.833  16.824  0.00  0.00    +0.000 C 
ATOM     22  C   UNL     1       3.861   4.202  16.565  0.00  0.00    +0.000 C 
ATOM     23  S   UNL     1       2.863   4.204  18.035  0.00  0.00    +0.000 S 
ATOM     24  O   UNL     1       1.692   5.016  17.766  0.00  0.00    +0.000 OA
ATOM     25  O   UNL     1       2.734   2.832  18.482  0.00  0.00    +0.000 OA
ATOM     26  C   UNL     1       3.863   5.076  19.218  0.00  0.00    +0.000 C 
ATOM     27  C   UNL     1       5.274   4.525  19.281  0.00  0.00    +0.000 C 
ENDBRANCH  17  20
ENDBRANCH  15  18
ENDBRANCH   1  15
TORSDOF 4
ENDMDL
MODEL 4
REMARK VINA RESULT:      -7.3      5.851      8.279
REMARK  Name = 
REMARK  5 active torsions:
REMARK  status: ('A' for Active; 'I' for Inactive)
REMARK    1  A    between atoms: C_1  and  N_2
REMARK    2  A    between atoms: N_2  and  C_18
REMARK    3  A    between atoms: C_3  and  C_5
REMARK    4  A    between atoms: C_5  and  N_6
REMARK    5  A    between atoms: N_9  and  C_10
REMARK                            x       y       z     vdW  Elec       q    Type
REMARK                         _______ _______ _______ _____ _____    ______ ____
ROOT
ATOM      1  N   UNL     1       2.014   8.068  21.186  0.00  0.00    +0.000 N 
ATOM      2  C   UNL     1       0.839   8.781  21.203  0.00  0.00    +0.000 C 
ATOM      3  O   UNL     1      -0.151   8.378  20.598  0.00  0.00    +0.000 OA
ATOM      4  N   UNL     1       0.914   9.958  21.902  0.00  0.00    +0.000 N 
ATOM      5  H   UNL     1       2.731   8.206  21.883  0.00  0.00    +0.000 HD
ATOM      6  H   UNL     1       1.837  10.342  22.039  0.00  0.00    +0.000 HD
ENDROOT
BRANCH   4   7
ATOM      7  C   UNL     1      -0.177  10.859  22.045  0.00  0.00    +0.000 A 
ATOM      8  C   UNL     1      -1.057  10.779  23.135  0.00  0.00    +0.000 A 
ATOM      9  C   UNL     1      -2.195  11.580  23.211  0.00  0.00    +0.000 A 
ATOM     10  C   UNL     1      -2.452  12.505  22.205  0.00  0.00    +0.000 A 
ATOM     11 BR   UNL     1      -4.026  13.545  22.282  0.00  0.00    +0.000 Br
ATOM     12  C   UNL     1      -1.556  12.655  21.147  0.00  0.00    +0.000 A 
ATOM     13  C   UNL     1      -0.420  11.841  21.072  0.00  0.00    +0.000 A 
ATOM     14 BR   UNL     1       0.750  12.084  19.594  0.00  0.00    +0.000 Br
ENDBRANCH   4   7
BRANCH   1  15
ATOM     15  C   UNL     1       1.978   6.798  20.472  0.00  0.00    +0.000 C 
BRANCH  15  18
ATOM     16  C   UNL     1       3.879   4.764  19.617  0.00  0.00    +0.000 C 
ATOM     17  N   UNL     1       3.435   5.803  18.685  0.00  0.00    +0.000 N 
ATOM     18  C   UNL     1       2.534   6.825  19.050  0.00  0.00    +0.000 C 
ATOM     19  O   UNL     1       2.176   7.708  18.266  0.00  0.00    +0.000 OA
BRANCH  17  20
ATOM     20  C   UNL     1       4.030   5.882  17.329  0.00  0.00    +0.000 C 
ATOM     21  C   UNL     1       4.395   4.540  16.658  0.00  0.00    +0.000 C 
ATOM     22  C   UNL     1       5.654   3.844  17.160  0.00  0.00    +0.000 C 
ATOM     23  S   UNL     1       7.077   4.906  17.195  0.00  0.00    +0.000 S 
ATOM     24  O   UNL     1       8.035   4.323  18.114  0.00  0.00    +0.000 OA
ATOM     25  O   UNL     1       7.442   5.201  15.824  0.00  0.00    +0.000 OA
ATOM     26  C   UNL     1       6.466   6.403  17.934  0.00  0.00    +0.000 C 
ATOM     27  C   UNL     1       5.196   6.887  17.261  0.00  0.00    +0.000 C 
ENDBRANCH  17  20
ENDBRANCH  15  18
ENDBRANCH   1  15
TORSDOF 4
ENDMDL
MODEL 5
REMARK VINA RESULT:      -7.1      7.540      9.696
REMARK  Name = 
REMARK  5 active torsions:
REMARK  status: ('A' for Active; 'I' for Inactive)
REMARK    1  A    between atoms: C_1  and  N_2
REMARK    2  A    between atoms: N_2  and  C_18
REMARK    3  A    between atoms: C_3  and  C_5
REMARK    4  A    between atoms: C_5  and  N_6
REMARK    5  A    between atoms: N_9  and  C_10
REMARK                            x       y       z     vdW  Elec       q    Type
REMARK                         _______ _______ _______ _____ _____    ______ ____
ROOT
ATOM      1  N   UNL     1       1.410   8.688  19.695  0.00  0.00    +0.000 N 
ATOM      2  C   UNL     1       2.101   8.127  18.648  0.00  0.00    +0.000 C 
ATOM      3  O   UNL     1       1.962   8.550  17.503  0.00  0.00    +0.000 OA
ATOM      4  N   UNL     1       2.889   7.064  19.008  0.00  0.00    +0.000 N 
ATOM      5  H   UNL     1       1.706   8.570  20.653  0.00  0.00    +0.000 HD
ATOM      6  H   UNL     1       2.649   6.598  19.872  0.00  0.00    +0.000 HD
ENDROOT
BRANCH   4   7
ATOM      7  C   UNL     1       3.685   6.327  18.088  0.00  0.00    +0.000 A 
ATOM      8  C   UNL     1       4.809   6.896  17.472  0.00  0.00    +0.000 A 
ATOM      9  C   UNL     1       5.516   6.217  16.480  0.00  0.00    +0.000 A 
ATOM     10  C   UNL     1       5.123   4.935  16.113  0.00  0.00    +0.000 A 
ATOM     11 BR   UNL     1       6.046   4.044  14.728  0.00  0.00    +0.000 Br
ATOM     12  C   UNL     1       4.054   4.318  16.761  0.00  0.00    +0.000 A 
ATOM     13  C   UNL     1       3.342   5.009  17.750  0.00  0.00    +0.000 A 
ATOM     14 BR   UNL     1       1.883   4.118  18.580  0.00  0.00    +0.000 Br
ENDBRANCH   4   7
BRANCH   1  15
ATOM     15  C   UNL     1       0.574   9.835  19.364  0.00  0.00    +0.000 C 
BRANCH  15  18
ATOM     16  C   UNL     1      -1.668  11.693  19.294  0.00  0.00    +0.000 C 
ATOM     17  N   UNL     1      -0.705  11.732  20.398  0.00  0.00    +0.000 N 
ATOM     18  C   UNL     1       0.411  10.873  20.472  0.00  0.00    +0.000 C 
ATOM     19  O   UNL     1       1.228  10.922  21.395  0.00  0.00    +0.000 OA
BRANCH  17  20
ATOM     20  C   UNL     1      -0.813  12.787  21.433  0.00  0.00    +0.000 C 
ATOM     21  C   UNL     1      -1.108  12.312  22.873  0.00  0.00    +0.000 C 
ATOM     22  C   UNL     1      -2.539  11.884  23.173  0.00  0.00    +0.000 C 
ATOM     23  S   UNL     1      -3.750  13.085  22.676  0.00  0.00    +0.000 S 
ATOM     24  O   UNL     1      -5.019  12.397  22.548  0.00  0.00    +0.000 OA
ATOM     25  O   UNL     1      -3.609  14.238  23.543  0.00  0.00    +0.000 OA
ATOM     26  C   UNL     1      -3.227  13.559  21.045  0.00  0.00    +0.000 C 
ATOM     27  C   UNL     1      -1.757  13.929  21.008  0.00  0.00    +0.000 C 
ENDBRANCH  17  20
ENDBRANCH  15  18
ENDBRANCH   1  15
TORSDOF 4
ENDMDL
MODEL 6
REMARK VINA RESULT:      -7.1      7.005      9.440
REMARK  Name = 
REMARK  5 active torsions:
REMARK  status: ('A' for Active; 'I' for Inactive)
REMARK    1  A    between atoms: C_1  and  N_2
REMARK    2  A    between atoms: N_2  and  C_18
REMARK    3  A    between atoms: C_3  and  C_5
REMARK    4  A    between atoms: C_5  and  N_6
REMARK    5  A    between atoms: N_9  and  C_10
REMARK                            x       y       z     vdW  Elec       q    Type
REMARK                         _______ _______ _______ _____ _____    ______ ____
ROOT
ATOM      1  N   UNL     1       0.832   9.657  17.837  0.00  0.00    +0.000 N 
ATOM      2  C   UNL     1      -0.347  10.218  18.267  0.00  0.00    +0.000 C 
ATOM      3  O   UNL     1      -0.531  10.466  19.456  0.00  0.00    +0.000 OA
ATOM      4  N   UNL     1      -1.264  10.417  17.267  0.00  0.00    +0.000 N 
ATOM      5  H   UNL     1       1.127   9.709  16.873  0.00  0.00    +0.000 HD
ATOM      6  H   UNL     1      -1.146   9.861  16.431  0.00  0.00    +0.000 HD
ENDROOT
BRANCH   4   7
ATOM      7  C   UNL     1      -2.554  10.976  17.482  0.00  0.00    +0.000 A 
ATOM      8  C   UNL     1      -2.893  11.589  18.696  0.00  0.00    +0.000 A 
ATOM      9  C   UNL     1      -4.192  12.027  18.952  0.00  0.00    +0.000 A 
ATOM     10  C   UNL     1      -5.169  11.886  17.973  0.00  0.00    +0.000 A 
ATOM     11 BR   UNL     1      -6.940  12.424  18.345  0.00  0.00    +0.000 Br
ATOM     12  C   UNL     1      -4.840  11.345  16.730  0.00  0.00    +0.000 A 
ATOM     13  C   UNL     1      -3.537  10.899  16.483  0.00  0.00    +0.000 A 
ATOM     14 BR   UNL     1      -3.161  10.155  14.775  0.00  0.00    +0.000 Br
ENDBRANCH   4   7
BRANCH   1  15
ATOM     15  C   UNL     1       1.847   9.446  18.862  0.00  0.00    +0.000 C 
BRANCH  15  18
ATOM     16  C   UNL     1       3.442   7.334  17.648  0.00  0.00    +0.000 C 
ATOM     17  N   UNL     1       2.678   7.077  18.871  0.00  0.00    +0.000 N 
ATOM     18  C   UNL     1       1.871   8.055  19.490  0.00  0.00    +0.000 C 
ATOM     19  O   UNL     1       1.215   7.828  20.510  0.00  0.00    +0.000 OA
BRANCH  17  20
ATOM     20  C   UNL     1       2.634   5.709  19.440  0.00  0.00    +0.000 C 
ATOM     21  C   UNL     1       3.978   5.116  19.916  0.00  0.00    +0.000 C 
ATOM     22  C   UNL     1       4.931   4.626  18.832  0.00  0.00    +0.000 C 
ATOM     23  S   UNL     1       4.164   3.521  17.671  0.00  0.00    +0.000 S 
ATOM     24  O   UNL     1       4.974   3.523  16.468  0.00  0.00    +0.000 OA
ATOM     25  O   UNL     1       3.864   2.287  18.368  0.00  0.00    +0.000 OA
ATOM     26  C   UNL     1       2.625   4.322  17.285  0.00  0.00    +0.000 C 
ATOM     27  C   UNL     1       1.868   4.724  18.535  0.00  0.00    +0.000 C 
ENDBRANCH  17  20
ENDBRANCH  15  18
ENDBRANCH   1  15
TORSDOF 4
ENDMDL
MODEL 7
REMARK VINA RESULT:      -7.1      6.430      8.652
REMARK  Name = 
REMARK  5 active torsions:
REMARK  status: ('A' for Active; 'I' for Inactive)
REMARK    1  A    between atoms: C_1  and  N_2
REMARK    2  A    between atoms: N_2  and  C_18
REMARK    3  A    between atoms: C_3  and  C_5
REMARK    4  A    between atoms: C_5  and  N_6
REMARK    5  A    between atoms: N_9  and  C_10
REMARK                            x       y       z     vdW  Elec       q    Type
REMARK                         _______ _______ _______ _____ _____    ______ ____
ROOT
ATOM      1  N   UNL     1       1.537   9.568  19.241  0.00  0.00    +0.000 N 
ATOM      2  C   UNL     1       0.583   9.947  20.154  0.00  0.00    +0.000 C 
ATOM      3  O   UNL     1       0.141   9.146  20.974  0.00  0.00    +0.000 OA
ATOM      4  N   UNL     1       0.171  11.249  20.020  0.00  0.00    +0.000 N 
ATOM      5  H   UNL     1       2.117  10.243  18.765  0.00  0.00    +0.000 HD
ATOM      6  H   UNL     1       0.329  11.680  19.120  0.00  0.00    +0.000 HD
ENDROOT
BRANCH   4   7
ATOM      7  C   UNL     1      -0.813  11.853  20.850  0.00  0.00    +0.000 A 
ATOM      8  C   UNL     1      -0.535  12.205  22.179  0.00  0.00    +0.000 A 
ATOM      9  C   UNL     1      -1.532  12.682  23.028  0.00  0.00    +0.000 A 
ATOM     10  C   UNL     1      -2.825  12.848  22.544  0.00  0.00    +0.000 A 
ATOM     11 BR   UNL     1      -4.184  13.437  23.714  0.00  0.00    +0.000 Br
ATOM     12  C   UNL     1      -3.111  12.574  21.207  0.00  0.00    +0.000 A 
ATOM     13  C   UNL     1      -2.108  12.086  20.362  0.00  0.00    +0.000 A 
ATOM     14 BR   UNL     1      -2.570  11.715  18.556  0.00  0.00    +0.000 Br
ENDBRANCH   4   7
BRANCH   1  15
ATOM     15  C   UNL     1       2.021   8.198  19.358  0.00  0.00    +0.000 C 
BRANCH  15  18
ATOM     16  C   UNL     1       3.473   5.679  19.531  0.00  0.00    +0.000 C 
ATOM     17  N   UNL     1       3.397   6.406  18.262  0.00  0.00    +0.000 N 
ATOM     18  C   UNL     1       2.727   7.640  18.125  0.00  0.00    +0.000 C 
ATOM     19  O   UNL     1       2.681   8.257  17.057  0.00  0.00    +0.000 OA
BRANCH  17  20
ATOM     20  C   UNL     1       4.145   5.912  17.082  0.00  0.00    +0.000 C 
ATOM     21  C   UNL     1       4.520   4.413  17.082  0.00  0.00    +0.000 C 
ATOM     22  C   UNL     1       5.678   3.998  17.980  0.00  0.00    +0.000 C 
ATOM     23  S   UNL     1       7.137   4.982  17.744  0.00  0.00    +0.000 S 
ATOM     24  O   UNL     1       7.955   4.842  18.933  0.00  0.00    +0.000 OA
ATOM     25  O   UNL     1       7.669   4.675  16.431  0.00  0.00    +0.000 OA
ATOM     26  C   UNL     1       6.519   6.648  17.709  0.00  0.00    +0.000 C 
ATOM     27  C   UNL     1       5.358   6.800  16.745  0.00  0.00    +0.000 C 
ENDBRANCH  17  20
ENDBRANCH  15  18
ENDBRANCH   1  15
TORSDOF 4
ENDMDL
MODEL 8
REMARK VINA RESULT:      -7.1      5.384      7.924
REMARK  Name = 
REMARK  5 active torsions:
REMARK  status: ('A' for Active; 'I' for Inactive)
REMARK    1  A    between atoms: C_1  and  N_2
REMARK    2  A    between atoms: N_2  and  C_18
REMARK    3  A    between atoms: C_3  and  C_5
REMARK    4  A    between atoms: C_5  and  N_6
REMARK    5  A    between atoms: N_9  and  C_10
REMARK                            x       y       z     vdW  Elec       q    Type
REMARK                         _______ _______ _______ _____ _____    ______ ____
ROOT
ATOM      1  N   UNL     1       1.913   7.214  20.810  0.00  0.00    +0.000 N 
ATOM      2  C   UNL     1       0.872   8.044  21.152  0.00  0.00    +0.000 C 
ATOM      3  O   UNL     1      -0.285   7.629  21.168  0.00  0.00    +0.000 OA
ATOM      4  N   UNL     1       1.253   9.334  21.416  0.00  0.00    +0.000 N 
ATOM      5  H   UNL     1       2.868   7.426  21.062  0.00  0.00    +0.000 HD
ATOM      6  H   UNL     1       2.139   9.629  21.030  0.00  0.00    +0.000 HD
ENDROOT
BRANCH   4   7
ATOM      7  C   UNL     1       0.344  10.365  21.780  0.00  0.00    +0.000 A 
ATOM      8  C   UNL     1      -0.476  10.252  22.913  0.00  0.00    +0.000 A 
ATOM      9  C   UNL     1      -1.453  11.204  23.200  0.00  0.00    +0.000 A 
ATOM     10  C   UNL     1      -1.600  12.309  22.370  0.00  0.00    +0.000 A 
ATOM     11 BR   UNL     1      -2.964  13.564  22.730  0.00  0.00    +0.000 Br
ATOM     12  C   UNL     1      -0.749  12.482  21.279  0.00  0.00    +0.000 A 
ATOM     13  C   UNL     1       0.223  11.518  20.990  0.00  0.00    +0.000 A 
ATOM     14 BR   UNL     1       1.336  11.805  19.477  0.00  0.00    +0.000 Br
ENDBRANCH   4   7
BRANCH   1  15
ATOM     15  C   UNL     1       1.559   5.826  20.541  0.00  0.00    +0.000 C 
BRANCH  15  18
ATOM     16  C   UNL     1       2.974   6.415  18.065  0.00  0.00    +0.000 C 
ATOM     17  N   UNL     1       3.371   5.274  18.893  0.00  0.00    +0.000 N 
ATOM     18  C   UNL     1       2.708   4.928  20.090  0.00  0.00    +0.000 C 
ATOM     19  O   UNL     1       3.035   3.955  20.774  0.00  0.00    +0.000 OA
BRANCH  17  20
ATOM     20  C   UNL     1       4.433   4.354  18.421  0.00  0.00    +0.000 C 
ATOM     21  C   UNL     1       5.814   4.488  19.100  0.00  0.00    +0.000 C 
ATOM     22  C   UNL     1       6.669   5.677  18.680  0.00  0.00    +0.000 C 
ATOM     23  S   UNL     1       6.847   5.826  16.919  0.00  0.00    +0.000 S 
ATOM     24  O   UNL     1       7.228   7.195  16.633  0.00  0.00    +0.000 OA
ATOM     25  O   UNL     1       7.658   4.715  16.462  0.00  0.00    +0.000 OA
ATOM     26  C   UNL     1       5.195   5.588  16.308  0.00  0.00    +0.000 C 
ATOM     27  C   UNL     1       4.554   4.341  16.885  0.00  0.00    +0.000 C 
ENDBRANCH  17  20
ENDBRANCH  15  18
ENDBRANCH   1  15
TORSDOF 4
ENDMDL
MODEL 9
REMARK VINA RESULT:      -7.1      4.943     10.145
REMARK  Name = 
REMARK  5 active torsions:
REMARK  status: ('A' for Active; 'I' for Inactive)
REMARK    1  A    between atoms: C_1  and  N_2
REMARK    2  A    between atoms: N_2  and  C_18
REMARK    3  A    between atoms: C_3  and  C_5
REMARK    4  A    between atoms: C_5  and  N_6
REMARK    5  A    between atoms: N_9  and  C_10
REMARK                            x       y       z     vdW  Elec       q    Type
REMARK                         _______ _______ _______ _____ _____    ______ ____
ROOT
ATOM      1  N   UNL     1       8.309   8.224  17.975  0.00  0.00    +0.000 N 
ATOM      2  C   UNL     1       7.124   7.542  17.840  0.00  0.00    +0.000 C 
ATOM      3  O   UNL     1       6.088   8.132  17.544  0.00  0.00    +0.000 OA
ATOM      4  N   UNL     1       7.221   6.200  18.106  0.00  0.00    +0.000 N 
ATOM      5  H   UNL     1       9.202   7.754  17.927  0.00  0.00    +0.000 HD
ATOM      6  H   UNL     1       8.007   5.909  18.670  0.00  0.00    +0.000 HD
ENDROOT
BRANCH   4   7
ATOM      7  C   UNL     1       6.121   5.302  18.038  0.00  0.00    +0.000 A 
ATOM      8  C   UNL     1       5.303   5.059  19.152  0.00  0.00    +0.000 A 
ATOM      9  C   UNL     1       4.302   4.090  19.121  0.00  0.00    +0.000 A 
ATOM     10  C   UNL     1       4.081   3.368  17.953  0.00  0.00    +0.000 A 
ATOM     11 BR   UNL     1       2.765   2.014  17.935  0.00  0.00    +0.000 Br
ATOM     12  C   UNL     1       4.831   3.641  16.810  0.00  0.00    +0.000 A 
ATOM     13  C   UNL     1       5.842   4.609  16.850  0.00  0.00    +0.000 A 
ATOM     14 BR   UNL     1       6.840   4.917  15.263  0.00  0.00    +0.000 Br
ENDBRANCH   4   7
BRANCH   1  15
ATOM     15  C   UNL     1       8.260   9.651  17.681  0.00  0.00    +0.000 C 
BRANCH  15  18
ATOM     16  C   UNL     1       8.259  12.537  17.293  0.00  0.00    +0.000 C 
ATOM     17  N   UNL     1       8.978  11.940  18.420  0.00  0.00    +0.000 N 
ATOM     18  C   UNL     1       9.032  10.549  18.645  0.00  0.00    +0.000 C 
ATOM     19  O   UNL     1       9.654  10.050  19.586  0.00  0.00    +0.000 OA
BRANCH  17  20
ATOM     20  C   UNL     1       9.794  12.799  19.312  0.00  0.00    +0.000 C 
ATOM     21  C   UNL     1       9.241  14.211  19.604  0.00  0.00    +0.000 C 
ATOM     22  C   UNL     1       9.383  15.244  18.494  0.00  0.00    +0.000 C 
ATOM     23  S   UNL     1      11.036  15.366  17.856  0.00  0.00    +0.000 S 
ATOM     24  O   UNL     1      10.953  15.971  16.541  0.00  0.00    +0.000 OA
ATOM     25  O   UNL     1      11.868  15.944  18.892  0.00  0.00    +0.000 OA
ATOM     26  C   UNL     1      11.528  13.672  17.638  0.00  0.00    +0.000 C 
ATOM     27  C   UNL     1      11.274  12.845  18.884  0.00  0.00    +0.000 C 
ENDBRANCH  17  20
ENDBRANCH  15  18
ENDBRANCH   1  15
TORSDOF 4
ENDMDL
