MODEL 1
REMARK VINA RESULT:      -7.6      0.000      0.000
REMARK  Name = 
REMARK  7 active torsions:
REMARK  status: ('A' for Active; 'I' for Inactive)
REMARK    1  A    between atoms: C_1  and  C_2
REMARK    2  A    between atoms: C_6  and  C_7
REMARK    3  A    between atoms: C_7  and  S_8
REMARK    4  A    between atoms: S_8  and  C_11
REMARK    5  A    between atoms: C_11  and  C_12
REMARK    6  A    between atoms: C_15  and  C_16
REMARK    7  A    between atoms: N_18  and  C_19
REMARK                            x       y       z     vdW  Elec       q    Type
REMARK                         _______ _______ _______ _____ _____    ______ ____
ROOT
ATOM      1  C   UNL     1       7.533   6.082  17.247  0.00  0.00    +0.000 A 
ATOM      2  C   UNL     1       7.833   5.812  18.566  0.00  0.00    +0.000 A 
ATOM      3  C   UNL     1       8.210   7.042  19.150  0.00  0.00    +0.000 A 
ATOM      4  C   UNL     1       8.120   8.006  18.163  0.00  0.00    +0.000 A 
ATOM      5  O   UNL     1       7.696   7.416  16.993  0.00  0.00    +0.000 OA
ENDROOT
BRANCH   4   6
ATOM      6  C   UNL     1       8.404   9.432  18.206  0.00  0.00    +0.000 C 
ATOM      7  O   UNL     1       7.894  10.242  17.439  0.00  0.00    +0.000 OA
ATOM      8  N   UNL     1       9.292   9.805  19.196  0.00  0.00    +0.000 N 
ATOM      9  H   UNL     1       9.774   9.059  19.681  0.00  0.00    +0.000 HD
BRANCH   8  10
ATOM     10  C   UNL     1       9.728  11.175  19.383  0.00  0.00    +0.000 C 
ATOM     11  C   UNL     1       9.955  11.515  20.852  0.00  0.00    +0.000 C 
ATOM     12  C   UNL     1      10.827  12.762  20.809  0.00  0.00    +0.000 C 
ATOM     13  C   UNL     1      11.654  12.646  19.530  0.00  0.00    +0.000 C 
ATOM     14  C   UNL     1      11.092  11.455  18.756  0.00  0.00    +0.000 C 
ENDBRANCH   8  10
ENDBRANCH   4   6
BRANCH   1  15
ATOM     15  C   UNL     1       7.035   5.241  16.135  0.00  0.00    +0.000 C 
BRANCH  15  16
ATOM     16  S   UNL     1       5.303   5.546  15.817  0.00  0.00    +0.000 S 
ATOM     17  O   UNL     1       4.728   4.249  15.495  0.00  0.00    +0.000 OA
ATOM     18  O   UNL     1       5.202   6.642  14.869  0.00  0.00    +0.000 OA
BRANCH  16  19
ATOM     19  C   UNL     1       4.654   6.072  17.405  0.00  0.00    +0.000 C 
BRANCH  19  25
ATOM     20  C   UNL     1       4.480   2.053  20.451  0.00  0.00    +0.000 C 
ATOM     21  C   UNL     1       3.777   3.014  19.537  0.00  0.00    +0.000 A 
ATOM     22  C   UNL     1       2.406   2.902  19.292  0.00  0.00    +0.000 A 
ATOM     23  C   UNL     1       1.770   3.799  18.434  0.00  0.00    +0.000 A 
ATOM     24  C   UNL     1       2.499   4.816  17.814  0.00  0.00    +0.000 A 
ATOM     25  C   UNL     1       3.872   4.954  18.049  0.00  0.00    +0.000 A 
ATOM     26  C   UNL     1       4.503   4.039  18.910  0.00  0.00    +0.000 A 
ENDBRANCH  19  25
ENDBRANCH  16  19
ENDBRANCH  15  16
ENDBRANCH   1  15
TORSDOF 6
ENDMDL
MODEL 2
REMARK VINA RESULT:      -7.4      5.345      7.379
REMARK  Name = 
REMARK  7 active torsions:
REMARK  status: ('A' for Active; 'I' for Inactive)
REMARK    1  A    between atoms: C_1  and  C_2
REMARK    2  A    between atoms: C_6  and  C_7
REMARK    3  A    between atoms: C_7  and  S_8
REMARK    4  A    between atoms: S_8  and  C_11
REMARK    5  A    between atoms: C_11  and  C_12
REMARK    6  A    between atoms: C_15  and  C_16
REMARK    7  A    between atoms: N_18  and  C_19
REMARK                            x       y       z     vdW  Elec       q    Type
REMARK                         _______ _______ _______ _____ _____    ______ ____
ROOT
ATOM      1  C   UNL     1       2.300   3.590  20.696  0.00  0.00    +0.000 A 
ATOM      2  C   UNL     1       0.947   3.487  20.450  0.00  0.00    +0.000 A 
ATOM      3  C   UNL     1       0.452   4.808  20.371  0.00  0.00    +0.000 A 
ATOM      4  C   UNL     1       1.526   5.656  20.568  0.00  0.00    +0.000 A 
ATOM      5  O   UNL     1       2.665   4.907  20.760  0.00  0.00    +0.000 OA
ENDROOT
BRANCH   4   6
ATOM      6  C   UNL     1       1.587   7.109  20.605  0.00  0.00    +0.000 C 
ATOM      7  O   UNL     1       2.384   7.765  19.942  0.00  0.00    +0.000 OA
ATOM      8  N   UNL     1       0.660   7.697  21.444  0.00  0.00    +0.000 N 
ATOM      9  H   UNL     1       0.147   7.079  22.060  0.00  0.00    +0.000 HD
BRANCH   8  10
ATOM     10  C   UNL     1       0.580   9.130  21.643  0.00  0.00    +0.000 C 
ATOM     11  C   UNL     1      -0.293   9.813  20.596  0.00  0.00    +0.000 C 
ATOM     12  C   UNL     1      -0.634  11.158  21.223  0.00  0.00    +0.000 C 
ATOM     13  C   UNL     1      -0.646  10.921  22.732  0.00  0.00    +0.000 C 
ATOM     14  C   UNL     1      -0.104   9.510  22.954  0.00  0.00    +0.000 C 
ENDBRANCH   8  10
ENDBRANCH   4   6
BRANCH   1  15
ATOM     15  C   UNL     1       3.378   2.585  20.832  0.00  0.00    +0.000 C 
BRANCH  15  16
ATOM     16  S   UNL     1       4.375   2.499  19.351  0.00  0.00    +0.000 S 
ATOM     17  O   UNL     1       4.588   1.080  19.103  0.00  0.00    +0.000 OA
ATOM     18  O   UNL     1       5.512   3.387  19.517  0.00  0.00    +0.000 OA
BRANCH  16  19
ATOM     19  C   UNL     1       3.302   3.141  18.064  0.00  0.00    +0.000 C 
BRANCH  19  25
ATOM     20  C   UNL     1       6.402   4.551  14.341  0.00  0.00    +0.000 C 
ATOM     21  C   UNL     1       5.493   4.921  15.476  0.00  0.00    +0.000 A 
ATOM     22  C   UNL     1       5.268   6.258  15.812  0.00  0.00    +0.000 A 
ATOM     23  C   UNL     1       4.427   6.585  16.875  0.00  0.00    +0.000 A 
ATOM     24  C   UNL     1       3.801   5.577  17.611  0.00  0.00    +0.000 A 
ATOM     25  C   UNL     1       4.003   4.229  17.290  0.00  0.00    +0.000 A 
ATOM     26  C   UNL     1       4.860   3.914  16.221  0.00  0.00    +0.000 A 
ENDBRANCH  19  25
ENDBRANCH  16  19
ENDBRANCH  15  16
ENDBRANCH   1  15
TORSDOF 6
ENDMDL
MODEL 3
REMARK VINA RESULT:      -7.2      5.471      7.231
REMARK  Name = 
REMARK  7 active torsions:
REMARK  status: ('A' for Active; 'I' for Inactive)
REMARK    1  A    between atoms: C_1  and  C_2
REMARK    2  A    between atoms: C_6  and  C_7
REMARK    3  A    between atoms: C_7  and  S_8
REMARK    4  A    between atoms: S_8  and  C_11
REMARK    5  A    between atoms: C_11  and  C_12
REMARK    6  A    between atoms: C_15  and  C_16
REMARK    7  A    between atoms: N_18  and  C_19
REMARK                            x       y       z     vdW  Elec       q    Type
REMARK                         _______ _______ _______ _____ _____    ______ ____
ROOT
ATOM      1  C   UNL     1       2.620   7.001  19.032  0.00  0.00    +0.000 A 
ATOM      2  C   UNL     1       3.086   7.621  17.892  0.00  0.00    +0.000 A 
ATOM      3  C   UNL     1       2.358   8.824  17.764  0.00  0.00    +0.000 A 
ATOM      4  C   UNL     1       1.483   8.886  18.833  0.00  0.00    +0.000 A 
ATOM      5  O   UNL     1       1.650   7.767  19.618  0.00  0.00    +0.000 OA
ENDROOT
BRANCH   4   6
ATOM      6  C   UNL     1       0.493   9.891  19.187  0.00  0.00    +0.000 C 
ATOM      7  O   UNL     1      -0.337  10.324  18.394  0.00  0.00    +0.000 OA
ATOM      8  N   UNL     1       0.554  10.313  20.501  0.00  0.00    +0.000 N 
ATOM      9  H   UNL     1       1.358  10.014  21.038  0.00  0.00    +0.000 HD
BRANCH   8  10
ATOM     10  C   UNL     1      -0.326  11.330  21.039  0.00  0.00    +0.000 C 
ATOM     11  C   UNL     1      -0.776  11.014  22.462  0.00  0.00    +0.000 C 
ATOM     12  C   UNL     1      -1.261  12.353  23.000  0.00  0.00    +0.000 C 
ATOM     13  C   UNL     1      -0.429  13.415  22.282  0.00  0.00    +0.000 C 
ATOM     14  C   UNL     1       0.361  12.686  21.196  0.00  0.00    +0.000 C 
ENDBRANCH   8  10
ENDBRANCH   4   6
BRANCH   1  15
ATOM     15  C   UNL     1       3.006   5.754  19.730  0.00  0.00    +0.000 C 
BRANCH  15  16
ATOM     16  S   UNL     1       2.105   4.349  19.092  0.00  0.00    +0.000 S 
ATOM     17  O   UNL     1       1.572   4.775  17.806  0.00  0.00    +0.000 OA
ATOM     18  O   UNL     1       1.207   3.875  20.130  0.00  0.00    +0.000 OA
BRANCH  16  19
ATOM     19  C   UNL     1       3.374   3.115  18.794  0.00  0.00    +0.000 C 
BRANCH  19  25
ATOM     20  C   UNL     1       5.651   4.385  14.474  0.00  0.00    +0.000 C 
ATOM     21  C   UNL     1       5.645   4.363  15.974  0.00  0.00    +0.000 A 
ATOM     22  C   UNL     1       6.696   4.923  16.706  0.00  0.00    +0.000 A 
ATOM     23  C   UNL     1       6.679   4.886  18.100  0.00  0.00    +0.000 A 
ATOM     24  C   UNL     1       5.611   4.291  18.775  0.00  0.00    +0.000 A 
ATOM     25  C   UNL     1       4.543   3.730  18.065  0.00  0.00    +0.000 A 
ATOM     26  C   UNL     1       4.576   3.766  16.660  0.00  0.00    +0.000 A 
ENDBRANCH  19  25
ENDBRANCH  16  19
ENDBRANCH  15  16
ENDBRANCH   1  15
TORSDOF 6
ENDMDL
MODEL 4
REMARK VINA RESULT:      -7.2      1.362      1.954
REMARK  Name = 
REMARK  7 active torsions:
REMARK  status: ('A' for Active; 'I' for Inactive)
REMARK    1  A    between atoms: C_1  and  C_2
REMARK    2  A    between atoms: C_6  and  C_7
REMARK    3  A    between atoms: C_7  and  S_8
REMARK    4  A    between atoms: S_8  and  C_11
REMARK    5  A    between atoms: C_11  and  C_12
REMARK    6  A    between atoms: C_15  and  C_16
REMARK    7  A    between atoms: N_18  and  C_19
REMARK                            x       y       z     vdW  Elec       q    Type
REMARK                         _______ _______ _______ _____ _____    ______ ____
ROOT
ATOM      1  C   UNL     1       6.412   6.511  17.307  0.00  0.00    +0.000 A 
ATOM      2  C   UNL     1       7.425   5.950  18.055  0.00  0.00    +0.000 A 
ATOM      3  C   UNL     1       8.263   7.014  18.458  0.00  0.00    +0.000 A 
ATOM      4  C   UNL     1       7.722   8.176  17.940  0.00  0.00    +0.000 A 
ATOM      5  O   UNL     1       6.578   7.868  17.238  0.00  0.00    +0.000 OA
ENDROOT
BRANCH   4   6
ATOM      6  C   UNL     1       8.180   9.553  18.030  0.00  0.00    +0.000 C 
ATOM      7  O   UNL     1       7.838  10.428  17.241  0.00  0.00    +0.000 OA
ATOM      8  N   UNL     1       9.029   9.802  19.091  0.00  0.00    +0.000 N 
ATOM      9  H   UNL     1       9.373   8.997  19.598  0.00  0.00    +0.000 HD
BRANCH   8  10
ATOM     10  C   UNL     1       9.619  11.103  19.335  0.00  0.00    +0.000 C 
ATOM     11  C   UNL     1       9.669  11.447  20.820  0.00  0.00    +0.000 C 
ATOM     12  C   UNL     1      10.704  12.562  20.903  0.00  0.00    +0.000 C 
ATOM     13  C   UNL     1      11.688  12.300  19.764  0.00  0.00    +0.000 C 
ATOM     14  C   UNL     1      11.087  11.177  18.920  0.00  0.00    +0.000 C 
ENDBRANCH   8  10
ENDBRANCH   4   6
BRANCH   1  15
ATOM     15  C   UNL     1       5.210   5.946  16.654  0.00  0.00    +0.000 C 
BRANCH  15  16
ATOM     16  S   UNL     1       5.064   4.193  16.970  0.00  0.00    +0.000 S 
ATOM     17  O   UNL     1       5.363   4.024  18.385  0.00  0.00    +0.000 OA
ATOM     18  O   UNL     1       5.846   3.485  15.972  0.00  0.00    +0.000 OA
BRANCH  16  19
ATOM     19  C   UNL     1       3.322   3.847  16.717  0.00  0.00    +0.000 C 
BRANCH  19  25
ATOM     20  C   UNL     1       1.577   6.316  20.757  0.00  0.00    +0.000 C 
ATOM     21  C   UNL     1       1.727   5.035  19.990  0.00  0.00    +0.000 A 
ATOM     22  C   UNL     1       1.180   3.841  20.468  0.00  0.00    +0.000 A 
ATOM     23  C   UNL     1       1.336   2.658  19.747  0.00  0.00    +0.000 A 
ATOM     24  C   UNL     1       2.039   2.657  18.540  0.00  0.00    +0.000 A 
ATOM     25  C   UNL     1       2.590   3.841  18.036  0.00  0.00    +0.000 A 
ATOM     26  C   UNL     1       2.433   5.025  18.776  0.00  0.00    +0.000 A 
ENDBRANCH  19  25
ENDBRANCH  16  19
ENDBRANCH  15  16
ENDBRANCH   1  15
TORSDOF 6
ENDMDL
MODEL 5
REMARK VINA RESULT:      -7.2      5.568      7.273
REMARK  Name = 
REMARK  7 active torsions:
REMARK  status: ('A' for Active; 'I' for Inactive)
REMARK    1  A    between atoms: C_1  and  C_2
REMARK    2  A    between atoms: C_6  and  C_7
REMARK    3  A    between atoms: C_7  and  S_8
REMARK    4  A    between atoms: S_8  and  C_11
REMARK    5  A    between atoms: C_11  and  C_12
REMARK    6  A    between atoms: C_15  and  C_16
REMARK    7  A    between atoms: N_18  and  C_19
REMARK                            x       y       z     vdW  Elec       q    Type
REMARK                         _______ _______ _______ _____ _____    ______ ____
ROOT
ATOM      1  C   UNL     1       2.557   7.262  19.036  0.00  0.00    +0.000 A 
ATOM      2  C   UNL     1       2.928   7.863  17.851  0.00  0.00    +0.000 A 
ATOM      3  C   UNL     1       2.149   9.036  17.735  0.00  0.00    +0.000 A 
ATOM      4  C   UNL     1       1.341   9.099  18.855  0.00  0.00    +0.000 A 
ATOM      5  O   UNL     1       1.598   8.012  19.660  0.00  0.00    +0.000 OA
ENDROOT
BRANCH   4   6
ATOM      6  C   UNL     1       0.339  10.080  19.242  0.00  0.00    +0.000 C 
ATOM      7  O   UNL     1      -0.578  10.430  18.505  0.00  0.00    +0.000 OA
ATOM      8  N   UNL     1       0.495  10.580  20.521  0.00  0.00    +0.000 N 
ATOM      9  H   UNL     1       1.356  10.348  20.998  0.00  0.00    +0.000 HD
BRANCH   8  10
ATOM     10  C   UNL     1      -0.382  11.588  21.080  0.00  0.00    +0.000 C 
ATOM     11  C   UNL     1      -0.849  11.233  22.489  0.00  0.00    +0.000 C 
ATOM     12  C   UNL     1      -1.328  12.560  23.061  0.00  0.00    +0.000 C 
ATOM     13  C   UNL     1      -0.481  13.636  22.383  0.00  0.00    +0.000 C 
ATOM     14  C   UNL     1       0.313  12.933  21.283  0.00  0.00    +0.000 C 
ENDBRANCH   8  10
ENDBRANCH   4   6
BRANCH   1  15
ATOM     15  C   UNL     1       3.031   6.052  19.743  0.00  0.00    +0.000 C 
BRANCH  15  16
ATOM     16  S   UNL     1       2.386   4.566  18.988  0.00  0.00    +0.000 S 
ATOM     17  O   UNL     1       1.814   4.988  17.718  0.00  0.00    +0.000 OA
ATOM     18  O   UNL     1       1.560   3.881  19.967  0.00  0.00    +0.000 OA
BRANCH  16  19
ATOM     19  C   UNL     1       3.846   3.580  18.648  0.00  0.00    +0.000 C 
BRANCH  19  25
ATOM     20  C   UNL     1       7.591   6.887  17.938  0.00  0.00    +0.000 C 
ATOM     21  C   UNL     1       6.602   5.911  17.369  0.00  0.00    +0.000 A 
ATOM     22  C   UNL     1       6.546   5.662  15.996  0.00  0.00    +0.000 A 
ATOM     23  C   UNL     1       5.616   4.758  15.483  0.00  0.00    +0.000 A 
ATOM     24  C   UNL     1       4.734   4.094  16.339  0.00  0.00    +0.000 A 
ATOM     25  C   UNL     1       4.776   4.321  17.720  0.00  0.00    +0.000 A 
ATOM     26  C   UNL     1       5.713   5.240  18.223  0.00  0.00    +0.000 A 
ENDBRANCH  19  25
ENDBRANCH  16  19
ENDBRANCH  15  16
ENDBRANCH   1  15
TORSDOF 6
ENDMDL
MODEL 6
REMARK VINA RESULT:      -7.2      1.309      1.712
REMARK  Name = 
REMARK  7 active torsions:
REMARK  status: ('A' for Active; 'I' for Inactive)
REMARK    1  A    between atoms: C_1  and  C_2
REMARK    2  A    between atoms: C_6  and  C_7
REMARK    3  A    between atoms: C_7  and  S_8
REMARK    4  A    between atoms: S_8  and  C_11
REMARK    5  A    between atoms: C_11  and  C_12
REMARK    6  A    between atoms: C_15  and  C_16
REMARK    7  A    between atoms: N_18  and  C_19
REMARK                            x       y       z     vdW  Elec       q    Type
REMARK                         _______ _______ _______ _____ _____    ______ ____
ROOT
ATOM      1  C   UNL     1       6.809   7.075  17.355  0.00  0.00    +0.000 A 
ATOM      2  C   UNL     1       7.672   6.604  18.321  0.00  0.00    +0.000 A 
ATOM      3  C   UNL     1       8.449   7.708  18.737  0.00  0.00    +0.000 A 
ATOM      4  C   UNL     1       8.022   8.803  18.008  0.00  0.00    +0.000 A 
ATOM      5  O   UNL     1       7.007   8.415  17.163  0.00  0.00    +0.000 OA
ENDROOT
BRANCH   4   6
ATOM      6  C   UNL     1       8.483  10.183  18.019  0.00  0.00    +0.000 C 
ATOM      7  O   UNL     1       7.930  11.080  17.392  0.00  0.00    +0.000 OA
ATOM      8  N   UNL     1       9.595  10.405  18.809  0.00  0.00    +0.000 N 
ATOM      9  H   UNL     1      10.069   9.587  19.168  0.00  0.00    +0.000 HD
BRANCH   8  10
ATOM     10  C   UNL     1      10.224  11.705  18.928  0.00  0.00    +0.000 C 
ATOM     11  C   UNL     1      10.735  11.974  20.340  0.00  0.00    +0.000 C 
ATOM     12  C   UNL     1      11.738  13.105  20.157  0.00  0.00    +0.000 C 
ATOM     13  C   UNL     1      12.318  12.923  18.756  0.00  0.00    +0.000 C 
ATOM     14  C   UNL     1      11.489  11.831  18.081  0.00  0.00    +0.000 C 
ENDBRANCH   8  10
ENDBRANCH   4   6
BRANCH   1  15
ATOM     15  C   UNL     1       5.723   6.437  16.576  0.00  0.00    +0.000 C 
BRANCH  15  16
ATOM     16  S   UNL     1       6.061   4.706  16.292  0.00  0.00    +0.000 S 
ATOM     17  O   UNL     1       7.488   4.624  16.019  0.00  0.00    +0.000 OA
ATOM     18  O   UNL     1       5.104   4.211  15.317  0.00  0.00    +0.000 OA
BRANCH  16  19
ATOM     19  C   UNL     1       5.746   3.932  17.880  0.00  0.00    +0.000 C 
BRANCH  19  25
ATOM     20  C   UNL     1       1.877   5.859  20.485  0.00  0.00    +0.000 C 
ATOM     21  C   UNL     1       2.388   4.906  19.444  0.00  0.00    +0.000 A 
ATOM     22  C   UNL     1       1.516   4.065  18.748  0.00  0.00    +0.000 A 
ATOM     23  C   UNL     1       2.008   3.179  17.790  0.00  0.00    +0.000 A 
ATOM     24  C   UNL     1       3.377   3.127  17.518  0.00  0.00    +0.000 A 
ATOM     25  C   UNL     1       4.271   3.965  18.196  0.00  0.00    +0.000 A 
ATOM     26  C   UNL     1       3.762   4.848  19.165  0.00  0.00    +0.000 A 
ENDBRANCH  19  25
ENDBRANCH  16  19
ENDBRANCH  15  16
ENDBRANCH   1  15
TORSDOF 6
ENDMDL
MODEL 7
REMARK VINA RESULT:      -7.0      5.446      6.918
REMARK  Name = 
REMARK  7 active torsions:
REMARK  status: ('A' for Active; 'I' for Inactive)
REMARK    1  A    between atoms: C_1  and  C_2
REMARK    2  A    between atoms: C_6  and  C_7
REMARK    3  A    between atoms: C_7  and  S_8
REMARK    4  A    between atoms: S_8  and  C_11
REMARK    5  A    between atoms: C_11  and  C_12
REMARK    6  A    between atoms: C_15  and  C_16
REMARK    7  A    between atoms: N_18  and  C_19
REMARK                            x       y       z     vdW  Elec       q    Type
REMARK                         _______ _______ _______ _____ _____    ______ ____
ROOT
ATOM      1  C   UNL     1       2.640   6.879  19.085  0.00  0.00    +0.000 A 
ATOM      2  C   UNL     1       2.983   7.522  17.915  0.00  0.00    +0.000 A 
ATOM      3  C   UNL     1       2.291   8.754  17.917  0.00  0.00    +0.000 A 
ATOM      4  C   UNL     1       1.560   8.807  19.090  0.00  0.00    +0.000 A 
ATOM      5  O   UNL     1       1.782   7.657  19.813  0.00  0.00    +0.000 OA
ENDROOT
BRANCH   4   6
ATOM      6  C   UNL     1       0.662   9.833  19.597  0.00  0.00    +0.000 C 
ATOM      7  O   UNL     1      -0.288   9.589  20.335  0.00  0.00    +0.000 OA
ATOM      8  N   UNL     1       0.973  11.115  19.188  0.00  0.00    +0.000 N 
ATOM      9  H   UNL     1       1.676  11.205  18.466  0.00  0.00    +0.000 HD
BRANCH   8  10
ATOM     10  C   UNL     1       0.181  12.270  19.559  0.00  0.00    +0.000 C 
ATOM     11  C   UNL     1       0.846  13.102  20.651  0.00  0.00    +0.000 C 
ATOM     12  C   UNL     1       0.146  14.452  20.562  0.00  0.00    +0.000 C 
ATOM     13  C   UNL     1      -0.256  14.614  19.097  0.00  0.00    +0.000 C 
ATOM     14  C   UNL     1       0.022  13.273  18.419  0.00  0.00    +0.000 C 
ENDBRANCH   8  10
ENDBRANCH   4   6
BRANCH   1  15
ATOM     15  C   UNL     1       3.062   5.595  19.690  0.00  0.00    +0.000 C 
BRANCH  15  16
ATOM     16  S   UNL     1       2.329   4.206  18.838  0.00  0.00    +0.000 S 
ATOM     17  O   UNL     1       1.611   4.774  17.707  0.00  0.00    +0.000 OA
ATOM     18  O   UNL     1       1.623   3.395  19.815  0.00  0.00    +0.000 OA
BRANCH  16  19
ATOM     19  C   UNL     1       3.736   3.287  18.209  0.00  0.00    +0.000 C 
BRANCH  19  25
ATOM     20  C   UNL     1       7.928   5.977  19.021  0.00  0.00    +0.000 C 
ATOM     21  C   UNL     1       6.840   5.527  18.090  0.00  0.00    +0.000 A 
ATOM     22  C   UNL     1       6.811   5.953  16.759  0.00  0.00    +0.000 A 
ATOM     23  C   UNL     1       5.789   5.532  15.909  0.00  0.00    +0.000 A 
ATOM     24  C   UNL     1       4.788   4.680  16.381  0.00  0.00    +0.000 A 
ATOM     25  C   UNL     1       4.799   4.233  17.707  0.00  0.00    +0.000 A 
ATOM     26  C   UNL     1       5.831   4.671  18.556  0.00  0.00    +0.000 A 
ENDBRANCH  19  25
ENDBRANCH  16  19
ENDBRANCH  15  16
ENDBRANCH   1  15
TORSDOF 6
ENDMDL
MODEL 8
REMARK VINA RESULT:      -7.0      4.503      7.044
REMARK  Name = 
REMARK  7 active torsions:
REMARK  status: ('A' for Active; 'I' for Inactive)
REMARK    1  A    between atoms: C_1  and  C_2
REMARK    2  A    between atoms: C_6  and  C_7
REMARK    3  A    between atoms: C_7  and  S_8
REMARK    4  A    between atoms: S_8  and  C_11
REMARK    5  A    between atoms: C_11  and  C_12
REMARK    6  A    between atoms: C_15  and  C_16
REMARK    7  A    between atoms: N_18  and  C_19
REMARK                            x       y       z     vdW  Elec       q    Type
REMARK                         _______ _______ _______ _____ _____    ______ ____
ROOT
ATOM      1  C   UNL     1       4.302   6.159  18.172  0.00  0.00    +0.000 A 
ATOM      2  C   UNL     1       3.241   5.291  18.021  0.00  0.00    +0.000 A 
ATOM      3  C   UNL     1       2.069   6.079  18.066  0.00  0.00    +0.000 A 
ATOM      4  C   UNL     1       2.469   7.392  18.239  0.00  0.00    +0.000 A 
ATOM      5  O   UNL     1       3.843   7.442  18.296  0.00  0.00    +0.000 OA
ENDROOT
BRANCH   4   6
ATOM      6  C   UNL     1       1.683   8.609  18.367  0.00  0.00    +0.000 C 
ATOM      7  O   UNL     1       1.406   9.333  17.416  0.00  0.00    +0.000 OA
ATOM      8  N   UNL     1       1.257   8.880  19.653  0.00  0.00    +0.000 N 
ATOM      9  H   UNL     1       1.654   8.314  20.392  0.00  0.00    +0.000 HD
BRANCH   8  10
ATOM     10  C   UNL     1       0.490  10.061  19.993  0.00  0.00    +0.000 C 
ATOM     11  C   UNL     1      -0.101   9.983  21.398  0.00  0.00    +0.000 C 
ATOM     12  C   UNL     1      -0.435  11.430  21.735  0.00  0.00    +0.000 C 
ATOM     13  C   UNL     1       0.585  12.279  20.977  0.00  0.00    +0.000 C 
ATOM     14  C   UNL     1       1.343  11.326  20.054  0.00  0.00    +0.000 C 
ENDBRANCH   8  10
ENDBRANCH   4   6
BRANCH   1  15
ATOM     15  C   UNL     1       5.770   5.967  18.161  0.00  0.00    +0.000 C 
BRANCH  15  16
ATOM     16  S   UNL     1       6.437   6.162  16.515  0.00  0.00    +0.000 S 
ATOM     17  O   UNL     1       7.706   6.854  16.685  0.00  0.00    +0.000 OA
ATOM     18  O   UNL     1       5.403   6.735  15.671  0.00  0.00    +0.000 OA
BRANCH  16  19
ATOM     19  C   UNL     1       6.778   4.483  15.981  0.00  0.00    +0.000 C 
BRANCH  19  25
ATOM     20  C   UNL     1       5.173   2.563  11.599  0.00  0.00    +0.000 C 
ATOM     21  C   UNL     1       6.074   3.502  12.346  0.00  0.00    +0.000 A 
ATOM     22  C   UNL     1       6.969   4.333  11.668  0.00  0.00    +0.000 A 
ATOM     23  C   UNL     1       7.805   5.195  12.378  0.00  0.00    +0.000 A 
ATOM     24  C   UNL     1       7.752   5.234  13.773  0.00  0.00    +0.000 A 
ATOM     25  C   UNL     1       6.858   4.417  14.476  0.00  0.00    +0.000 A 
ATOM     26  C   UNL     1       6.027   3.548  13.748  0.00  0.00    +0.000 A 
ENDBRANCH  19  25
ENDBRANCH  16  19
ENDBRANCH  15  16
ENDBRANCH   1  15
TORSDOF 6
ENDMDL
MODEL 9
REMARK VINA RESULT:      -7.0      5.536      8.419
REMARK  Name = 
REMARK  7 active torsions:
REMARK  status: ('A' for Active; 'I' for Inactive)
REMARK    1  A    between atoms: C_1  and  C_2
REMARK    2  A    between atoms: C_6  and  C_7
REMARK    3  A    between atoms: C_7  and  S_8
REMARK    4  A    between atoms: S_8  and  C_11
REMARK    5  A    between atoms: C_11  and  C_12
REMARK    6  A    between atoms: C_15  and  C_16
REMARK    7  A    between atoms: N_18  and  C_19
REMARK                            x       y       z     vdW  Elec       q    Type
REMARK                         _______ _______ _______ _____ _____    ______ ____
ROOT
ATOM      1  C   UNL     1       2.193   7.632  19.347  0.00  0.00    +0.000 A 
ATOM      2  C   UNL     1       1.817   7.929  20.640  0.00  0.00    +0.000 A 
ATOM      3  C   UNL     1       0.923   9.020  20.557  0.00  0.00    +0.000 A 
ATOM      4  C   UNL     1       0.791   9.336  19.217  0.00  0.00    +0.000 A 
ATOM      5  O   UNL     1       1.567   8.477  18.472  0.00  0.00    +0.000 OA
ENDROOT
BRANCH   4   6
ATOM      6  C   UNL     1       0.013  10.378  18.565  0.00  0.00    +0.000 C 
ATOM      7  O   UNL     1       0.298  11.569  18.631  0.00  0.00    +0.000 OA
ATOM      8  N   UNL     1      -1.073   9.913  17.848  0.00  0.00    +0.000 N 
ATOM      9  H   UNL     1      -1.315   8.938  17.971  0.00  0.00    +0.000 HD
BRANCH   8  10
ATOM     10  C   UNL     1      -1.989  10.794  17.153  0.00  0.00    +0.000 C 
ATOM     11  C   UNL     1      -2.566  10.154  15.895  0.00  0.00    +0.000 C 
ATOM     12  C   UNL     1      -3.803  10.990  15.593  0.00  0.00    +0.000 C 
ATOM     13  C   UNL     1      -4.306  11.491  16.946  0.00  0.00    +0.000 C 
ATOM     14  C   UNL     1      -3.237  11.118  17.972  0.00  0.00    +0.000 C 
ENDBRANCH   8  10
ENDBRANCH   4   6
BRANCH   1  15
ATOM     15  C   UNL     1       3.057   6.580  18.766  0.00  0.00    +0.000 C 
BRANCH  15  16
ATOM     16  S   UNL     1       2.307   4.965  18.924  0.00  0.00    +0.000 S 
ATOM     17  O   UNL     1       1.656   4.709  17.648  0.00  0.00    +0.000 OA
ATOM     18  O   UNL     1       1.534   4.942  20.153  0.00  0.00    +0.000 OA
BRANCH  16  19
ATOM     19  C   UNL     1       3.703   3.849  19.078  0.00  0.00    +0.000 C 
BRANCH  19  25
ATOM     20  C   UNL     1       5.629   4.346  14.440  0.00  0.00    +0.000 C 
ATOM     21  C   UNL     1       5.759   4.542  15.922  0.00  0.00    +0.000 A 
ATOM     22  C   UNL     1       6.896   5.142  16.472  0.00  0.00    +0.000 A 
ATOM     23  C   UNL     1       7.005   5.310  17.852  0.00  0.00    +0.000 A 
ATOM     24  C   UNL     1       5.979   4.880  18.695  0.00  0.00    +0.000 A 
ATOM     25  C   UNL     1       4.826   4.283  18.170  0.00  0.00    +0.000 A 
ATOM     26  C   UNL     1       4.732   4.114  16.777  0.00  0.00    +0.000 A 
ENDBRANCH  19  25
ENDBRANCH  16  19
ENDBRANCH  15  16
ENDBRANCH   1  15
TORSDOF 6
ENDMDL
