MODEL 1
REMARK VINA RESULT:      -7.7      0.000      0.000
REMARK  Name = 
REMARK  5 active torsions:
REMARK  status: ('A' for Active; 'I' for Inactive)
REMARK    1  A    between atoms: C_2  and  C_3
REMARK    2  A    between atoms: C_2  and  C_9
REMARK    3  A    between atoms: C_9  and  S_10
REMARK    4  A    between atoms: C_9  and  C_16
REMARK    5  A    between atoms: S_10  and  C_11
REMARK                            x       y       z     vdW  Elec       q    Type
REMARK                         _______ _______ _______ _____ _____    ______ ____
ROOT
ATOM      1  C   UNL     1       3.705   6.109  18.263  0.00  0.00    +0.000 C 
ENDROOT
BRANCH   1   2
ATOM      2  C   UNL     1       2.700   7.178  18.703  0.00  0.00    +0.000 A 
ATOM      3  C   UNL     1       2.267   8.157  17.785  0.00  0.00    +0.000 A 
ATOM      4  C   UNL     1       1.445   9.215  18.192  0.00  0.00    +0.000 A 
ATOM      5  C   UNL     1       1.042   9.319  19.520  0.00  0.00    +0.000 A 
ATOM      6  C   UNL     1       1.397   8.327  20.423  0.00  0.00    +0.000 A 
ATOM      7  C   UNL     1       2.186   7.254  20.008  0.00  0.00    +0.000 A 
ENDBRANCH   1   2
BRANCH   1   9
ATOM      8  O   UNL     1       3.081   4.162  16.899  0.00  0.00    +0.000 OA
ATOM      9  C   UNL     1       3.120   4.708  18.006  0.00  0.00    +0.000 C 
BRANCH   9  10
ATOM     10  C   UNL     1       2.541   3.901  19.127  0.00  0.00    +0.000 A 
ATOM     11  C   UNL     1       1.168   3.777  19.352  0.00  0.00    +0.000 A 
ATOM     12  C   UNL     1       0.709   3.193  20.537  0.00  0.00    +0.000 A 
ATOM     13  C   UNL     1       1.610   2.694  21.477  0.00  0.00    +0.000 A 
ATOM     14  C   UNL     1       2.978   2.743  21.227  0.00  0.00    +0.000 A 
ATOM     15  C   UNL     1       3.441   3.348  20.059  0.00  0.00    +0.000 A 
ENDBRANCH   9  10
ENDBRANCH   1   9
BRANCH   1  16
ATOM     16  S   UNL     1       4.776   6.659  16.897  0.00  0.00    +0.000 S 
BRANCH  16  17
ATOM     17  C   UNL     1       6.144   5.612  17.079  0.00  0.00    +0.000 A 
ATOM     18  N   UNL     1       6.725   5.348  18.288  0.00  0.00    +0.000 NA
ATOM     19  C   UNL     1       7.763   4.613  17.962  0.00  0.00    +0.000 A 
ATOM     20  N   UNL     1       7.811   4.478  16.610  0.00  0.00    +0.000 N 
ATOM     21  N   UNL     1       6.801   5.132  16.021  0.00  0.00    +0.000 NA
ATOM     22  H   UNL     1       8.488   3.988  16.035  0.00  0.00    +0.000 HD
ENDBRANCH  16  17
ENDBRANCH   1  16
TORSDOF 5
ENDMDL
MODEL 2
REMARK VINA RESULT:      -7.6      1.096      1.225
REMARK  Name = 
REMARK  5 active torsions:
REMARK  status: ('A' for Active; 'I' for Inactive)
REMARK    1  A    between atoms: C_2  and  C_3
REMARK    2  A    between atoms: C_2  and  C_9
REMARK    3  A    between atoms: C_9  and  S_10
REMARK    4  A    between atoms: C_9  and  C_16
REMARK    5  A    between atoms: S_10  and  C_11
REMARK                            x       y       z     vdW  Elec       q    Type
REMARK                         _______ _______ _______ _____ _____    ______ ____
ROOT
ATOM      1  C   UNL     1       3.970   5.739  18.022  0.00  0.00    +0.000 C 
ENDROOT
BRANCH   1   2
ATOM      2  C   UNL     1       3.002   6.856  18.427  0.00  0.00    +0.000 A 
ATOM      3  C   UNL     1       2.700   7.889  17.516  0.00  0.00    +0.000 A 
ATOM      4  C   UNL     1       1.917   8.984  17.901  0.00  0.00    +0.000 A 
ATOM      5  C   UNL     1       1.422   9.071  19.200  0.00  0.00    +0.000 A 
ATOM      6  C   UNL     1       1.646   8.029  20.088  0.00  0.00    +0.000 A 
ATOM      7  C   UNL     1       2.397   6.922  19.692  0.00  0.00    +0.000 A 
ENDBRANCH   1   2
BRANCH   1   9
ATOM      8  O   UNL     1       3.384   3.688  16.800  0.00  0.00    +0.000 OA
ATOM      9  C   UNL     1       3.343   4.343  17.847  0.00  0.00    +0.000 C 
BRANCH   9  10
ATOM     10  C   UNL     1       2.620   3.679  18.978  0.00  0.00    +0.000 A 
ATOM     11  C   UNL     1       1.231   3.548  19.026  0.00  0.00    +0.000 A 
ATOM     12  C   UNL     1       0.614   3.117  20.205  0.00  0.00    +0.000 A 
ATOM     13  C   UNL     1       1.379   2.776  21.320  0.00  0.00    +0.000 A 
ATOM     14  C   UNL     1       2.768   2.831  21.257  0.00  0.00    +0.000 A 
ATOM     15  C   UNL     1       3.385   3.285  20.092  0.00  0.00    +0.000 A 
ENDBRANCH   9  10
ENDBRANCH   1   9
BRANCH   1  16
ATOM     16  S   UNL     1       5.027   6.192  16.610  0.00  0.00    +0.000 S 
BRANCH  16  17
ATOM     17  C   UNL     1       6.503   6.631  17.402  0.00  0.00    +0.000 A 
ATOM     18  N   UNL     1       7.058   5.891  18.408  0.00  0.00    +0.000 NA
ATOM     19  C   UNL     1       8.083   6.621  18.781  0.00  0.00    +0.000 A 
ATOM     20  N   UNL     1       8.112   7.764  18.045  0.00  0.00    +0.000 N 
ATOM     21  N   UNL     1       7.094   7.806  17.175  0.00  0.00    +0.000 NA
ATOM     22  H   UNL     1       8.759   8.543  18.090  0.00  0.00    +0.000 HD
ENDBRANCH  16  17
ENDBRANCH   1  16
TORSDOF 5
ENDMDL
MODEL 3
REMARK VINA RESULT:      -7.6      1.503      2.115
REMARK  Name = 
REMARK  5 active torsions:
REMARK  status: ('A' for Active; 'I' for Inactive)
REMARK    1  A    between atoms: C_2  and  C_3
REMARK    2  A    between atoms: C_2  and  C_9
REMARK    3  A    between atoms: C_9  and  S_10
REMARK    4  A    between atoms: C_9  and  C_16
REMARK    5  A    between atoms: S_10  and  C_11
REMARK                            x       y       z     vdW  Elec       q    Type
REMARK                         _______ _______ _______ _____ _____    ______ ____
ROOT
ATOM      1  C   UNL     1       4.715   5.040  18.240  0.00  0.00    +0.000 C 
ENDROOT
BRANCH   1   2
ATOM      2  C   UNL     1       3.791   6.248  18.430  0.00  0.00    +0.000 A 
ATOM      3  C   UNL     1       3.074   6.403  19.635  0.00  0.00    +0.000 A 
ATOM      4  C   UNL     1       2.134   7.429  19.789  0.00  0.00    +0.000 A 
ATOM      5  C   UNL     1       1.889   8.317  18.745  0.00  0.00    +0.000 A 
ATOM      6  C   UNL     1       2.637   8.228  17.579  0.00  0.00    +0.000 A 
ATOM      7  C   UNL     1       3.598   7.227  17.442  0.00  0.00    +0.000 A 
ENDBRANCH   1   2
BRANCH   1   9
ATOM      8  O   UNL     1       4.217   2.877  17.186  0.00  0.00    +0.000 OA
ATOM      9  C   UNL     1       4.011   3.677  18.104  0.00  0.00    +0.000 C 
BRANCH   9  10
ATOM     10  C   UNL     1       2.999   3.231  19.114  0.00  0.00    +0.000 A 
ATOM     11  C   UNL     1       1.622   3.275  18.889  0.00  0.00    +0.000 A 
ATOM     12  C   UNL     1       0.738   3.052  19.949  0.00  0.00    +0.000 A 
ATOM     13  C   UNL     1       1.220   2.742  21.220  0.00  0.00    +0.000 A 
ATOM     14  C   UNL     1       2.589   2.620  21.437  0.00  0.00    +0.000 A 
ATOM     15  C   UNL     1       3.474   2.868  20.389  0.00  0.00    +0.000 A 
ENDBRANCH   9  10
ENDBRANCH   1   9
BRANCH   1  16
ATOM     16  S   UNL     1       5.960   5.296  16.938  0.00  0.00    +0.000 S 
BRANCH  16  17
ATOM     17  C   UNL     1       6.994   6.480  17.667  0.00  0.00    +0.000 A 
ATOM     18  N   UNL     1       7.196   7.722  17.134  0.00  0.00    +0.000 NA
ATOM     19  C   UNL     1       8.105   8.239  17.927  0.00  0.00    +0.000 A 
ATOM     20  N   UNL     1       8.451   7.324  18.871  0.00  0.00    +0.000 N 
ATOM     21  N   UNL     1       7.773   6.180  18.708  0.00  0.00    +0.000 NA
ATOM     22  H   UNL     1       9.130   7.396  19.621  0.00  0.00    +0.000 HD
ENDBRANCH  16  17
ENDBRANCH   1  16
TORSDOF 5
ENDMDL
MODEL 4
REMARK VINA RESULT:      -7.6      2.754      4.749
REMARK  Name = 
REMARK  5 active torsions:
REMARK  status: ('A' for Active; 'I' for Inactive)
REMARK    1  A    between atoms: C_2  and  C_3
REMARK    2  A    between atoms: C_2  and  C_9
REMARK    3  A    between atoms: C_9  and  S_10
REMARK    4  A    between atoms: C_9  and  C_16
REMARK    5  A    between atoms: S_10  and  C_11
REMARK                            x       y       z     vdW  Elec       q    Type
REMARK                         _______ _______ _______ _____ _____    ______ ____
ROOT
ATOM      1  C   UNL     1       2.813   5.826  17.819  0.00  0.00    +0.000 C 
ENDROOT
BRANCH   1   2
ATOM      2  C   UNL     1       4.202   5.605  17.212  0.00  0.00    +0.000 A 
ATOM      3  C   UNL     1       4.469   4.434  16.473  0.00  0.00    +0.000 A 
ATOM      4  C   UNL     1       5.760   4.150  16.011  0.00  0.00    +0.000 A 
ATOM      5  C   UNL     1       6.808   5.026  16.279  0.00  0.00    +0.000 A 
ATOM      6  C   UNL     1       6.552   6.219  16.940  0.00  0.00    +0.000 A 
ATOM      7  C   UNL     1       5.258   6.517  17.367  0.00  0.00    +0.000 A 
ENDBRANCH   1   2
BRANCH   1   9
ATOM      8  O   UNL     1       1.144   4.155  17.137  0.00  0.00    +0.000 OA
ATOM      9  C   UNL     1       1.947   4.562  17.982  0.00  0.00    +0.000 C 
BRANCH   9  10
ATOM     10  C   UNL     1       2.033   3.728  19.223  0.00  0.00    +0.000 A 
ATOM     11  C   UNL     1       1.007   3.653  20.167  0.00  0.00    +0.000 A 
ATOM     12  C   UNL     1       1.242   3.034  21.399  0.00  0.00    +0.000 A 
ATOM     13  C   UNL     1       2.479   2.452  21.676  0.00  0.00    +0.000 A 
ATOM     14  C   UNL     1       3.482   2.454  20.712  0.00  0.00    +0.000 A 
ATOM     15  C   UNL     1       3.261   3.094  19.492  0.00  0.00    +0.000 A 
ENDBRANCH   9  10
ENDBRANCH   1   9
BRANCH   1  16
ATOM     16  S   UNL     1       2.852   6.824  19.340  0.00  0.00    +0.000 S 
BRANCH  16  17
ATOM     17  C   UNL     1       2.111   8.299  18.813  0.00  0.00    +0.000 A 
ATOM     18  N   UNL     1       1.242   9.014  19.588  0.00  0.00    +0.000 NA
ATOM     19  C   UNL     1       0.851   9.974  18.783  0.00  0.00    +0.000 A 
ATOM     20  N   UNL     1       1.442   9.812  17.569  0.00  0.00    +0.000 N 
ATOM     21  N   UNL     1       2.232   8.730  17.555  0.00  0.00    +0.000 NA
ATOM     22  H   UNL     1       1.345  10.366  16.725  0.00  0.00    +0.000 HD
ENDBRANCH  16  17
ENDBRANCH   1  16
TORSDOF 5
ENDMDL
MODEL 5
REMARK VINA RESULT:      -7.5      2.779      5.571
REMARK  Name = 
REMARK  5 active torsions:
REMARK  status: ('A' for Active; 'I' for Inactive)
REMARK    1  A    between atoms: C_2  and  C_3
REMARK    2  A    between atoms: C_2  and  C_9
REMARK    3  A    between atoms: C_9  and  S_10
REMARK    4  A    between atoms: C_9  and  C_16
REMARK    5  A    between atoms: S_10  and  C_11
REMARK                            x       y       z     vdW  Elec       q    Type
REMARK                         _______ _______ _______ _____ _____    ______ ____
ROOT
ATOM      1  C   UNL     1       4.072   5.093  19.084  0.00  0.00    +0.000 C 
ENDROOT
BRANCH   1   2
ATOM      2  C   UNL     1       5.414   5.678  18.632  0.00  0.00    +0.000 A 
ATOM      3  C   UNL     1       6.583   5.413  19.374  0.00  0.00    +0.000 A 
ATOM      4  C   UNL     1       7.798   6.032  19.054  0.00  0.00    +0.000 A 
ATOM      5  C   UNL     1       7.869   6.928  17.991  0.00  0.00    +0.000 A 
ATOM      6  C   UNL     1       6.748   7.146  17.202  0.00  0.00    +0.000 A 
ATOM      7  C   UNL     1       5.548   6.500  17.501  0.00  0.00    +0.000 A 
ENDBRANCH   1   2
BRANCH   1   9
ATOM      8  O   UNL     1       2.129   5.190  17.582  0.00  0.00    +0.000 OA
ATOM      9  C   UNL     1       2.819   5.729  18.453  0.00  0.00    +0.000 C 
BRANCH   9  10
ATOM     10  C   UNL     1       2.354   7.089  18.875  0.00  0.00    +0.000 A 
ATOM     11  C   UNL     1       1.932   7.384  20.173  0.00  0.00    +0.000 A 
ATOM     12  C   UNL     1       1.308   8.608  20.438  0.00  0.00    +0.000 A 
ATOM     13  C   UNL     1       1.143   9.553  19.426  0.00  0.00    +0.000 A 
ATOM     14  C   UNL     1       1.628   9.298  18.147  0.00  0.00    +0.000 A 
ATOM     15  C   UNL     1       2.227   8.070  17.872  0.00  0.00    +0.000 A 
ENDBRANCH   9  10
ENDBRANCH   1   9
BRANCH   1  16
ATOM     16  S   UNL     1       4.026   3.275  19.003  0.00  0.00    +0.000 S 
BRANCH  16  17
ATOM     17  C   UNL     1       2.887   2.896  20.251  0.00  0.00    +0.000 A 
ATOM     18  N   UNL     1       1.539   3.067  20.107  0.00  0.00    +0.000 NA
ATOM     19  C   UNL     1       1.074   2.765  21.297  0.00  0.00    +0.000 A 
ATOM     20  N   UNL     1       2.112   2.459  22.121  0.00  0.00    +0.000 N 
ATOM     21  N   UNL     1       3.285   2.563  21.481  0.00  0.00    +0.000 NA
ATOM     22  H   UNL     1       2.102   2.198  23.100  0.00  0.00    +0.000 HD
ENDBRANCH  16  17
ENDBRANCH   1  16
TORSDOF 5
ENDMDL
MODEL 6
REMARK VINA RESULT:      -7.5      2.750      4.734
REMARK  Name = 
REMARK  5 active torsions:
REMARK  status: ('A' for Active; 'I' for Inactive)
REMARK    1  A    between atoms: C_2  and  C_3
REMARK    2  A    between atoms: C_2  and  C_9
REMARK    3  A    between atoms: C_9  and  S_10
REMARK    4  A    between atoms: C_9  and  C_16
REMARK    5  A    between atoms: S_10  and  C_11
REMARK                            x       y       z     vdW  Elec       q    Type
REMARK                         _______ _______ _______ _____ _____    ______ ____
ROOT
ATOM      1  C   UNL     1       2.813   5.785  17.824  0.00  0.00    +0.000 C 
ENDROOT
BRANCH   1   2
ATOM      2  C   UNL     1       4.201   5.538  17.224  0.00  0.00    +0.000 A 
ATOM      3  C   UNL     1       5.223   6.494  17.399  0.00  0.00    +0.000 A 
ATOM      4  C   UNL     1       6.462   6.352  16.762  0.00  0.00    +0.000 A 
ATOM      5  C   UNL     1       6.703   5.257  15.936  0.00  0.00    +0.000 A 
ATOM      6  C   UNL     1       5.738   4.269  15.809  0.00  0.00    +0.000 A 
ATOM      7  C   UNL     1       4.518   4.394  16.474  0.00  0.00    +0.000 A 
ENDBRANCH   1   2
BRANCH   1   9
ATOM      8  O   UNL     1       1.112   4.144  17.149  0.00  0.00    +0.000 OA
ATOM      9  C   UNL     1       1.926   4.536  17.991  0.00  0.00    +0.000 C 
BRANCH   9  10
ATOM     10  C   UNL     1       2.005   3.700  19.230  0.00  0.00    +0.000 A 
ATOM     11  C   UNL     1       0.970   3.616  20.164  0.00  0.00    +0.000 A 
ATOM     12  C   UNL     1       1.195   2.995  21.397  0.00  0.00    +0.000 A 
ATOM     13  C   UNL     1       2.433   2.420  21.684  0.00  0.00    +0.000 A 
ATOM     14  C   UNL     1       3.446   2.430  20.730  0.00  0.00    +0.000 A 
ATOM     15  C   UNL     1       3.233   3.071  19.511  0.00  0.00    +0.000 A 
ENDBRANCH   9  10
ENDBRANCH   1   9
BRANCH   1  16
ATOM     16  S   UNL     1       2.863   6.791  19.340  0.00  0.00    +0.000 S 
BRANCH  16  17
ATOM     17  C   UNL     1       2.130   8.267  18.807  0.00  0.00    +0.000 A 
ATOM     18  N   UNL     1       1.243   8.977  19.567  0.00  0.00    +0.000 NA
ATOM     19  C   UNL     1       0.868   9.941  18.760  0.00  0.00    +0.000 A 
ATOM     20  N   UNL     1       1.484   9.787  17.557  0.00  0.00    +0.000 N 
ATOM     21  N   UNL     1       2.276   8.707  17.554  0.00  0.00    +0.000 NA
ATOM     22  H   UNL     1       1.405  10.347  16.716  0.00  0.00    +0.000 HD
ENDBRANCH  16  17
ENDBRANCH   1  16
TORSDOF 5
ENDMDL
MODEL 7
REMARK VINA RESULT:      -7.5      1.125      1.616
REMARK  Name = 
REMARK  5 active torsions:
REMARK  status: ('A' for Active; 'I' for Inactive)
REMARK    1  A    between atoms: C_2  and  C_3
REMARK    2  A    between atoms: C_2  and  C_9
REMARK    3  A    between atoms: C_9  and  S_10
REMARK    4  A    between atoms: C_9  and  C_16
REMARK    5  A    between atoms: S_10  and  C_11
REMARK                            x       y       z     vdW  Elec       q    Type
REMARK                         _______ _______ _______ _____ _____    ______ ____
ROOT
ATOM      1  C   UNL     1       3.985   5.383  18.031  0.00  0.00    +0.000 C 
ENDROOT
BRANCH   1   2
ATOM      2  C   UNL     1       3.204   6.646  18.409  0.00  0.00    +0.000 A 
ATOM      3  C   UNL     1       2.609   6.750  19.683  0.00  0.00    +0.000 A 
ATOM      4  C   UNL     1       1.790   7.837  20.011  0.00  0.00    +0.000 A 
ATOM      5  C   UNL     1       1.546   8.838  19.075  0.00  0.00    +0.000 A 
ATOM      6  C   UNL     1       2.180   8.792  17.841  0.00  0.00    +0.000 A 
ATOM      7  C   UNL     1       3.025   7.726  17.530  0.00  0.00    +0.000 A 
ENDBRANCH   1   2
BRANCH   1   9
ATOM      8  O   UNL     1       2.945   3.493  16.853  0.00  0.00    +0.000 OA
ATOM      9  C   UNL     1       3.153   4.093  17.912  0.00  0.00    +0.000 C 
BRANCH   9  10
ATOM     10  C   UNL     1       2.524   3.472  19.122  0.00  0.00    +0.000 A 
ATOM     11  C   UNL     1       1.144   3.410  19.320  0.00  0.00    +0.000 A 
ATOM     12  C   UNL     1       0.638   3.016  20.563  0.00  0.00    +0.000 A 
ATOM     13  C   UNL     1       1.501   2.644  21.594  0.00  0.00    +0.000 A 
ATOM     14  C   UNL     1       2.876   2.629  21.381  0.00  0.00    +0.000 A 
ATOM     15  C   UNL     1       3.385   3.045  20.151  0.00  0.00    +0.000 A 
ENDBRANCH   9  10
ENDBRANCH   1   9
BRANCH   1  16
ATOM     16  S   UNL     1       5.073   5.625  16.590  0.00  0.00    +0.000 S 
BRANCH  16  17
ATOM     17  C   UNL     1       6.474   6.333  17.322  0.00  0.00    +0.000 A 
ATOM     18  N   UNL     1       7.109   5.784  18.401  0.00  0.00    +0.000 NA
ATOM     19  C   UNL     1       8.030   6.675  18.687  0.00  0.00    +0.000 A 
ATOM     20  N   UNL     1       7.920   7.725  17.829  0.00  0.00    +0.000 N 
ATOM     21  N   UNL     1       6.913   7.542  16.965  0.00  0.00    +0.000 NA
ATOM     22  H   UNL     1       8.463   8.580  17.785  0.00  0.00    +0.000 HD
ENDBRANCH  16  17
ENDBRANCH   1  16
TORSDOF 5
ENDMDL
MODEL 8
REMARK VINA RESULT:      -7.5      2.720      4.541
REMARK  Name = 
REMARK  5 active torsions:
REMARK  status: ('A' for Active; 'I' for Inactive)
REMARK    1  A    between atoms: C_2  and  C_3
REMARK    2  A    between atoms: C_2  and  C_9
REMARK    3  A    between atoms: C_9  and  S_10
REMARK    4  A    between atoms: C_9  and  C_16
REMARK    5  A    between atoms: S_10  and  C_11
REMARK                            x       y       z     vdW  Elec       q    Type
REMARK                         _______ _______ _______ _____ _____    ______ ____
ROOT
ATOM      1  C   UNL     1       2.673   5.882  18.751  0.00  0.00    +0.000 C 
ENDROOT
BRANCH   1   2
ATOM      2  C   UNL     1       2.196   7.317  18.994  0.00  0.00    +0.000 A 
ATOM      3  C   UNL     1       1.741   7.700  20.273  0.00  0.00    +0.000 A 
ATOM      4  C   UNL     1       1.187   8.967  20.493  0.00  0.00    +0.000 A 
ATOM      5  C   UNL     1       1.073   9.874  19.443  0.00  0.00    +0.000 A 
ATOM      6  C   UNL     1       1.581   9.544  18.194  0.00  0.00    +0.000 A 
ATOM      7  C   UNL     1       2.165   8.294  17.986  0.00  0.00    +0.000 A 
ENDBRANCH   1   2
BRANCH   1   9
ATOM      8  O   UNL     1       4.954   5.695  19.649  0.00  0.00    +0.000 OA
ATOM      9  C   UNL     1       4.200   5.690  18.670  0.00  0.00    +0.000 C 
BRANCH   9  10
ATOM     10  C   UNL     1       4.878   5.482  17.352  0.00  0.00    +0.000 A 
ATOM     11  C   UNL     1       5.000   6.484  16.387  0.00  0.00    +0.000 A 
ATOM     12  C   UNL     1       5.447   6.160  15.102  0.00  0.00    +0.000 A 
ATOM     13  C   UNL     1       5.815   4.852  14.789  0.00  0.00    +0.000 A 
ATOM     14  C   UNL     1       5.771   3.862  15.766  0.00  0.00    +0.000 A 
ATOM     15  C   UNL     1       5.300   4.175  17.040  0.00  0.00    +0.000 A 
ENDBRANCH   9  10
ENDBRANCH   1   9
BRANCH   1  16
ATOM     16  S   UNL     1       1.895   4.674  19.869  0.00  0.00    +0.000 S 
BRANCH  16  17
ATOM     17  C   UNL     1       2.331   3.172  19.124  0.00  0.00    +0.000 A 
ATOM     18  N   UNL     1       3.348   2.382  19.580  0.00  0.00    +0.000 NA
ATOM     19  C   UNL     1       3.401   1.423  18.686  0.00  0.00    +0.000 A 
ATOM     20  N   UNL     1       2.472   1.657  17.720  0.00  0.00    +0.000 N 
ATOM     21  N   UNL     1       1.794   2.786  17.964  0.00  0.00    +0.000 NA
ATOM     22  H   UNL     1       2.262   1.123  16.885  0.00  0.00    +0.000 HD
ENDBRANCH  16  17
ENDBRANCH   1  16
TORSDOF 5
ENDMDL
MODEL 9
REMARK VINA RESULT:      -7.5      0.810      1.589
REMARK  Name = 
REMARK  5 active torsions:
REMARK  status: ('A' for Active; 'I' for Inactive)
REMARK    1  A    between atoms: C_2  and  C_3
REMARK    2  A    between atoms: C_2  and  C_9
REMARK    3  A    between atoms: C_9  and  S_10
REMARK    4  A    between atoms: C_9  and  C_16
REMARK    5  A    between atoms: S_10  and  C_11
REMARK                            x       y       z     vdW  Elec       q    Type
REMARK                         _______ _______ _______ _____ _____    ______ ____
ROOT
ATOM      1  C   UNL     1       3.159   6.321  18.504  0.00  0.00    +0.000 C 
ENDROOT
BRANCH   1   2
ATOM      2  C   UNL     1       2.378   7.601  18.814  0.00  0.00    +0.000 A 
ATOM      3  C   UNL     1       1.883   7.826  20.115  0.00  0.00    +0.000 A 
ATOM      4  C   UNL     1       1.064   8.927  20.396  0.00  0.00    +0.000 A 
ATOM      5  C   UNL     1       0.721   9.821  19.386  0.00  0.00    +0.000 A 
ATOM      6  C   UNL     1       1.257   9.659  18.116  0.00  0.00    +0.000 A 
ATOM      7  C   UNL     1       2.102   8.582  17.847  0.00  0.00    +0.000 A 
ENDBRANCH   1   2
BRANCH   1   9
ATOM      8  O   UNL     1       1.637   4.765  17.362  0.00  0.00    +0.000 OA
ATOM      9  C   UNL     1       2.314   5.041  18.357  0.00  0.00    +0.000 C 
BRANCH   9  10
ATOM     10  C   UNL     1       2.264   4.025  19.456  0.00  0.00    +0.000 A 
ATOM     11  C   UNL     1       1.193   3.913  20.346  0.00  0.00    +0.000 A 
ATOM     12  C   UNL     1       1.311   3.094  21.474  0.00  0.00    +0.000 A 
ATOM     13  C   UNL     1       2.473   2.354  21.694  0.00  0.00    +0.000 A 
ATOM     14  C   UNL     1       3.514   2.400  20.772  0.00  0.00    +0.000 A 
ATOM     15  C   UNL     1       3.411   3.235  19.661  0.00  0.00    +0.000 A 
ENDBRANCH   9  10
ENDBRANCH   1   9
BRANCH   1  16
ATOM     16  S   UNL     1       4.335   6.520  17.128  0.00  0.00    +0.000 S 
BRANCH  16  17
ATOM     17  C   UNL     1       5.757   5.766  17.768  0.00  0.00    +0.000 A 
ATOM     18  N   UNL     1       6.736   5.232  16.978  0.00  0.00    +0.000 NA
ATOM     19  C   UNL     1       7.553   4.686  17.849  0.00  0.00    +0.000 A 
ATOM     20  N   UNL     1       7.056   4.862  19.103  0.00  0.00    +0.000 N 
ATOM     21  N   UNL     1       5.893   5.527  19.074  0.00  0.00    +0.000 NA
ATOM     22  H   UNL     1       7.429   4.553  19.994  0.00  0.00    +0.000 HD
ENDBRANCH  16  17
ENDBRANCH   1  16
TORSDOF 5
ENDMDL
