MODEL 1
REMARK VINA RESULT:      -7.7      0.000      0.000
REMARK  Name = 
REMARK  8 active torsions:
REMARK  status: ('A' for Active; 'I' for Inactive)
REMARK    1  A    between atoms: C_1  and  C_2
REMARK    2  A    between atoms: C_2  and  C_3
REMARK    3  A    between atoms: C_3  and  C_4
REMARK    4  A    between atoms: C_9  and  N_10
REMARK    5  A    between atoms: N_10  and  S_11
REMARK    6  A    between atoms: S_11  and  C_14
REMARK    7  A    between atoms: C_17  and  N_18
REMARK    8  A    between atoms: C_19  and  C_21
REMARK                            x       y       z     vdW  Elec       q    Type
REMARK                         _______ _______ _______ _____ _____    ______ ____
ROOT
ATOM      1  C   UNL     1       1.824   8.069  19.173  0.00  0.00    +0.000 A 
ATOM      2  C   UNL     1       2.238   8.744  18.017  0.00  0.00    +0.000 A 
ATOM      3  C   UNL     1       1.956  10.093  17.840  0.00  0.00    +0.000 A 
ATOM      4  C   UNL     1       1.279  10.825  18.818  0.00  0.00    +0.000 A 
ATOM      5  C   UNL     1       0.826  10.157  20.003  0.00  0.00    +0.000 A 
ATOM      6  C   UNL     1       0.091  10.830  21.018  0.00  0.00    +0.000 A 
ATOM      7  C   UNL     1      -0.376  10.187  22.164  0.00  0.00    +0.000 A 
ATOM      8  C   UNL     1      -0.130   8.842  22.336  0.00  0.00    +0.000 A 
ATOM      9  C   UNL     1       0.591   8.146  21.368  0.00  0.00    +0.000 A 
ATOM     10  C   UNL     1       1.091   8.755  20.186  0.00  0.00    +0.000 A 
ENDROOT
BRANCH   4  11
ATOM     11  N   UNL     1       1.078  12.228  18.642  0.00  0.00    +0.000 N 
ATOM     12  C   UNL     1       1.729  13.265  19.301  0.00  0.00    +0.000 C 
ATOM     13  O   UNL     1       2.632  13.156  20.121  0.00  0.00    +0.000 OA
ATOM     14  H   UNL     1       0.404  12.541  17.950  0.00  0.00    +0.000 HD
BRANCH  12  15
ATOM     15  C   UNL     1       1.290  14.638  18.903  0.00  0.00    +0.000 A 
ATOM     16  C   UNL     1      -0.057  14.974  18.970  0.00  0.00    +0.000 A 
ATOM     17  N   UNL     1      -0.513  16.220  18.672  0.00  0.00    +0.000 NA
ATOM     18  C   UNL     1       0.437  17.109  18.306  0.00  0.00    +0.000 A 
ATOM     19  C   UNL     1       1.780  16.769  18.227  0.00  0.00    +0.000 A 
ATOM     20  N   UNL     1       2.250  15.529  18.522  0.00  0.00    +0.000 NA
ENDBRANCH  12  15
ENDBRANCH   4  11
BRANCH   1  21
ATOM     21  S   UNL     1       2.401   6.359  19.270  0.00  0.00    +0.000 S 
ATOM     22  O   UNL     1       1.316   5.419  19.191  0.00  0.00    +0.000 OA
ATOM     23  O   UNL     1       3.337   6.335  20.374  0.00  0.00    +0.000 OA
BRANCH  21  24
ATOM     24  N   UNL     1       3.338   6.170  17.862  0.00  0.00    +0.000 NA
ATOM     25  H   UNL     1       2.776   5.908  17.057  0.00  0.00    +0.000 HD
BRANCH  24  31
ATOM     26  C   UNL     1       6.619   4.775  14.388  0.00  0.00    +0.000 C 
ATOM     27  O   UNL     1       7.606   5.464  14.152  0.00  0.00    +0.000 OA
ATOM     28  N   UNL     1       5.622   5.181  15.270  0.00  0.00    +0.000 N 
ATOM     29  C   UNL     1       5.673   6.521  15.852  0.00  0.00    +0.000 C 
ATOM     30  C   UNL     1       5.762   6.445  17.374  0.00  0.00    +0.000 C 
ATOM     31  C   UNL     1       4.676   5.536  17.972  0.00  0.00    +0.000 C 
ATOM     32  C   UNL     1       4.715   4.172  17.293  0.00  0.00    +0.000 C 
ATOM     33  C   UNL     1       4.574   4.308  15.782  0.00  0.00    +0.000 C 
BRANCH  26  34
ATOM     34  C   UNL     1       6.399   3.430  13.716  0.00  0.00    +0.000 C 
BRANCH  34  36
ATOM     35  C   UNL     1       5.837   2.227  11.597  0.00  0.00    +0.000 C 
ATOM     36  C   UNL     1       5.784   3.557  12.329  0.00  0.00    +0.000 C 
ENDBRANCH  34  36
ENDBRANCH  26  34
ENDBRANCH  24  31
ENDBRANCH  21  24
ENDBRANCH   1  21
TORSDOF 7
ENDMDL
MODEL 2
REMARK VINA RESULT:      -7.7      2.718      3.565
REMARK  Name = 
REMARK  8 active torsions:
REMARK  status: ('A' for Active; 'I' for Inactive)
REMARK    1  A    between atoms: C_1  and  C_2
REMARK    2  A    between atoms: C_2  and  C_3
REMARK    3  A    between atoms: C_3  and  C_4
REMARK    4  A    between atoms: C_9  and  N_10
REMARK    5  A    between atoms: N_10  and  S_11
REMARK    6  A    between atoms: S_11  and  C_14
REMARK    7  A    between atoms: C_17  and  N_18
REMARK    8  A    between atoms: C_19  and  C_21
REMARK                            x       y       z     vdW  Elec       q    Type
REMARK                         _______ _______ _______ _____ _____    ______ ____
ROOT
ATOM      1  C   UNL     1       1.612   7.068  20.363  0.00  0.00    +0.000 A 
ATOM      2  C   UNL     1       0.848   7.169  21.534  0.00  0.00    +0.000 A 
ATOM      3  C   UNL     1       0.173   8.343  21.845  0.00  0.00    +0.000 A 
ATOM      4  C   UNL     1       0.209   9.448  20.989  0.00  0.00    +0.000 A 
ATOM      5  C   UNL     1       0.997   9.381  19.794  0.00  0.00    +0.000 A 
ATOM      6  C   UNL     1       1.116  10.482  18.902  0.00  0.00    +0.000 A 
ATOM      7  C   UNL     1       1.898  10.439  17.749  0.00  0.00    +0.000 A 
ATOM      8  C   UNL     1       2.598   9.291  17.445  0.00  0.00    +0.000 A 
ATOM      9  C   UNL     1       2.505   8.186  18.290  0.00  0.00    +0.000 A 
ATOM     10  C   UNL     1       1.720   8.178  19.474  0.00  0.00    +0.000 A 
ENDROOT
BRANCH   4  11
ATOM     11  N   UNL     1      -0.563  10.609  21.297  0.00  0.00    +0.000 N 
ATOM     12  C   UNL     1      -0.813  11.150  22.553  0.00  0.00    +0.000 C 
ATOM     13  O   UNL     1      -0.372  10.747  23.623  0.00  0.00    +0.000 OA
ATOM     14  H   UNL     1      -0.974  11.138  20.533  0.00  0.00    +0.000 HD
BRANCH  12  15
ATOM     15  C   UNL     1      -1.671  12.374  22.552  0.00  0.00    +0.000 A 
ATOM     16  C   UNL     1      -1.144  13.581  22.998  0.00  0.00    +0.000 A 
ATOM     17  N   UNL     1      -1.854  14.740  22.974  0.00  0.00    +0.000 NA
ATOM     18  C   UNL     1      -3.110  14.637  22.485  0.00  0.00    +0.000 A 
ATOM     19  C   UNL     1      -3.639  13.428  22.052  0.00  0.00    +0.000 A 
ATOM     20  N   UNL     1      -2.941  12.264  22.070  0.00  0.00    +0.000 NA
ENDBRANCH  12  15
ENDBRANCH   4  11
BRANCH   1  21
ATOM     21  S   UNL     1       2.301   5.422  20.077  0.00  0.00    +0.000 S 
ATOM     22  O   UNL     1       1.721   4.789  18.923  0.00  0.00    +0.000 OA
ATOM     23  O   UNL     1       2.294   4.776  21.371  0.00  0.00    +0.000 OA
BRANCH  21  24
ATOM     24  N   UNL     1       3.936   5.728  19.718  0.00  0.00    +0.000 NA
ATOM     25  H   UNL     1       4.073   6.638  19.286  0.00  0.00    +0.000 HD
BRANCH  24  31
ATOM     26  C   UNL     1       6.436   5.187  15.447  0.00  0.00    +0.000 C 
ATOM     27  O   UNL     1       7.651   5.351  15.412  0.00  0.00    +0.000 OA
ATOM     28  N   UNL     1       5.684   5.435  16.592  0.00  0.00    +0.000 N 
ATOM     29  C   UNL     1       6.325   6.025  17.765  0.00  0.00    +0.000 C 
ATOM     30  C   UNL     1       6.220   5.090  18.966  0.00  0.00    +0.000 C 
ATOM     31  C   UNL     1       4.777   4.617  19.205  0.00  0.00    +0.000 C 
ATOM     32  C   UNL     1       4.210   4.023  17.921  0.00  0.00    +0.000 C 
ATOM     33  C   UNL     1       4.300   5.018  16.771  0.00  0.00    +0.000 C 
BRANCH  26  34
ATOM     34  C   UNL     1       5.653   4.721  14.231  0.00  0.00    +0.000 C 
BRANCH  34  36
ATOM     35  C   UNL     1       5.578   3.245  12.214  0.00  0.00    +0.000 C 
ATOM     36  C   UNL     1       6.436   3.746  13.363  0.00  0.00    +0.000 C 
ENDBRANCH  34  36
ENDBRANCH  26  34
ENDBRANCH  24  31
ENDBRANCH  21  24
ENDBRANCH   1  21
TORSDOF 7
ENDMDL
MODEL 3
REMARK VINA RESULT:      -7.6      0.861      1.153
REMARK  Name = 
REMARK  8 active torsions:
REMARK  status: ('A' for Active; 'I' for Inactive)
REMARK    1  A    between atoms: C_1  and  C_2
REMARK    2  A    between atoms: C_2  and  C_3
REMARK    3  A    between atoms: C_3  and  C_4
REMARK    4  A    between atoms: C_9  and  N_10
REMARK    5  A    between atoms: N_10  and  S_11
REMARK    6  A    between atoms: S_11  and  C_14
REMARK    7  A    between atoms: C_17  and  N_18
REMARK    8  A    between atoms: C_19  and  C_21
REMARK                            x       y       z     vdW  Elec       q    Type
REMARK                         _______ _______ _______ _____ _____    ______ ____
ROOT
ATOM      1  C   UNL     1       1.908   7.941  19.208  0.00  0.00    +0.000 A 
ATOM      2  C   UNL     1       2.381   8.672  18.110  0.00  0.00    +0.000 A 
ATOM      3  C   UNL     1       2.196  10.047  18.035  0.00  0.00    +0.000 A 
ATOM      4  C   UNL     1       1.558  10.748  19.062  0.00  0.00    +0.000 A 
ATOM      5  C   UNL     1       1.046  10.025  20.189  0.00  0.00    +0.000 A 
ATOM      6  C   UNL     1       0.348  10.668  21.247  0.00  0.00    +0.000 A 
ATOM      7  C   UNL     1      -0.176   9.974  22.337  0.00  0.00    +0.000 A 
ATOM      8  C   UNL     1      -0.026   8.606  22.408  0.00  0.00    +0.000 A 
ATOM      9  C   UNL     1       0.657   7.937  21.394  0.00  0.00    +0.000 A 
ATOM     10  C   UNL     1       1.212   8.598  20.265  0.00  0.00    +0.000 A 
ENDROOT
BRANCH   4  11
ATOM     11  N   UNL     1       1.457  12.171  18.993  0.00  0.00    +0.000 N 
ATOM     12  C   UNL     1       0.351  12.923  18.615  0.00  0.00    +0.000 C 
ATOM     13  O   UNL     1      -0.757  12.494  18.318  0.00  0.00    +0.000 OA
ATOM     14  H   UNL     1       2.261  12.730  19.264  0.00  0.00    +0.000 HD
BRANCH  12  15
ATOM     15  C   UNL     1       0.559  14.403  18.635  0.00  0.00    +0.000 A 
ATOM     16  C   UNL     1       1.851  14.915  18.611  0.00  0.00    +0.000 A 
ATOM     17  N   UNL     1       2.106  16.250  18.574  0.00  0.00    +0.000 NA
ATOM     18  C   UNL     1       1.014  17.046  18.563  0.00  0.00    +0.000 A 
ATOM     19  C   UNL     1      -0.276  16.534  18.600  0.00  0.00    +0.000 A 
ATOM     20  N   UNL     1      -0.545  15.203  18.636  0.00  0.00    +0.000 NA
ENDBRANCH  12  15
ENDBRANCH   4  11
BRANCH   1  21
ATOM     21  S   UNL     1       2.364   6.193  19.177  0.00  0.00    +0.000 S 
ATOM     22  O   UNL     1       1.220   5.341  18.993  0.00  0.00    +0.000 OA
ATOM     23  O   UNL     1       3.261   6.014  20.298  0.00  0.00    +0.000 OA
BRANCH  21  24
ATOM     24  N   UNL     1       3.329   6.054  17.783  0.00  0.00    +0.000 NA
ATOM     25  H   UNL     1       2.786   5.803  16.960  0.00  0.00    +0.000 HD
BRANCH  24  31
ATOM     26  C   UNL     1       6.701   4.810  14.338  0.00  0.00    +0.000 C 
ATOM     27  O   UNL     1       7.681   5.520  14.142  0.00  0.00    +0.000 OA
ATOM     28  N   UNL     1       5.680   5.174  15.211  0.00  0.00    +0.000 N 
ATOM     29  C   UNL     1       5.697   6.497  15.832  0.00  0.00    +0.000 C 
ATOM     30  C   UNL     1       5.758   6.380  17.352  0.00  0.00    +0.000 C 
ATOM     31  C   UNL     1       4.675   5.437  17.902  0.00  0.00    +0.000 C 
ATOM     32  C   UNL     1       4.749   4.094  17.185  0.00  0.00    +0.000 C 
ATOM     33  C   UNL     1       4.636   4.271  15.676  0.00  0.00    +0.000 C 
BRANCH  26  34
ATOM     34  C   UNL     1       6.516   3.481  13.623  0.00  0.00    +0.000 C 
BRANCH  34  36
ATOM     35  C   UNL     1       4.909   3.146  11.737  0.00  0.00    +0.000 C 
ATOM     36  C   UNL     1       6.290   3.643  12.127  0.00  0.00    +0.000 C 
ENDBRANCH  34  36
ENDBRANCH  26  34
ENDBRANCH  24  31
ENDBRANCH  21  24
ENDBRANCH   1  21
TORSDOF 7
ENDMDL
MODEL 4
REMARK VINA RESULT:      -7.6      1.228      1.533
REMARK  Name = 
REMARK  8 active torsions:
REMARK  status: ('A' for Active; 'I' for Inactive)
REMARK    1  A    between atoms: C_1  and  C_2
REMARK    2  A    between atoms: C_2  and  C_3
REMARK    3  A    between atoms: C_3  and  C_4
REMARK    4  A    between atoms: C_9  and  N_10
REMARK    5  A    between atoms: N_10  and  S_11
REMARK    6  A    between atoms: S_11  and  C_14
REMARK    7  A    between atoms: C_17  and  N_18
REMARK    8  A    between atoms: C_19  and  C_21
REMARK                            x       y       z     vdW  Elec       q    Type
REMARK                         _______ _______ _______ _____ _____    ______ ____
ROOT
ATOM      1  C   UNL     1       1.678   8.118  19.458  0.00  0.00    +0.000 A 
ATOM      2  C   UNL     1       2.186   8.795  18.341  0.00  0.00    +0.000 A 
ATOM      3  C   UNL     1       2.048  10.172  18.218  0.00  0.00    +0.000 A 
ATOM      4  C   UNL     1       1.426  10.929  19.215  0.00  0.00    +0.000 A 
ATOM      5  C   UNL     1       0.879  10.262  20.360  0.00  0.00    +0.000 A 
ATOM      6  C   UNL     1       0.193  10.963  21.389  0.00  0.00    +0.000 A 
ATOM      7  C   UNL     1      -0.364  10.324  22.496  0.00  0.00    +0.000 A 
ATOM      8  C   UNL     1      -0.261   8.955  22.614  0.00  0.00    +0.000 A 
ATOM      9  C   UNL     1       0.409   8.230  21.629  0.00  0.00    +0.000 A 
ATOM     10  C   UNL     1       0.996   8.833  20.485  0.00  0.00    +0.000 A 
ENDROOT
BRANCH   4  11
ATOM     11  N   UNL     1       1.373  12.351  19.098  0.00  0.00    +0.000 N 
ATOM     12  C   UNL     1       0.303  13.125  18.664  0.00  0.00    +0.000 C 
ATOM     13  O   UNL     1      -0.810  12.722  18.349  0.00  0.00    +0.000 OA
ATOM     14  H   UNL     1       2.187  12.893  19.373  0.00  0.00    +0.000 HD
BRANCH  12  15
ATOM     15  C   UNL     1       0.559  14.598  18.643  0.00  0.00    +0.000 A 
ATOM     16  C   UNL     1       1.866  15.067  18.578  0.00  0.00    +0.000 A 
ATOM     17  N   UNL     1       2.163  16.391  18.503  0.00  0.00    +0.000 NA
ATOM     18  C   UNL     1       1.097  17.222  18.495  0.00  0.00    +0.000 A 
ATOM     19  C   UNL     1      -0.208  16.753  18.572  0.00  0.00    +0.000 A 
ATOM     20  N   UNL     1      -0.519  15.433  18.647  0.00  0.00    +0.000 NA
ENDBRANCH  12  15
ENDBRANCH   4  11
BRANCH   1  21
ATOM     21  S   UNL     1       2.076   6.355  19.490  0.00  0.00    +0.000 S 
ATOM     22  O   UNL     1       1.620   5.679  18.305  0.00  0.00    +0.000 OA
ATOM     23  O   UNL     1       1.691   5.902  20.809  0.00  0.00    +0.000 OA
BRANCH  21  24
ATOM     24  N   UNL     1       3.777   6.327  19.466  0.00  0.00    +0.000 NA
ATOM     25  H   UNL     1       4.169   7.102  18.938  0.00  0.00    +0.000 HD
BRANCH  24  31
ATOM     26  C   UNL     1       6.680   4.473  15.872  0.00  0.00    +0.000 C 
ATOM     27  O   UNL     1       7.899   4.449  16.007  0.00  0.00    +0.000 OA
ATOM     28  N   UNL     1       5.840   5.080  16.801  0.00  0.00    +0.000 N 
ATOM     29  C   UNL     1       6.416   5.826  17.918  0.00  0.00    +0.000 C 
ATOM     30  C   UNL     1       5.992   5.215  19.251  0.00  0.00    +0.000 C 
ATOM     31  C   UNL     1       4.469   5.019  19.338  0.00  0.00    +0.000 C 
ATOM     32  C   UNL     1       3.981   4.235  18.127  0.00  0.00    +0.000 C 
ATOM     33  C   UNL     1       4.393   4.917  16.829  0.00  0.00    +0.000 C 
BRANCH  26  34
ATOM     34  C   UNL     1       5.994   3.857  14.664  0.00  0.00    +0.000 C 
BRANCH  34  36
ATOM     35  C   UNL     1       6.133   3.308  12.229  0.00  0.00    +0.000 C 
ATOM     36  C   UNL     1       6.749   4.105  13.366  0.00  0.00    +0.000 C 
ENDBRANCH  34  36
ENDBRANCH  26  34
ENDBRANCH  24  31
ENDBRANCH  21  24
ENDBRANCH   1  21
TORSDOF 7
ENDMDL
MODEL 5
REMARK VINA RESULT:      -7.6      2.220      9.501
REMARK  Name = 
REMARK  8 active torsions:
REMARK  status: ('A' for Active; 'I' for Inactive)
REMARK    1  A    between atoms: C_1  and  C_2
REMARK    2  A    between atoms: C_2  and  C_3
REMARK    3  A    between atoms: C_3  and  C_4
REMARK    4  A    between atoms: C_9  and  N_10
REMARK    5  A    between atoms: N_10  and  S_11
REMARK    6  A    between atoms: S_11  and  C_14
REMARK    7  A    between atoms: C_17  and  N_18
REMARK    8  A    between atoms: C_19  and  C_21
REMARK                            x       y       z     vdW  Elec       q    Type
REMARK                         _______ _______ _______ _____ _____    ______ ____
ROOT
ATOM      1  C   UNL     1       1.953   7.689  19.843  0.00  0.00    +0.000 A 
ATOM      2  C   UNL     1       2.423   8.424  18.746  0.00  0.00    +0.000 A 
ATOM      3  C   UNL     1       3.193   7.820  17.759  0.00  0.00    +0.000 A 
ATOM      4  C   UNL     1       3.499   6.457  17.813  0.00  0.00    +0.000 A 
ATOM      5  C   UNL     1       3.049   5.684  18.933  0.00  0.00    +0.000 A 
ATOM      6  C   UNL     1       3.362   4.304  19.075  0.00  0.00    +0.000 A 
ATOM      7  C   UNL     1       2.951   3.545  20.171  0.00  0.00    +0.000 A 
ATOM      8  C   UNL     1       2.213   4.140  21.171  0.00  0.00    +0.000 A 
ATOM      9  C   UNL     1       1.880   5.490  21.068  0.00  0.00    +0.000 A 
ATOM     10  C   UNL     1       2.271   6.305  19.972  0.00  0.00    +0.000 A 
ENDROOT
BRANCH   4  11
ATOM     11  N   UNL     1       4.221   5.850  16.742  0.00  0.00    +0.000 N 
ATOM     12  C   UNL     1       5.507   6.153  16.310  0.00  0.00    +0.000 C 
ATOM     13  O   UNL     1       6.272   6.970  16.808  0.00  0.00    +0.000 OA
ATOM     14  H   UNL     1       3.784   5.091  16.228  0.00  0.00    +0.000 HD
BRANCH  12  15
ATOM     15  C   UNL     1       5.989   5.343  15.150  0.00  0.00    +0.000 A 
ATOM     16  C   UNL     1       5.125   4.446  14.532  0.00  0.00    +0.000 A 
ATOM     17  N   UNL     1       5.486   3.719  13.442  0.00  0.00    +0.000 NA
ATOM     18  C   UNL     1       6.745   3.930  12.999  0.00  0.00    +0.000 A 
ATOM     19  C   UNL     1       7.612   4.817  13.624  0.00  0.00    +0.000 A 
ATOM     20  N   UNL     1       7.265   5.549  14.713  0.00  0.00    +0.000 NA
ENDBRANCH  12  15
ENDBRANCH   4  11
BRANCH   1  21
ATOM     21  S   UNL     1       0.864   8.624  20.941  0.00  0.00    +0.000 S 
ATOM     22  O   UNL     1       1.545   9.059  22.131  0.00  0.00    +0.000 OA
ATOM     23  O   UNL     1      -0.357   7.853  21.013  0.00  0.00    +0.000 OA
BRANCH  21  24
ATOM     24  N   UNL     1       0.483  10.015  20.038  0.00  0.00    +0.000 NA
ATOM     25  H   UNL     1       1.190  10.229  19.340  0.00  0.00    +0.000 HD
BRANCH  24  31
ATOM     26  C   UNL     1       0.543  14.887  19.016  0.00  0.00    +0.000 C 
ATOM     27  O   UNL     1      -0.427  15.425  18.493  0.00  0.00    +0.000 OA
ATOM     28  N   UNL     1       0.612  13.512  19.218  0.00  0.00    +0.000 N 
ATOM     29  C   UNL     1      -0.442  12.649  18.688  0.00  0.00    +0.000 C 
ATOM     30  C   UNL     1      -1.136  11.891  19.816  0.00  0.00    +0.000 C 
ATOM     31  C   UNL     1      -0.133  11.174  20.734  0.00  0.00    +0.000 C 
ATOM     32  C   UNL     1       0.916  12.164  21.224  0.00  0.00    +0.000 C 
ATOM     33  C   UNL     1       1.607  12.854  20.054  0.00  0.00    +0.000 C 
BRANCH  26  34
ATOM     34  C   UNL     1       1.758  15.682  19.463  0.00  0.00    +0.000 C 
BRANCH  34  36
ATOM     35  C   UNL     1       3.385  15.315  17.601  0.00  0.00    +0.000 C 
ATOM     36  C   UNL     1       2.500  16.330  18.303  0.00  0.00    +0.000 C 
ENDBRANCH  34  36
ENDBRANCH  26  34
ENDBRANCH  24  31
ENDBRANCH  21  24
ENDBRANCH   1  21
TORSDOF 7
ENDMDL
MODEL 6
REMARK VINA RESULT:      -7.3      3.593      9.151
REMARK  Name = 
REMARK  8 active torsions:
REMARK  status: ('A' for Active; 'I' for Inactive)
REMARK    1  A    between atoms: C_1  and  C_2
REMARK    2  A    between atoms: C_2  and  C_3
REMARK    3  A    between atoms: C_3  and  C_4
REMARK    4  A    between atoms: C_9  and  N_10
REMARK    5  A    between atoms: N_10  and  S_11
REMARK    6  A    between atoms: S_11  and  C_14
REMARK    7  A    between atoms: C_17  and  N_18
REMARK    8  A    between atoms: C_19  and  C_21
REMARK                            x       y       z     vdW  Elec       q    Type
REMARK                         _______ _______ _______ _____ _____    ______ ____
ROOT
ATOM      1  C   UNL     1       0.208  11.350  19.525  0.00  0.00    +0.000 A 
ATOM      2  C   UNL     1       0.977  10.698  18.551  0.00  0.00    +0.000 A 
ATOM      3  C   UNL     1       1.526   9.445  18.797  0.00  0.00    +0.000 A 
ATOM      4  C   UNL     1       1.306   8.783  20.008  0.00  0.00    +0.000 A 
ATOM      5  C   UNL     1       0.539   9.433  21.030  0.00  0.00    +0.000 A 
ATOM      6  C   UNL     1       0.314   8.837  22.302  0.00  0.00    +0.000 A 
ATOM      7  C   UNL     1      -0.409   9.468  23.314  0.00  0.00    +0.000 A 
ATOM      8  C   UNL     1      -0.932  10.724  23.093  0.00  0.00    +0.000 A 
ATOM      9  C   UNL     1      -0.739  11.341  21.859  0.00  0.00    +0.000 A 
ATOM     10  C   UNL     1      -0.013  10.741  20.795  0.00  0.00    +0.000 A 
ENDROOT
BRANCH   4  11
ATOM     11  N   UNL     1       1.814   7.463  20.197  0.00  0.00    +0.000 N 
ATOM     12  C   UNL     1       2.572   6.712  19.305  0.00  0.00    +0.000 C 
ATOM     13  O   UNL     1       2.980   7.074  18.208  0.00  0.00    +0.000 OA
ATOM     14  H   UNL     1       1.638   6.995  21.081  0.00  0.00    +0.000 HD
BRANCH  12  15
ATOM     15  C   UNL     1       2.949   5.349  19.790  0.00  0.00    +0.000 A 
ATOM     16  C   UNL     1       2.177   4.730  20.766  0.00  0.00    +0.000 A 
ATOM     17  N   UNL     1       2.436   3.472  21.212  0.00  0.00    +0.000 NA
ATOM     18  C   UNL     1       3.499   2.865  20.638  0.00  0.00    +0.000 A 
ATOM     19  C   UNL     1       4.276   3.489  19.672  0.00  0.00    +0.000 A 
ATOM     20  N   UNL     1       4.029   4.744  19.218  0.00  0.00    +0.000 NA
ENDBRANCH  12  15
ENDBRANCH   4  11
BRANCH   1  21
ATOM     21  S   UNL     1      -0.521  12.905  18.964  0.00  0.00    +0.000 S 
ATOM     22  O   UNL     1      -1.244  13.570  20.015  0.00  0.00    +0.000 OA
ATOM     23  O   UNL     1      -1.150  12.596  17.699  0.00  0.00    +0.000 OA
BRANCH  21  24
ATOM     24  N   UNL     1       0.829  13.870  18.589  0.00  0.00    +0.000 NA
ATOM     25  H   UNL     1       1.500  13.383  17.999  0.00  0.00    +0.000 HD
BRANCH  24  31
ATOM     26  C   UNL     1       5.195  16.240  18.915  0.00  0.00    +0.000 C 
ATOM     27  O   UNL     1       5.270  17.442  18.679  0.00  0.00    +0.000 OA
ATOM     28  N   UNL     1       4.020  15.517  18.730  0.00  0.00    +0.000 N 
ATOM     29  C   UNL     1       2.860  16.165  18.121  0.00  0.00    +0.000 C 
ATOM     30  C   UNL     1       1.673  16.158  19.080  0.00  0.00    +0.000 C 
ATOM     31  C   UNL     1       1.391  14.755  19.641  0.00  0.00    +0.000 C 
ATOM     32  C   UNL     1       2.665  14.178  20.247  0.00  0.00    +0.000 C 
ATOM     33  C   UNL     1       3.800  14.167  19.231  0.00  0.00    +0.000 C 
BRANCH  26  34
ATOM     34  C   UNL     1       6.391  15.443  19.408  0.00  0.00    +0.000 C 
BRANCH  34  36
ATOM     35  C   UNL     1       7.405  13.994  17.642  0.00  0.00    +0.000 C 
ATOM     36  C   UNL     1       7.493  15.326  18.366  0.00  0.00    +0.000 C 
ENDBRANCH  34  36
ENDBRANCH  26  34
ENDBRANCH  24  31
ENDBRANCH  21  24
ENDBRANCH   1  21
TORSDOF 7
ENDMDL
MODEL 7
REMARK VINA RESULT:      -7.3      2.323      3.498
REMARK  Name = 
REMARK  8 active torsions:
REMARK  status: ('A' for Active; 'I' for Inactive)
REMARK    1  A    between atoms: C_1  and  C_2
REMARK    2  A    between atoms: C_2  and  C_3
REMARK    3  A    between atoms: C_3  and  C_4
REMARK    4  A    between atoms: C_9  and  N_10
REMARK    5  A    between atoms: N_10  and  S_11
REMARK    6  A    between atoms: S_11  and  C_14
REMARK    7  A    between atoms: C_17  and  N_18
REMARK    8  A    between atoms: C_19  and  C_21
REMARK                            x       y       z     vdW  Elec       q    Type
REMARK                         _______ _______ _______ _____ _____    ______ ____
ROOT
ATOM      1  C   UNL     1       0.687  10.385  20.879  0.00  0.00    +0.000 A 
ATOM      2  C   UNL     1       1.375  10.661  19.690  0.00  0.00    +0.000 A 
ATOM      3  C   UNL     1       1.246  11.895  19.063  0.00  0.00    +0.000 A 
ATOM      4  C   UNL     1       0.452  12.906  19.611  0.00  0.00    +0.000 A 
ATOM      5  C   UNL     1      -0.279  12.645  20.815  0.00  0.00    +0.000 A 
ATOM      6  C   UNL     1      -1.140  13.612  21.403  0.00  0.00    +0.000 A 
ATOM      7  C   UNL     1      -1.876  13.364  22.561  0.00  0.00    +0.000 A 
ATOM      8  C   UNL     1      -1.781  12.134  23.176  0.00  0.00    +0.000 A 
ATOM      9  C   UNL     1      -0.943  11.160  22.636  0.00  0.00    +0.000 A 
ATOM     10  C   UNL     1      -0.172  11.364  21.461  0.00  0.00    +0.000 A 
ENDROOT
BRANCH   4  11
ATOM     11  N   UNL     1       0.407  14.189  18.985  0.00  0.00    +0.000 N 
ATOM     12  C   UNL     1       1.231  15.281  19.234  0.00  0.00    +0.000 C 
ATOM     13  O   UNL     1       2.180  15.319  20.007  0.00  0.00    +0.000 OA
ATOM     14  H   UNL     1      -0.281  14.352  18.256  0.00  0.00    +0.000 HD
BRANCH  12  15
ATOM     15  C   UNL     1       0.928  16.497  18.419  0.00  0.00    +0.000 A 
ATOM     16  C   UNL     1       1.970  17.214  17.842  0.00  0.00    +0.000 A 
ATOM     17  N   UNL     1       1.758  18.297  17.048  0.00  0.00    +0.000 NA
ATOM     18  C   UNL     1       0.462  18.629  16.859  0.00  0.00    +0.000 A 
ATOM     19  C   UNL     1      -0.578  17.920  17.446  0.00  0.00    +0.000 A 
ATOM     20  N   UNL     1      -0.381  16.836  18.241  0.00  0.00    +0.000 NA
ENDBRANCH  12  15
ENDBRANCH   4  11
BRANCH   1  21
ATOM     21  S   UNL     1       1.090   8.778  21.603  0.00  0.00    +0.000 S 
ATOM     22  O   UNL     1      -0.070   7.937  21.725  0.00  0.00    +0.000 OA
ATOM     23  O   UNL     1       1.927   9.074  22.745  0.00  0.00    +0.000 OA
BRANCH  21  24
ATOM     24  N   UNL     1       2.115   8.064  20.448  0.00  0.00    +0.000 NA
ATOM     25  H   UNL     1       2.744   8.738  20.020  0.00  0.00    +0.000 HD
BRANCH  24  31
ATOM     26  C   UNL     1       4.348   4.463  17.835  0.00  0.00    +0.000 C 
ATOM     27  O   UNL     1       4.346   3.306  18.242  0.00  0.00    +0.000 OA
ATOM     28  N   UNL     1       3.834   5.516  18.584  0.00  0.00    +0.000 N 
ATOM     29  C   UNL     1       3.381   5.277  19.953  0.00  0.00    +0.000 C 
ATOM     30  C   UNL     1       1.899   5.610  20.098  0.00  0.00    +0.000 C 
ATOM     31  C   UNL     1       1.566   7.011  19.557  0.00  0.00    +0.000 C 
ATOM     32  C   UNL     1       2.083   7.148  18.131  0.00  0.00    +0.000 C 
ATOM     33  C   UNL     1       3.575   6.850  18.057  0.00  0.00    +0.000 C 
BRANCH  26  34
ATOM     34  C   UNL     1       4.937   4.838  16.485  0.00  0.00    +0.000 C 
BRANCH  34  36
ATOM     35  C   UNL     1       6.995   5.014  15.076  0.00  0.00    +0.000 C 
ATOM     36  C   UNL     1       6.458   4.857  16.488  0.00  0.00    +0.000 C 
ENDBRANCH  34  36
ENDBRANCH  26  34
ENDBRANCH  24  31
ENDBRANCH  21  24
ENDBRANCH   1  21
TORSDOF 7
ENDMDL
MODEL 8
REMARK VINA RESULT:      -7.2      3.282      9.230
REMARK  Name = 
REMARK  8 active torsions:
REMARK  status: ('A' for Active; 'I' for Inactive)
REMARK    1  A    between atoms: C_1  and  C_2
REMARK    2  A    between atoms: C_2  and  C_3
REMARK    3  A    between atoms: C_3  and  C_4
REMARK    4  A    between atoms: C_9  and  N_10
REMARK    5  A    between atoms: N_10  and  S_11
REMARK    6  A    between atoms: S_11  and  C_14
REMARK    7  A    between atoms: C_17  and  N_18
REMARK    8  A    between atoms: C_19  and  C_21
REMARK                            x       y       z     vdW  Elec       q    Type
REMARK                         _______ _______ _______ _____ _____    ______ ____
ROOT
ATOM      1  C   UNL     1      -0.916  11.952  20.841  0.00  0.00    +0.000 A 
ATOM      2  C   UNL     1       0.127  11.379  21.582  0.00  0.00    +0.000 A 
ATOM      3  C   UNL     1       0.825  10.280  21.097  0.00  0.00    +0.000 A 
ATOM      4  C   UNL     1       0.531   9.729  19.847  0.00  0.00    +0.000 A 
ATOM      5  C   UNL     1      -0.543  10.282  19.075  0.00  0.00    +0.000 A 
ATOM      6  C   UNL     1      -0.926   9.743  17.816  0.00  0.00    +0.000 A 
ATOM      7  C   UNL     1      -1.984  10.255  17.066  0.00  0.00    +0.000 A 
ATOM      8  C   UNL     1      -2.704  11.325  17.550  0.00  0.00    +0.000 A 
ATOM      9  C   UNL     1      -2.358  11.887  18.778  0.00  0.00    +0.000 A 
ATOM     10  C   UNL     1      -1.289  11.405  19.578  0.00  0.00    +0.000 A 
ENDROOT
BRANCH   4  11
ATOM     11  N   UNL     1       1.322   8.653  19.342  0.00  0.00    +0.000 N 
ATOM     12  C   UNL     1       2.189   8.677  18.256  0.00  0.00    +0.000 C 
ATOM     13  O   UNL     1       2.465   9.649  17.563  0.00  0.00    +0.000 OA
ATOM     14  H   UNL     1       1.288   7.757  19.820  0.00  0.00    +0.000 HD
BRANCH  12  15
ATOM     15  C   UNL     1       2.873   7.379  17.967  0.00  0.00    +0.000 A 
ATOM     16  C   UNL     1       2.264   6.185  18.336  0.00  0.00    +0.000 A 
ATOM     17  N   UNL     1       2.808   4.972  18.055  0.00  0.00    +0.000 NA
ATOM     18  C   UNL     1       3.985   5.008  17.391  0.00  0.00    +0.000 A 
ATOM     19  C   UNL     1       4.599   6.201  17.034  0.00  0.00    +0.000 A 
ATOM     20  N   UNL     1       4.066   7.420  17.307  0.00  0.00    +0.000 NA
ENDBRANCH  12  15
ENDBRANCH   4  11
BRANCH   1  21
ATOM     21  S   UNL     1      -1.607  13.448  21.583  0.00  0.00    +0.000 S 
ATOM     22  O   UNL     1      -1.076  13.691  22.897  0.00  0.00    +0.000 OA
ATOM     23  O   UNL     1      -3.033  13.363  21.353  0.00  0.00    +0.000 OA
BRANCH  21  24
ATOM     24  N   UNL     1      -1.046  14.694  20.571  0.00  0.00    +0.000 NA
ATOM     25  H   UNL     1      -1.150  14.468  19.585  0.00  0.00    +0.000 HD
BRANCH  24  31
ATOM     26  C   UNL     1       2.814  16.300  17.868  0.00  0.00    +0.000 C 
ATOM     27  O   UNL     1       2.904  17.482  17.552  0.00  0.00    +0.000 OA
ATOM     28  N   UNL     1       1.700  15.788  18.527  0.00  0.00    +0.000 N 
ATOM     29  C   UNL     1       0.536  16.643  18.751  0.00  0.00    +0.000 C 
ATOM     30  C   UNL     1       0.254  16.790  20.243  0.00  0.00    +0.000 C 
ATOM     31  C   UNL     1       0.186  15.429  20.955  0.00  0.00    +0.000 C 
ATOM     32  C   UNL     1       1.444  14.626  20.652  0.00  0.00    +0.000 C 
ATOM     33  C   UNL     1       1.647  14.473  19.150  0.00  0.00    +0.000 C 
BRANCH  26  34
ATOM     34  C   UNL     1       3.908  15.297  17.542  0.00  0.00    +0.000 C 
BRANCH  34  36
ATOM     35  C   UNL     1       6.338  14.783  17.828  0.00  0.00    +0.000 C 
ATOM     36  C   UNL     1       5.113  15.418  18.464  0.00  0.00    +0.000 C 
ENDBRANCH  34  36
ENDBRANCH  26  34
ENDBRANCH  24  31
ENDBRANCH  21  24
ENDBRANCH   1  21
TORSDOF 7
ENDMDL
MODEL 9
REMARK VINA RESULT:      -7.2      2.463      3.432
REMARK  Name = 
REMARK  8 active torsions:
REMARK  status: ('A' for Active; 'I' for Inactive)
REMARK    1  A    between atoms: C_1  and  C_2
REMARK    2  A    between atoms: C_2  and  C_3
REMARK    3  A    between atoms: C_3  and  C_4
REMARK    4  A    between atoms: C_9  and  N_10
REMARK    5  A    between atoms: N_10  and  S_11
REMARK    6  A    between atoms: S_11  and  C_14
REMARK    7  A    between atoms: C_17  and  N_18
REMARK    8  A    between atoms: C_19  and  C_21
REMARK                            x       y       z     vdW  Elec       q    Type
REMARK                         _______ _______ _______ _____ _____    ______ ____
ROOT
ATOM      1  C   UNL     1       1.741   7.176  20.173  0.00  0.00    +0.000 A 
ATOM      2  C   UNL     1       1.072   7.083  21.401  0.00  0.00    +0.000 A 
ATOM      3  C   UNL     1       0.324   8.148  21.888  0.00  0.00    +0.000 A 
ATOM      4  C   UNL     1       0.190   9.332  21.157  0.00  0.00    +0.000 A 
ATOM      5  C   UNL     1       0.878   9.463  19.906  0.00  0.00    +0.000 A 
ATOM      6  C   UNL     1       0.822  10.655  19.133  0.00  0.00    +0.000 A 
ATOM      7  C   UNL     1       1.506  10.805  17.926  0.00  0.00    +0.000 A 
ATOM      8  C   UNL     1       2.276   9.767  17.449  0.00  0.00    +0.000 A 
ATOM      9  C   UNL     1       2.353   8.578  18.173  0.00  0.00    +0.000 A 
ATOM     10  C   UNL     1       1.675   8.375  19.405  0.00  0.00    +0.000 A 
ENDROOT
BRANCH   4  11
ATOM     11  N   UNL     1      -0.653  10.376  21.646  0.00  0.00    +0.000 N 
ATOM     12  C   UNL     1      -0.288  11.679  21.965  0.00  0.00    +0.000 C 
ATOM     13  O   UNL     1       0.823  12.178  21.837  0.00  0.00    +0.000 OA
ATOM     14  H   UNL     1      -1.644  10.185  21.767  0.00  0.00    +0.000 HD
BRANCH  12  15
ATOM     15  C   UNL     1      -1.402  12.541  22.465  0.00  0.00    +0.000 A 
ATOM     16  C   UNL     1      -2.453  11.964  23.170  0.00  0.00    +0.000 A 
ATOM     17  N   UNL     1      -3.469  12.699  23.695  0.00  0.00    +0.000 NA
ATOM     18  C   UNL     1      -3.385  14.032  23.484  0.00  0.00    +0.000 A 
ATOM     19  C   UNL     1      -2.342  14.605  22.769  0.00  0.00    +0.000 A 
ATOM     20  N   UNL     1      -1.321  13.883  22.240  0.00  0.00    +0.000 NA
ENDBRANCH  12  15
ENDBRANCH   4  11
BRANCH   1  21
ATOM     21  S   UNL     1       2.546   5.641  19.659  0.00  0.00    +0.000 S 
ATOM     22  O   UNL     1       1.915   5.063  18.504  0.00  0.00    +0.000 OA
ATOM     23  O   UNL     1       2.728   4.881  20.876  0.00  0.00    +0.000 OA
BRANCH  21  24
ATOM     24  N   UNL     1       4.102   6.144  19.188  0.00  0.00    +0.000 NA
ATOM     25  H   UNL     1       4.075   6.904  18.513  0.00  0.00    +0.000 HD
BRANCH  24  31
ATOM     26  C   UNL     1       6.649   4.783  15.133  0.00  0.00    +0.000 C 
ATOM     27  O   UNL     1       7.803   5.165  14.966  0.00  0.00    +0.000 OA
ATOM     28  N   UNL     1       5.865   5.227  16.193  0.00  0.00    +0.000 N 
ATOM     29  C   UNL     1       6.372   6.273  17.080  0.00  0.00    +0.000 C 
ATOM     30  C   UNL     1       6.467   5.765  18.515  0.00  0.00    +0.000 C 
ATOM     31  C   UNL     1       5.156   5.116  18.987  0.00  0.00    +0.000 C 
ATOM     32  C   UNL     1       4.723   4.047  17.992  0.00  0.00    +0.000 C 
ATOM     33  C   UNL     1       4.600   4.623  16.587  0.00  0.00    +0.000 C 
BRANCH  26  34
ATOM     34  C   UNL     1       5.979   3.811  14.177  0.00  0.00    +0.000 C 
BRANCH  34  36
ATOM     35  C   UNL     1       5.849   2.888  11.857  0.00  0.00    +0.000 C 
ATOM     36  C   UNL     1       6.508   3.921  12.754  0.00  0.00    +0.000 C 
ENDBRANCH  34  36
ENDBRANCH  26  34
ENDBRANCH  24  31
ENDBRANCH  21  24
ENDBRANCH   1  21
TORSDOF 7
ENDMDL
