MODEL 1
REMARK VINA RESULT:      -8.7      0.000      0.000
REMARK  Name = 
REMARK  6 active torsions:
REMARK  status: ('A' for Active; 'I' for Inactive)
REMARK    1  A    between atoms: C_1  and  O_2
REMARK    2  A    between atoms: O_2  and  C_3
REMARK    3  A    between atoms: C_6  and  C_7
REMARK    4  A    between atoms: N_18  and  S_19
REMARK    5  A    between atoms: S_19  and  C_22
REMARK    6  A    between atoms: C_25  and  C_26
REMARK                            x       y       z     vdW  Elec       q    Type
REMARK                         _______ _______ _______ _____ _____    ______ ____
ROOT
ATOM      1  C   UNL     1      -4.192  13.351  20.911  0.00  0.00    +0.000 A 
ATOM      2  C   UNL     1      -5.438  13.523  20.317  0.00  0.00    +0.000 A 
ATOM      3  N   UNL     1      -5.443  12.913  19.080  0.00  0.00    +0.000 N 
ATOM      4  C   UNL     1      -4.226  12.321  18.860  0.00  0.00    +0.000 A 
ATOM      5  C   UNL     1      -3.400  12.623  19.959  0.00  0.00    +0.000 A 
ATOM      6  C   UNL     1      -1.986  12.187  20.010  0.00  0.00    +0.000 C 
ATOM      7  O   UNL     1      -1.141  12.683  20.737  0.00  0.00    +0.000 OA
ATOM      8  C   UNL     1      -1.701  11.196  18.999  0.00  0.00    +0.000 A 
ATOM      9  C   UNL     1      -2.535  10.929  17.932  0.00  0.00    +0.000 A 
ATOM     10  C   UNL     1      -1.893  10.077  17.035  0.00  0.00    +0.000 A 
ATOM     11  C   UNL     1      -0.693   9.724  17.613  0.00  0.00    +0.000 A 
ATOM     12  N   UNL     1      -0.617  10.371  18.835  0.00  0.00    +0.000 N 
ATOM     13  C   UNL     1      -2.526   9.777  15.738  0.00  0.00    +0.000 C 
ATOM     14  C   UNL     1      -3.963  10.365  15.609  0.00  0.00    +0.000 C 
ATOM     15  N   UNL     1      -4.514  11.265  16.674  0.00  0.00    +0.000 NA
ATOM     16  C   UNL     1      -3.832  11.508  17.736  0.00  0.00    +0.000 C 
ATOM     17  H   UNL     1      -6.231  12.857  18.449  0.00  0.00    +0.000 HD
ENDROOT
BRANCH   1  21
ATOM     18  C   UNL     1      -3.188  14.648  24.893  0.00  0.00    +0.000 A 
ATOM     19  C   UNL     1      -2.922  15.444  23.784  0.00  0.00    +0.000 A 
ATOM     20  C   UNL     1      -3.247  15.007  22.498  0.00  0.00    +0.000 A 
ATOM     21  C   UNL     1      -3.872  13.771  22.280  0.00  0.00    +0.000 A 
ATOM     22  C   UNL     1      -4.134  12.972  23.402  0.00  0.00    +0.000 A 
ATOM     23  C   UNL     1      -3.792  13.406  24.701  0.00  0.00    +0.000 A 
BRANCH  18  25
ATOM     24  C   UNL     1      -1.407  15.629  26.120  0.00  0.00    +0.000 C 
ATOM     25  O   UNL     1      -2.749  15.168  26.077  0.00  0.00    +0.000 OA
ENDBRANCH  18  25
ENDBRANCH   1  21
BRANCH  12  26
ATOM     26  S   UNL     1       0.689  10.195  19.914  0.00  0.00    +0.000 S 
ATOM     27  O   UNL     1       1.433  11.436  19.815  0.00  0.00    +0.000 OA
ATOM     28  O   UNL     1       0.098   9.766  21.169  0.00  0.00    +0.000 OA
BRANCH  26  29
ATOM     29  C   UNL     1       1.624   8.839  19.280  0.00  0.00    +0.000 A 
ATOM     30  C   UNL     1       1.752   7.678  20.043  0.00  0.00    +0.000 A 
ATOM     31  C   UNL     1       2.481   6.602  19.538  0.00  0.00    +0.000 A 
ATOM     32  C   UNL     1       3.073   6.675  18.271  0.00  0.00    +0.000 A 
ATOM     33  C   UNL     1       3.872   5.523  17.734  0.00  0.00    +0.000 C 
ATOM     34  C   UNL     1       2.914   7.836  17.503  0.00  0.00    +0.000 A 
ATOM     35  C   UNL     1       2.186   8.919  18.001  0.00  0.00    +0.000 A 
ENDBRANCH  26  29
ENDBRANCH  12  26
TORSDOF 4
ENDMDL
MODEL 2
REMARK VINA RESULT:      -8.2      0.289      1.203
REMARK  Name = 
REMARK  6 active torsions:
REMARK  status: ('A' for Active; 'I' for Inactive)
REMARK    1  A    between atoms: C_1  and  O_2
REMARK    2  A    between atoms: O_2  and  C_3
REMARK    3  A    between atoms: C_6  and  C_7
REMARK    4  A    between atoms: N_18  and  S_19
REMARK    5  A    between atoms: S_19  and  C_22
REMARK    6  A    between atoms: C_25  and  C_26
REMARK                            x       y       z     vdW  Elec       q    Type
REMARK                         _______ _______ _______ _____ _____    ______ ____
ROOT
ATOM      1  C   UNL     1      -3.963  13.542  20.898  0.00  0.00    +0.000 A 
ATOM      2  C   UNL     1      -5.254  13.676  20.395  0.00  0.00    +0.000 A 
ATOM      3  N   UNL     1      -5.353  12.991  19.203  0.00  0.00    +0.000 N 
ATOM      4  C   UNL     1      -4.154  12.388  18.924  0.00  0.00    +0.000 A 
ATOM      5  C   UNL     1      -3.245  12.758  19.933  0.00  0.00    +0.000 A 
ATOM      6  C   UNL     1      -1.828  12.327  19.898  0.00  0.00    +0.000 C 
ATOM      7  O   UNL     1      -0.931  12.868  20.525  0.00  0.00    +0.000 OA
ATOM      8  C   UNL     1      -1.618  11.276  18.931  0.00  0.00    +0.000 A 
ATOM      9  C   UNL     1      -2.533  10.943  17.952  0.00  0.00    +0.000 A 
ATOM     10  C   UNL     1      -1.958  10.038  17.061  0.00  0.00    +0.000 A 
ATOM     11  C   UNL     1      -0.714   9.722  17.563  0.00  0.00    +0.000 A 
ATOM     12  N   UNL     1      -0.546  10.443  18.733  0.00  0.00    +0.000 N 
ATOM     13  C   UNL     1      -2.690   9.658  15.839  0.00  0.00    +0.000 C 
ATOM     14  C   UNL     1      -4.136  10.235  15.788  0.00  0.00    +0.000 C 
ATOM     15  N   UNL     1      -4.607  11.198  16.836  0.00  0.00    +0.000 NA
ATOM     16  C   UNL     1      -3.845  11.507  17.824  0.00  0.00    +0.000 C 
ATOM     17  H   UNL     1      -6.188  12.895  18.640  0.00  0.00    +0.000 HD
ENDROOT
BRANCH   1  21
ATOM     18  C   UNL     1      -2.784  14.962  24.789  0.00  0.00    +0.000 A 
ATOM     19  C   UNL     1      -3.465  13.760  24.634  0.00  0.00    +0.000 A 
ATOM     20  C   UNL     1      -3.847  13.316  23.365  0.00  0.00    +0.000 A 
ATOM     21  C   UNL     1      -3.539  14.046  22.209  0.00  0.00    +0.000 A 
ATOM     22  C   UNL     1      -2.855  15.260  22.374  0.00  0.00    +0.000 A 
ATOM     23  C   UNL     1      -2.482  15.717  23.656  0.00  0.00    +0.000 A 
BRANCH  18  25
ATOM     24  C   UNL     1      -1.270  15.868  26.379  0.00  0.00    +0.000 C 
ATOM     25  O   UNL     1      -2.541  15.307  26.088  0.00  0.00    +0.000 OA
ENDBRANCH  18  25
ENDBRANCH   1  21
BRANCH  12  26
ATOM     26  S   UNL     1       0.843  10.336  19.713  0.00  0.00    +0.000 S 
ATOM     27  O   UNL     1       1.607  11.532  19.421  0.00  0.00    +0.000 OA
ATOM     28  O   UNL     1       0.350  10.062  21.052  0.00  0.00    +0.000 OA
BRANCH  26  29
ATOM     29  C   UNL     1       1.683   8.888  19.156  0.00  0.00    +0.000 A 
ATOM     30  C   UNL     1       2.322   8.900  17.916  0.00  0.00    +0.000 A 
ATOM     31  C   UNL     1       2.996   7.760  17.480  0.00  0.00    +0.000 A 
ATOM     32  C   UNL     1       3.044   6.612  18.280  0.00  0.00    +0.000 A 
ATOM     33  C   UNL     1       3.756   5.379  17.803  0.00  0.00    +0.000 C 
ATOM     34  C   UNL     1       2.423   6.622  19.536  0.00  0.00    +0.000 A 
ATOM     35  C   UNL     1       1.745   7.759  19.980  0.00  0.00    +0.000 A 
ENDBRANCH  26  29
ENDBRANCH  12  26
TORSDOF 4
ENDMDL
MODEL 3
REMARK VINA RESULT:      -7.8      1.192      2.058
REMARK  Name = 
REMARK  6 active torsions:
REMARK  status: ('A' for Active; 'I' for Inactive)
REMARK    1  A    between atoms: C_1  and  O_2
REMARK    2  A    between atoms: O_2  and  C_3
REMARK    3  A    between atoms: C_6  and  C_7
REMARK    4  A    between atoms: N_18  and  S_19
REMARK    5  A    between atoms: S_19  and  C_22
REMARK    6  A    between atoms: C_25  and  C_26
REMARK                            x       y       z     vdW  Elec       q    Type
REMARK                         _______ _______ _______ _____ _____    ______ ____
ROOT
ATOM      1  C   UNL     1      -3.716  14.625  22.196  0.00  0.00    +0.000 A 
ATOM      2  C   UNL     1      -5.085  14.761  21.987  0.00  0.00    +0.000 A 
ATOM      3  N   UNL     1      -5.457  14.005  20.895  0.00  0.00    +0.000 N 
ATOM      4  C   UNL     1      -4.358  13.354  20.397  0.00  0.00    +0.000 A 
ATOM      5  C   UNL     1      -3.242  13.763  21.150  0.00  0.00    +0.000 A 
ATOM      6  C   UNL     1      -1.874  13.294  20.829  0.00  0.00    +0.000 C 
ATOM      7  O   UNL     1      -0.853  13.849  21.202  0.00  0.00    +0.000 OA
ATOM      8  C   UNL     1      -1.899  12.179  19.912  0.00  0.00    +0.000 A 
ATOM      9  C   UNL     1      -3.014  11.808  19.187  0.00  0.00    +0.000 A 
ATOM     10  C   UNL     1      -2.664  10.835  18.253  0.00  0.00    +0.000 A 
ATOM     11  C   UNL     1      -1.343  10.518  18.485  0.00  0.00    +0.000 A 
ATOM     12  N   UNL     1      -0.908  11.307  19.537  0.00  0.00    +0.000 N 
ATOM     13  C   UNL     1      -3.655  10.398  17.254  0.00  0.00    +0.000 C 
ATOM     14  C   UNL     1      -5.069  11.008  17.488  0.00  0.00    +0.000 C 
ATOM     15  N   UNL     1      -5.282  12.048  18.548  0.00  0.00    +0.000 NA
ATOM     16  C   UNL     1      -4.314  12.398  19.318  0.00  0.00    +0.000 C 
ATOM     17  H   UNL     1      -6.398  13.896  20.540  0.00  0.00    +0.000 HD
ENDROOT
BRANCH   1  21
ATOM     18  C   UNL     1      -1.679  16.258  25.622  0.00  0.00    +0.000 A 
ATOM     19  C   UNL     1      -2.417  15.083  25.711  0.00  0.00    +0.000 A 
ATOM     20  C   UNL     1      -3.078  14.569  24.593  0.00  0.00    +0.000 A 
ATOM     21  C   UNL     1      -3.003  15.199  23.342  0.00  0.00    +0.000 A 
ATOM     22  C   UNL     1      -2.260  16.386  23.261  0.00  0.00    +0.000 A 
ATOM     23  C   UNL     1      -1.604  16.914  24.394  0.00  0.00    +0.000 A 
BRANCH  18  25
ATOM     24  C   UNL     1       0.224  16.413  27.033  0.00  0.00    +0.000 C 
ATOM     25  O   UNL     1      -1.151  16.682  26.807  0.00  0.00    +0.000 OA
ENDBRANCH  18  25
ENDBRANCH   1  21
BRANCH  12  26
ATOM     26  S   UNL     1       0.664  11.225  20.188  0.00  0.00    +0.000 S 
ATOM     27  O   UNL     1       1.359  12.377  19.648  0.00  0.00    +0.000 OA
ATOM     28  O   UNL     1       0.481  11.054  21.618  0.00  0.00    +0.000 OA
BRANCH  26  29
ATOM     29  C   UNL     1       1.339   9.721  19.560  0.00  0.00    +0.000 A 
ATOM     30  C   UNL     1       1.828   9.680  18.254  0.00  0.00    +0.000 A 
ATOM     31  C   UNL     1       2.371   8.494  17.761  0.00  0.00    +0.000 A 
ATOM     32  C   UNL     1       2.440   7.352  18.569  0.00  0.00    +0.000 A 
ATOM     33  C   UNL     1       3.011   6.072  18.033  0.00  0.00    +0.000 C 
ATOM     34  C   UNL     1       1.972   7.414  19.888  0.00  0.00    +0.000 A 
ATOM     35  C   UNL     1       1.425   8.597  20.390  0.00  0.00    +0.000 A 
ENDBRANCH  26  29
ENDBRANCH  12  26
TORSDOF 4
ENDMDL
MODEL 4
REMARK VINA RESULT:      -7.6      2.130      2.913
REMARK  Name = 
REMARK  6 active torsions:
REMARK  status: ('A' for Active; 'I' for Inactive)
REMARK    1  A    between atoms: C_1  and  O_2
REMARK    2  A    between atoms: O_2  and  C_3
REMARK    3  A    between atoms: C_6  and  C_7
REMARK    4  A    between atoms: N_18  and  S_19
REMARK    5  A    between atoms: S_19  and  C_22
REMARK    6  A    between atoms: C_25  and  C_26
REMARK                            x       y       z     vdW  Elec       q    Type
REMARK                         _______ _______ _______ _____ _____    ______ ____
ROOT
ATOM      1  C   UNL     1      -4.271  13.307  20.859  0.00  0.00    +0.000 A 
ATOM      2  C   UNL     1      -5.527  13.487  20.289  0.00  0.00    +0.000 A 
ATOM      3  N   UNL     1      -5.550  12.903  19.040  0.00  0.00    +0.000 N 
ATOM      4  C   UNL     1      -4.335  12.319  18.789  0.00  0.00    +0.000 A 
ATOM      5  C   UNL     1      -3.492  12.601  19.881  0.00  0.00    +0.000 A 
ATOM      6  C   UNL     1      -2.076  12.169  19.900  0.00  0.00    +0.000 C 
ATOM      7  O   UNL     1      -1.221  12.651  20.625  0.00  0.00    +0.000 OA
ATOM      8  C   UNL     1      -1.804  11.199  18.865  0.00  0.00    +0.000 A 
ATOM      9  C   UNL     1      -2.655  10.951  17.806  0.00  0.00    +0.000 A 
ATOM     10  C   UNL     1      -2.025  10.120  16.882  0.00  0.00    +0.000 A 
ATOM     11  C   UNL     1      -0.815   9.759  17.433  0.00  0.00    +0.000 A 
ATOM     12  N   UNL     1      -0.721  10.381  18.667  0.00  0.00    +0.000 N 
ATOM     13  C   UNL     1      -2.677   9.845  15.589  0.00  0.00    +0.000 C 
ATOM     14  C   UNL     1      -4.117  10.431  15.495  0.00  0.00    +0.000 C 
ATOM     15  N   UNL     1      -4.655  11.307  16.586  0.00  0.00    +0.000 NA
ATOM     16  C   UNL     1      -3.957  11.531  17.643  0.00  0.00    +0.000 C 
ATOM     17  H   UNL     1      -6.347  12.857  18.420  0.00  0.00    +0.000 HD
ENDROOT
BRANCH   1  21
ATOM     18  C   UNL     1      -3.201  14.518  24.852  0.00  0.00    +0.000 A 
ATOM     19  C   UNL     1      -2.846  15.281  23.745  0.00  0.00    +0.000 A 
ATOM     20  C   UNL     1      -3.194  14.871  22.456  0.00  0.00    +0.000 A 
ATOM     21  C   UNL     1      -3.931  13.700  22.231  0.00  0.00    +0.000 A 
ATOM     22  C   UNL     1      -4.282  12.933  23.352  0.00  0.00    +0.000 A 
ATOM     23  C   UNL     1      -3.918  13.338  24.655  0.00  0.00    +0.000 A 
BRANCH  18  25
ATOM     24  C   UNL     1      -1.640  15.906  25.982  0.00  0.00    +0.000 C 
ATOM     25  O   UNL     1      -2.730  14.998  26.040  0.00  0.00    +0.000 OA
ENDBRANCH  18  25
ENDBRANCH   1  21
BRANCH  12  26
ATOM     26  S   UNL     1       0.602  10.187  19.721  0.00  0.00    +0.000 S 
ATOM     27  O   UNL     1       0.019  10.049  21.042  0.00  0.00    +0.000 OA
ATOM     28  O   UNL     1       1.409   9.129  19.138  0.00  0.00    +0.000 OA
BRANCH  26  29
ATOM     29  C   UNL     1       1.520  11.687  19.581  0.00  0.00    +0.000 A 
ATOM     30  C   UNL     1       1.785  12.439  20.726  0.00  0.00    +0.000 A 
ATOM     31  C   UNL     1       2.520  13.619  20.617  0.00  0.00    +0.000 A 
ATOM     32  C   UNL     1       3.000  14.047  19.373  0.00  0.00    +0.000 A 
ATOM     33  C   UNL     1       3.777  15.326  19.254  0.00  0.00    +0.000 C 
ATOM     34  C   UNL     1       2.751  13.268  18.235  0.00  0.00    +0.000 A 
ATOM     35  C   UNL     1       2.016  12.085  18.334  0.00  0.00    +0.000 A 
ENDBRANCH  26  29
ENDBRANCH  12  26
TORSDOF 4
ENDMDL
MODEL 5
REMARK VINA RESULT:      -7.6      1.243      1.756
REMARK  Name = 
REMARK  6 active torsions:
REMARK  status: ('A' for Active; 'I' for Inactive)
REMARK    1  A    between atoms: C_1  and  O_2
REMARK    2  A    between atoms: O_2  and  C_3
REMARK    3  A    between atoms: C_6  and  C_7
REMARK    4  A    between atoms: N_18  and  S_19
REMARK    5  A    between atoms: S_19  and  C_22
REMARK    6  A    between atoms: C_25  and  C_26
REMARK                            x       y       z     vdW  Elec       q    Type
REMARK                         _______ _______ _______ _____ _____    ______ ____
ROOT
ATOM      1  C   UNL     1      -3.582  14.572  22.253  0.00  0.00    +0.000 A 
ATOM      2  C   UNL     1      -4.948  14.723  22.039  0.00  0.00    +0.000 A 
ATOM      3  N   UNL     1      -5.322  13.981  20.938  0.00  0.00    +0.000 N 
ATOM      4  C   UNL     1      -4.227  13.325  20.438  0.00  0.00    +0.000 A 
ATOM      5  C   UNL     1      -3.111  13.716  21.200  0.00  0.00    +0.000 A 
ATOM      6  C   UNL     1      -1.746  13.238  20.881  0.00  0.00    +0.000 C 
ATOM      7  O   UNL     1      -0.722  13.779  21.264  0.00  0.00    +0.000 OA
ATOM      8  C   UNL     1      -1.777  12.132  19.953  0.00  0.00    +0.000 A 
ATOM      9  C   UNL     1      -2.892  11.779  19.219  0.00  0.00    +0.000 A 
ATOM     10  C   UNL     1      -2.547  10.812  18.277  0.00  0.00    +0.000 A 
ATOM     11  C   UNL     1      -1.230  10.481  18.511  0.00  0.00    +0.000 A 
ATOM     12  N   UNL     1      -0.792  11.255  19.573  0.00  0.00    +0.000 N 
ATOM     13  C   UNL     1      -3.538  10.394  17.269  0.00  0.00    +0.000 C 
ATOM     14  C   UNL     1      -4.947  11.015  17.503  0.00  0.00    +0.000 C 
ATOM     15  N   UNL     1      -5.155  12.046  18.572  0.00  0.00    +0.000 NA
ATOM     16  C   UNL     1      -4.187  12.380  19.350  0.00  0.00    +0.000 C 
ATOM     17  H   UNL     1      -6.263  13.884  20.578  0.00  0.00    +0.000 HD
ENDROOT
BRANCH   1  21
ATOM     18  C   UNL     1      -1.423  16.248  25.582  0.00  0.00    +0.000 A 
ATOM     19  C   UNL     1      -1.318  16.789  24.305  0.00  0.00    +0.000 A 
ATOM     20  C   UNL     1      -2.019  16.230  23.234  0.00  0.00    +0.000 A 
ATOM     21  C   UNL     1      -2.868  15.128  23.408  0.00  0.00    +0.000 A 
ATOM     22  C   UNL     1      -2.966  14.585  24.697  0.00  0.00    +0.000 A 
ATOM     23  C   UNL     1      -2.247  15.140  25.778  0.00  0.00    +0.000 A 
BRANCH  18  25
ATOM     24  C   UNL     1      -0.006  18.069  26.143  0.00  0.00    +0.000 C 
ATOM     25  O   UNL     1      -0.626  16.847  26.514  0.00  0.00    +0.000 OA
ENDBRANCH  18  25
ENDBRANCH   1  21
BRANCH  12  26
ATOM     26  S   UNL     1       0.776  11.152  20.230  0.00  0.00    +0.000 S 
ATOM     27  O   UNL     1       1.482  12.306  19.709  0.00  0.00    +0.000 OA
ATOM     28  O   UNL     1       0.585  10.963  21.657  0.00  0.00    +0.000 OA
BRANCH  26  29
ATOM     29  C   UNL     1       1.442   9.651  19.584  0.00  0.00    +0.000 A 
ATOM     30  C   UNL     1       1.454   8.506  20.381  0.00  0.00    +0.000 A 
ATOM     31  C   UNL     1       1.971   7.318  19.867  0.00  0.00    +0.000 A 
ATOM     32  C   UNL     1       2.466   7.263  18.558  0.00  0.00    +0.000 A 
ATOM     33  C   UNL     1       3.037   5.987  18.011  0.00  0.00    +0.000 C 
ATOM     34  C   UNL     1       2.423   8.412  17.759  0.00  0.00    +0.000 A 
ATOM     35  C   UNL     1       1.908   9.608  18.265  0.00  0.00    +0.000 A 
ENDBRANCH  26  29
ENDBRANCH  12  26
TORSDOF 4
ENDMDL
MODEL 6
REMARK VINA RESULT:      -7.3      1.649      2.702
REMARK  Name = 
REMARK  6 active torsions:
REMARK  status: ('A' for Active; 'I' for Inactive)
REMARK    1  A    between atoms: C_1  and  O_2
REMARK    2  A    between atoms: O_2  and  C_3
REMARK    3  A    between atoms: C_6  and  C_7
REMARK    4  A    between atoms: N_18  and  S_19
REMARK    5  A    between atoms: S_19  and  C_22
REMARK    6  A    between atoms: C_25  and  C_26
REMARK                            x       y       z     vdW  Elec       q    Type
REMARK                         _______ _______ _______ _____ _____    ______ ____
ROOT
ATOM      1  C   UNL     1      -3.937  15.070  22.996  0.00  0.00    +0.000 A 
ATOM      2  C   UNL     1      -5.328  15.079  23.001  0.00  0.00    +0.000 A 
ATOM      3  N   UNL     1      -5.793  14.326  21.943  0.00  0.00    +0.000 N 
ATOM      4  C   UNL     1      -4.729  13.802  21.255  0.00  0.00    +0.000 A 
ATOM      5  C   UNL     1      -3.552  14.293  21.851  0.00  0.00    +0.000 A 
ATOM      6  C   UNL     1      -2.213  13.970  21.307  0.00  0.00    +0.000 C 
ATOM      7  O   UNL     1      -1.202  14.609  21.548  0.00  0.00    +0.000 OA
ATOM      8  C   UNL     1      -2.277  12.888  20.352  0.00  0.00    +0.000 A 
ATOM      9  C   UNL     1      -3.451  12.434  19.786  0.00  0.00    +0.000 A 
ATOM     10  C   UNL     1      -3.163  11.530  18.766  0.00  0.00    +0.000 A 
ATOM     11  C   UNL     1      -1.798  11.336  18.781  0.00  0.00    +0.000 A 
ATOM     12  N   UNL     1      -1.280  12.129  19.792  0.00  0.00    +0.000 N 
ATOM     13  C   UNL     1      -4.251  11.032  17.907  0.00  0.00    +0.000 C 
ATOM     14  C   UNL     1      -5.662  11.494  18.380  0.00  0.00    +0.000 C 
ATOM     15  N   UNL     1      -5.803  12.473  19.507  0.00  0.00    +0.000 NA
ATOM     16  C   UNL     1      -4.764  12.891  20.138  0.00  0.00    +0.000 C 
ATOM     17  H   UNL     1      -6.763  14.138  21.729  0.00  0.00    +0.000 HD
ENDROOT
BRANCH   1  21
ATOM     18  C   UNL     1      -1.525  16.760  26.139  0.00  0.00    +0.000 A 
ATOM     19  C   UNL     1      -1.771  15.393  26.071  0.00  0.00    +0.000 A 
ATOM     20  C   UNL     1      -2.561  14.861  25.049  0.00  0.00    +0.000 A 
ATOM     21  C   UNL     1      -3.110  15.673  24.047  0.00  0.00    +0.000 A 
ATOM     22  C   UNL     1      -2.862  17.051  24.125  0.00  0.00    +0.000 A 
ATOM     23  C   UNL     1      -2.076  17.592  25.165  0.00  0.00    +0.000 A 
BRANCH  18  25
ATOM     24  C   UNL     1      -0.240  18.451  27.201  0.00  0.00    +0.000 C 
ATOM     25  O   UNL     1      -0.802  17.148  27.230  0.00  0.00    +0.000 OA
ENDBRANCH  18  25
ENDBRANCH   1  21
BRANCH  12  26
ATOM     26  S   UNL     1       0.374  12.179  20.195  0.00  0.00    +0.000 S 
ATOM     27  O   UNL     1       0.915  13.292  19.439  0.00  0.00    +0.000 OA
ATOM     28  O   UNL     1       0.418  12.158  21.646  0.00  0.00    +0.000 OA
BRANCH  26  29
ATOM     29  C   UNL     1       1.028  10.643  19.625  0.00  0.00    +0.000 A 
ATOM     30  C   UNL     1       0.960   9.520  20.450  0.00  0.00    +0.000 A 
ATOM     31  C   UNL     1       1.468   8.303  19.996  0.00  0.00    +0.000 A 
ATOM     32  C   UNL     1       2.032   8.199  18.718  0.00  0.00    +0.000 A 
ATOM     33  C   UNL     1       2.593   6.893  18.236  0.00  0.00    +0.000 C 
ATOM     34  C   UNL     1       2.069   9.328  17.889  0.00  0.00    +0.000 A 
ATOM     35  C   UNL     1       1.564  10.551  18.335  0.00  0.00    +0.000 A 
ENDBRANCH  26  29
ENDBRANCH  12  26
TORSDOF 4
ENDMDL
MODEL 7
REMARK VINA RESULT:      -7.2      3.865      7.776
REMARK  Name = 
REMARK  6 active torsions:
REMARK  status: ('A' for Active; 'I' for Inactive)
REMARK    1  A    between atoms: C_1  and  O_2
REMARK    2  A    between atoms: O_2  and  C_3
REMARK    3  A    between atoms: C_6  and  C_7
REMARK    4  A    between atoms: N_18  and  S_19
REMARK    5  A    between atoms: S_19  and  C_22
REMARK    6  A    between atoms: C_25  and  C_26
REMARK                            x       y       z     vdW  Elec       q    Type
REMARK                         _______ _______ _______ _____ _____    ______ ____
ROOT
ATOM      1  C   UNL     1       0.240   9.655  21.460  0.00  0.00    +0.000 A 
ATOM      2  C   UNL     1      -0.387   9.040  22.539  0.00  0.00    +0.000 A 
ATOM      3  N   UNL     1      -1.105   9.981  23.247  0.00  0.00    +0.000 N 
ATOM      4  C   UNL     1      -0.980  11.202  22.637  0.00  0.00    +0.000 A 
ATOM      5  C   UNL     1      -0.100  11.048  21.550  0.00  0.00    +0.000 A 
ATOM      6  C   UNL     1       0.307  12.198  20.711  0.00  0.00    +0.000 C 
ATOM      7  O   UNL     1       1.294  12.209  19.993  0.00  0.00    +0.000 OA
ATOM      8  C   UNL     1      -0.532  13.349  20.948  0.00  0.00    +0.000 A 
ATOM      9  C   UNL     1      -1.383  13.467  22.029  0.00  0.00    +0.000 A 
ATOM     10  C   UNL     1      -1.895  14.761  22.085  0.00  0.00    +0.000 A 
ATOM     11  C   UNL     1      -1.446  15.416  20.959  0.00  0.00    +0.000 A 
ATOM     12  N   UNL     1      -0.662  14.522  20.248  0.00  0.00    +0.000 N 
ATOM     13  C   UNL     1      -2.704  15.173  23.247  0.00  0.00    +0.000 C 
ATOM     14  C   UNL     1      -3.010  13.999  24.224  0.00  0.00    +0.000 C 
ATOM     15  N   UNL     1      -2.381  12.654  24.018  0.00  0.00    +0.000 NA
ATOM     16  C   UNL     1      -1.632  12.437  22.996  0.00  0.00    +0.000 C 
ATOM     17  H   UNL     1      -1.682   9.801  24.058  0.00  0.00    +0.000 HD
ENDROOT
BRANCH   1  21
ATOM     18  C   UNL     1       2.496   7.483  18.504  0.00  0.00    +0.000 A 
ATOM     19  C   UNL     1       2.367   7.011  19.805  0.00  0.00    +0.000 A 
ATOM     20  C   UNL     1       1.637   7.731  20.755  0.00  0.00    +0.000 A 
ATOM     21  C   UNL     1       0.992   8.932  20.429  0.00  0.00    +0.000 A 
ATOM     22  C   UNL     1       1.130   9.403  19.115  0.00  0.00    +0.000 A 
ATOM     23  C   UNL     1       1.879   8.685  18.158  0.00  0.00    +0.000 A 
BRANCH  18  25
ATOM     24  C   UNL     1       3.457   5.355  18.068  0.00  0.00    +0.000 C 
ATOM     25  O   UNL     1       3.297   6.718  17.705  0.00  0.00    +0.000 OA
ENDBRANCH  18  25
ENDBRANCH   1  21
BRANCH  12  26
ATOM     26  S   UNL     1       0.077  14.896  18.760  0.00  0.00    +0.000 S 
ATOM     27  O   UNL     1      -0.162  13.741  17.917  0.00  0.00    +0.000 OA
ATOM     28  O   UNL     1      -0.423  16.211  18.400  0.00  0.00    +0.000 OA
BRANCH  26  29
ATOM     29  C   UNL     1       1.793  15.068  19.134  0.00  0.00    +0.000 A 
ATOM     30  C   UNL     1       2.744  14.678  18.191  0.00  0.00    +0.000 A 
ATOM     31  C   UNL     1       4.100  14.824  18.482  0.00  0.00    +0.000 A 
ATOM     32  C   UNL     1       4.510  15.370  19.705  0.00  0.00    +0.000 A 
ATOM     33  C   UNL     1       5.971  15.513  20.024  0.00  0.00    +0.000 C 
ATOM     34  C   UNL     1       3.546  15.785  20.631  0.00  0.00    +0.000 A 
ATOM     35  C   UNL     1       2.186  15.641  20.349  0.00  0.00    +0.000 A 
ENDBRANCH  26  29
ENDBRANCH  12  26
TORSDOF 4
ENDMDL
MODEL 8
REMARK VINA RESULT:      -7.1      3.248      7.041
REMARK  Name = 
REMARK  6 active torsions:
REMARK  status: ('A' for Active; 'I' for Inactive)
REMARK    1  A    between atoms: C_1  and  O_2
REMARK    2  A    between atoms: O_2  and  C_3
REMARK    3  A    between atoms: C_6  and  C_7
REMARK    4  A    between atoms: N_18  and  S_19
REMARK    5  A    between atoms: S_19  and  C_22
REMARK    6  A    between atoms: C_25  and  C_26
REMARK                            x       y       z     vdW  Elec       q    Type
REMARK                         _______ _______ _______ _____ _____    ______ ____
ROOT
ATOM      1  C   UNL     1      -5.600  11.550  18.707  0.00  0.00    +0.000 A 
ATOM      2  C   UNL     1      -6.985  11.414  18.698  0.00  0.00    +0.000 A 
ATOM      3  N   UNL     1      -7.513  12.051  19.801  0.00  0.00    +0.000 N 
ATOM      4  C   UNL     1      -6.500  12.626  20.523  0.00  0.00    +0.000 A 
ATOM      5  C   UNL     1      -5.285  12.285  19.900  0.00  0.00    +0.000 A 
ATOM      6  C   UNL     1      -3.980  12.695  20.466  0.00  0.00    +0.000 C 
ATOM      7  O   UNL     1      -2.914  12.169  20.187  0.00  0.00    +0.000 OA
ATOM      8  C   UNL     1      -4.139  13.703  21.488  0.00  0.00    +0.000 A 
ATOM      9  C   UNL     1      -5.348  14.009  22.080  0.00  0.00    +0.000 A 
ATOM     10  C   UNL     1      -5.141  14.869  23.156  0.00  0.00    +0.000 A 
ATOM     11  C   UNL     1      -3.800  15.189  23.156  0.00  0.00    +0.000 A 
ATOM     12  N   UNL     1      -3.215  14.513  22.098  0.00  0.00    +0.000 N 
ATOM     13  C   UNL     1      -6.268  15.210  24.042  0.00  0.00    +0.000 C 
ATOM     14  C   UNL     1      -7.631  14.650  23.538  0.00  0.00    +0.000 C 
ATOM     15  N   UNL     1      -7.686  13.737  22.351  0.00  0.00    +0.000 NA
ATOM     16  C   UNL     1      -6.615  13.458  21.696  0.00  0.00    +0.000 C 
ATOM     17  H   UNL     1      -8.496  12.136  20.024  0.00  0.00    +0.000 HD
ENDROOT
BRANCH   1  21
ATOM     18  C   UNL     1      -3.092  10.258  15.453  0.00  0.00    +0.000 A 
ATOM     19  C   UNL     1      -3.962  11.334  15.312  0.00  0.00    +0.000 A 
ATOM     20  C   UNL     1      -4.774  11.737  16.375  0.00  0.00    +0.000 A 
ATOM     21  C   UNL     1      -4.726  11.095  17.620  0.00  0.00    +0.000 A 
ATOM     22  C   UNL     1      -3.849  10.008  17.753  0.00  0.00    +0.000 A 
ATOM     23  C   UNL     1      -3.038   9.591  16.676  0.00  0.00    +0.000 A 
BRANCH  18  25
ATOM     24  C   UNL     1      -3.194   9.683  13.151  0.00  0.00    +0.000 C 
ATOM     25  O   UNL     1      -2.416   9.929  14.313  0.00  0.00    +0.000 OA
ENDBRANCH  18  25
ENDBRANCH   1  21
BRANCH  12  26
ATOM     26  S   UNL     1      -1.564  14.642  21.697  0.00  0.00    +0.000 S 
ATOM     27  O   UNL     1      -1.543  15.055  20.307  0.00  0.00    +0.000 OA
ATOM     28  O   UNL     1      -0.977  15.464  22.739  0.00  0.00    +0.000 OA
BRANCH  26  29
ATOM     29  C   UNL     1      -0.921  13.010  21.888  0.00  0.00    +0.000 A 
ATOM     30  C   UNL     1       0.072  12.557  21.019  0.00  0.00    +0.000 A 
ATOM     31  C   UNL     1       0.588  11.272  21.176  0.00  0.00    +0.000 A 
ATOM     32  C   UNL     1       0.127  10.440  22.205  0.00  0.00    +0.000 A 
ATOM     33  C   UNL     1       0.672   9.050  22.364  0.00  0.00    +0.000 C 
ATOM     34  C   UNL     1      -0.850  10.917  23.088  0.00  0.00    +0.000 A 
ATOM     35  C   UNL     1      -1.374  12.202  22.937  0.00  0.00    +0.000 A 
ENDBRANCH  26  29
ENDBRANCH  12  26
TORSDOF 4
ENDMDL
MODEL 9
REMARK VINA RESULT:      -7.0      4.585      7.583
REMARK  Name = 
REMARK  6 active torsions:
REMARK  status: ('A' for Active; 'I' for Inactive)
REMARK    1  A    between atoms: C_1  and  O_2
REMARK    2  A    between atoms: O_2  and  C_3
REMARK    3  A    between atoms: C_6  and  C_7
REMARK    4  A    between atoms: N_18  and  S_19
REMARK    5  A    between atoms: S_19  and  C_22
REMARK    6  A    between atoms: C_25  and  C_26
REMARK                            x       y       z     vdW  Elec       q    Type
REMARK                         _______ _______ _______ _____ _____    ______ ____
ROOT
ATOM      1  C   UNL     1       2.308  16.233  20.677  0.00  0.00    +0.000 A 
ATOM      2  C   UNL     1       2.219  17.511  21.220  0.00  0.00    +0.000 A 
ATOM      3  N   UNL     1       1.149  17.565  22.088  0.00  0.00    +0.000 N 
ATOM      4  C   UNL     1       0.546  16.335  22.144  0.00  0.00    +0.000 A 
ATOM      5  C   UNL     1       1.209  15.493  21.232  0.00  0.00    +0.000 A 
ATOM      6  C   UNL     1       0.763  14.101  20.995  0.00  0.00    +0.000 C 
ATOM      7  O   UNL     1       1.058  13.444  20.010  0.00  0.00    +0.000 OA
ATOM      8  C   UNL     1      -0.170  13.664  22.007  0.00  0.00    +0.000 A 
ATOM      9  C   UNL     1      -0.804  14.521  22.885  0.00  0.00    +0.000 A 
ATOM     10  C   UNL     1      -1.782  13.828  23.594  0.00  0.00    +0.000 A 
ATOM     11  C   UNL     1      -1.671  12.502  23.232  0.00  0.00    +0.000 A 
ATOM     12  N   UNL     1      -0.645  12.412  22.306  0.00  0.00    +0.000 N 
ATOM     13  C   UNL     1      -2.701  14.568  24.477  0.00  0.00    +0.000 C 
ATOM     14  C   UNL     1      -2.335  16.076  24.614  0.00  0.00    +0.000 C 
ATOM     15  N   UNL     1      -1.241  16.671  23.779  0.00  0.00    +0.000 NA
ATOM     16  C   UNL     1      -0.550  15.929  22.988  0.00  0.00    +0.000 C 
ATOM     17  H   UNL     1       0.875  18.364  22.644  0.00  0.00    +0.000 HD
ENDROOT
BRANCH   1  21
ATOM     18  C   UNL     1       5.577  14.954  18.182  0.00  0.00    +0.000 A 
ATOM     19  C   UNL     1       5.732  15.104  19.556  0.00  0.00    +0.000 A 
ATOM     20  C   UNL     1       4.663  15.526  20.351  0.00  0.00    +0.000 A 
ATOM     21  C   UNL     1       3.400  15.788  19.804  0.00  0.00    +0.000 A 
ATOM     22  C   UNL     1       3.253  15.639  18.417  0.00  0.00    +0.000 A 
ATOM     23  C   UNL     1       4.335  15.226  17.610  0.00  0.00    +0.000 A 
BRANCH  18  25
ATOM     24  C   UNL     1       7.884  15.375  17.804  0.00  0.00    +0.000 C 
ATOM     25  O   UNL     1       6.722  14.610  17.522  0.00  0.00    +0.000 OA
ENDBRANCH  18  25
ENDBRANCH   1  21
BRANCH  12  26
ATOM     26  S   UNL     1      -0.133  10.945  21.608  0.00  0.00    +0.000 S 
ATOM     27  O   UNL     1       1.310  11.048  21.526  0.00  0.00    +0.000 OA
ATOM     28  O   UNL     1      -0.774   9.902  22.389  0.00  0.00    +0.000 OA
BRANCH  26  29
ATOM     29  C   UNL     1      -0.865  10.925  20.003  0.00  0.00    +0.000 A 
ATOM     30  C   UNL     1      -0.359  10.064  19.028  0.00  0.00    +0.000 A 
ATOM     31  C   UNL     1      -0.944  10.040  17.763  0.00  0.00    +0.000 A 
ATOM     32  C   UNL     1      -2.038  10.863  17.469  0.00  0.00    +0.000 A 
ATOM     33  C   UNL     1      -2.657  10.849  16.101  0.00  0.00    +0.000 C 
ATOM     34  C   UNL     1      -2.555  11.702  18.464  0.00  0.00    +0.000 A 
ATOM     35  C   UNL     1      -1.975  11.734  19.734  0.00  0.00    +0.000 A 
ENDBRANCH  26  29
ENDBRANCH  12  26
TORSDOF 4
ENDMDL
