MODEL 1
REMARK VINA RESULT:      -7.4      0.000      0.000
REMARK  Name = 
REMARK  8 active torsions:
REMARK  status: ('A' for Active; 'I' for Inactive)
REMARK    1  A    between atoms: C_1  and  C_2
REMARK    2  A    between atoms: C_7  and  S_8
REMARK    3  A    between atoms: S_8  and  C_11
REMARK    4  A    between atoms: C_11  and  C_12
REMARK    5  A    between atoms: C_11  and  C_13
REMARK    6  A    between atoms: C_13  and  C_14
REMARK    7  A    between atoms: N_16  and  C_17
REMARK    8  A    between atoms: C_17  and  C_18
REMARK                            x       y       z     vdW  Elec       q    Type
REMARK                         _______ _______ _______ _____ _____    ______ ____
ROOT
ATOM      1  S   UNL     1       3.715   2.417  19.584  0.00  0.00    +0.000 S 
ATOM      2  O   UNL     1       3.163   1.527  18.579  0.00  0.00    +0.000 OA
ATOM      3  O   UNL     1       4.761   1.954  20.467  0.00  0.00    +0.000 OA
ENDROOT
BRANCH   1  10
ATOM      4  C   UNL     1       2.396   4.263  17.124  0.00  0.00    +0.000 C 
ATOM      5  C   UNL     1       3.774   4.537  17.660  0.00  0.00    +0.000 A 
ATOM      6  C   UNL     1       4.457   5.607  17.044  0.00  0.00    +0.000 A 
ATOM      7  C   UNL     1       5.667   6.068  17.542  0.00  0.00    +0.000 A 
ATOM      8  C   UNL     1       6.276   5.421  18.617  0.00  0.00    +0.000 A 
ATOM      9  C   UNL     1       5.652   4.317  19.206  0.00  0.00    +0.000 A 
ATOM     10  C   UNL     1       4.396   3.874  18.745  0.00  0.00    +0.000 A 
ATOM     11  O   UNL     1       7.442   5.858  19.188  0.00  0.00    +0.000 OA
ATOM     12  C   UNL     1       8.146   6.816  18.403  0.00  0.00    +0.000 C 
ATOM     13  C   UNL     1       7.330   7.802  17.569  0.00  0.00    +0.000 C 
ATOM     14  O   UNL     1       7.678   8.950  17.319  0.00  0.00    +0.000 OA
ATOM     15  N   UNL     1       6.194   7.256  17.035  0.00  0.00    +0.000 N 
ATOM     16  H   UNL     1       5.663   7.829  16.392  0.00  0.00    +0.000 HD
ENDBRANCH   1  10
BRANCH   1  17
ATOM     17  C   UNL     1       2.348   3.000  20.603  0.00  0.00    +0.000 C 
ATOM     18  C   UNL     1       2.005   1.979  21.688  0.00  0.00    +0.000 C 
BRANCH  17  19
ATOM     19  C   UNL     1       2.670   4.367  21.239  0.00  0.00    +0.000 C 
BRANCH  19  20
ATOM     20  C   UNL     1       1.619   5.398  20.853  0.00  0.00    +0.000 C 
ATOM     21  O   UNL     1       0.537   5.076  20.376  0.00  0.00    +0.000 OA
ATOM     22  N   UNL     1       1.980   6.706  21.062  0.00  0.00    +0.000 N 
ATOM     23  H   UNL     1       2.871   6.936  21.486  0.00  0.00    +0.000 HD
BRANCH  22  24
ATOM     24  C   UNL     1       1.064   7.798  20.788  0.00  0.00    +0.000 C 
BRANCH  24  25
ATOM     25  C   UNL     1       1.492   8.540  19.572  0.00  0.00    +0.000 A 
ATOM     26  C   UNL     1       1.213   9.797  19.072  0.00  0.00    +0.000 A 
ATOM     27  C   UNL     1       1.897   9.903  17.836  0.00  0.00    +0.000 A 
ATOM     28  C   UNL     1       2.551   8.708  17.661  0.00  0.00    +0.000 A 
ATOM     29  O   UNL     1       2.314   7.873  18.704  0.00  0.00    +0.000 OA
ENDBRANCH  24  25
ENDBRANCH  22  24
ENDBRANCH  19  20
ENDBRANCH  17  19
ENDBRANCH   1  17
TORSDOF 6
ENDMDL
MODEL 2
REMARK VINA RESULT:      -7.4      1.033      1.550
REMARK  Name = 
REMARK  8 active torsions:
REMARK  status: ('A' for Active; 'I' for Inactive)
REMARK    1  A    between atoms: C_1  and  C_2
REMARK    2  A    between atoms: C_7  and  S_8
REMARK    3  A    between atoms: S_8  and  C_11
REMARK    4  A    between atoms: C_11  and  C_12
REMARK    5  A    between atoms: C_11  and  C_13
REMARK    6  A    between atoms: C_13  and  C_14
REMARK    7  A    between atoms: N_16  and  C_17
REMARK    8  A    between atoms: C_17  and  C_18
REMARK                            x       y       z     vdW  Elec       q    Type
REMARK                         _______ _______ _______ _____ _____    ______ ____
ROOT
ATOM      1  S   UNL     1       3.837   2.313  19.594  0.00  0.00    +0.000 S 
ATOM      2  O   UNL     1       3.324   1.368  18.619  0.00  0.00    +0.000 OA
ATOM      3  O   UNL     1       4.838   1.897  20.550  0.00  0.00    +0.000 OA
ENDROOT
BRANCH   1  10
ATOM      4  C   UNL     1       2.825   3.796  16.770  0.00  0.00    +0.000 C 
ATOM      5  C   UNL     1       4.089   4.215  17.469  0.00  0.00    +0.000 A 
ATOM      6  C   UNL     1       4.806   5.255  16.841  0.00  0.00    +0.000 A 
ATOM      7  C   UNL     1       5.901   5.845  17.456  0.00  0.00    +0.000 A 
ATOM      8  C   UNL     1       6.367   5.357  18.676  0.00  0.00    +0.000 A 
ATOM      9  C   UNL     1       5.714   4.285  19.290  0.00  0.00    +0.000 A 
ATOM     10  C   UNL     1       4.567   3.713  18.702  0.00  0.00    +0.000 A 
ATOM     11  O   UNL     1       7.408   5.929  19.359  0.00  0.00    +0.000 OA
ATOM     12  C   UNL     1       8.178   6.842  18.581  0.00  0.00    +0.000 C 
ATOM     13  C   UNL     1       7.454   7.678  17.528  0.00  0.00    +0.000 C 
ATOM     14  O   UNL     1       7.780   8.812  17.202  0.00  0.00    +0.000 OA
ATOM     15  N   UNL     1       6.441   7.004  16.898  0.00  0.00    +0.000 N 
ATOM     16  H   UNL     1       5.989   7.469  16.122  0.00  0.00    +0.000 HD
ENDBRANCH   1  10
BRANCH   1  17
ATOM     17  C   UNL     1       2.430   2.963  20.513  0.00  0.00    +0.000 C 
ATOM     18  C   UNL     1       2.054   2.030  21.663  0.00  0.00    +0.000 C 
BRANCH  17  19
ATOM     19  C   UNL     1       2.720   4.379  21.048  0.00  0.00    +0.000 C 
BRANCH  19  20
ATOM     20  C   UNL     1       2.062   5.430  20.165  0.00  0.00    +0.000 C 
ATOM     21  O   UNL     1       1.129   5.159  19.417  0.00  0.00    +0.000 OA
ATOM     22  N   UNL     1       2.600   6.689  20.256  0.00  0.00    +0.000 N 
ATOM     23  H   UNL     1       3.352   6.886  20.906  0.00  0.00    +0.000 HD
BRANCH  22  24
ATOM     24  C   UNL     1       2.047   7.806  19.511  0.00  0.00    +0.000 C 
BRANCH  24  25
ATOM     25  C   UNL     1       1.213   8.659  20.400  0.00  0.00    +0.000 A 
ATOM     26  C   UNL     1       0.897   8.614  21.745  0.00  0.00    +0.000 A 
ATOM     27  C   UNL     1       0.012   9.693  21.989  0.00  0.00    +0.000 A 
ATOM     28  C   UNL     1      -0.154  10.328  20.782  0.00  0.00    +0.000 A 
ATOM     29  O   UNL     1       0.568   9.712  19.812  0.00  0.00    +0.000 OA
ENDBRANCH  24  25
ENDBRANCH  22  24
ENDBRANCH  19  20
ENDBRANCH  17  19
ENDBRANCH   1  17
TORSDOF 6
ENDMDL
MODEL 3
REMARK VINA RESULT:      -7.4      3.726      7.128
REMARK  Name = 
REMARK  8 active torsions:
REMARK  status: ('A' for Active; 'I' for Inactive)
REMARK    1  A    between atoms: C_1  and  C_2
REMARK    2  A    between atoms: C_7  and  S_8
REMARK    3  A    between atoms: S_8  and  C_11
REMARK    4  A    between atoms: C_11  and  C_12
REMARK    5  A    between atoms: C_11  and  C_13
REMARK    6  A    between atoms: C_13  and  C_14
REMARK    7  A    between atoms: N_16  and  C_17
REMARK    8  A    between atoms: C_17  and  C_18
REMARK                            x       y       z     vdW  Elec       q    Type
REMARK                         _______ _______ _______ _____ _____    ______ ____
ROOT
ATOM      1  S   UNL     1       4.847   4.390  18.079  0.00  0.00    +0.000 S 
ATOM      2  O   UNL     1       5.380   3.654  19.211  0.00  0.00    +0.000 OA
ATOM      3  O   UNL     1       4.144   3.692  17.027  0.00  0.00    +0.000 OA
ENDROOT
BRANCH   1  10
ATOM      4  C   UNL     1       2.919   4.313  20.813  0.00  0.00    +0.000 C 
ATOM      5  C   UNL     1       2.861   5.460  19.842  0.00  0.00    +0.000 A 
ATOM      6  C   UNL     1       1.936   6.474  20.165  0.00  0.00    +0.000 A 
ATOM      7  C   UNL     1       1.890   7.660  19.445  0.00  0.00    +0.000 A 
ATOM      8  C   UNL     1       2.705   7.834  18.327  0.00  0.00    +0.000 A 
ATOM      9  C   UNL     1       3.586   6.818  17.946  0.00  0.00    +0.000 A 
ATOM     10  C   UNL     1       3.682   5.632  18.702  0.00  0.00    +0.000 A 
ATOM     11  O   UNL     1       2.745   8.998  17.607  0.00  0.00    +0.000 OA
ATOM     12  C   UNL     1       1.666   9.887  17.884  0.00  0.00    +0.000 C 
ATOM     13  C   UNL     1       1.121   9.932  19.310  0.00  0.00    +0.000 C 
ATOM     14  O   UNL     1       0.653  10.933  19.840  0.00  0.00    +0.000 OA
ATOM     15  N   UNL     1       1.113   8.712  19.931  0.00  0.00    +0.000 N 
ATOM     16  H   UNL     1       0.672   8.657  20.839  0.00  0.00    +0.000 HD
ENDBRANCH   1  10
BRANCH   1  17
ATOM     17  C   UNL     1       6.214   5.292  17.327  0.00  0.00    +0.000 C 
ATOM     18  C   UNL     1       7.087   5.947  18.395  0.00  0.00    +0.000 C 
BRANCH  17  19
ATOM     19  C   UNL     1       7.065   4.370  16.432  0.00  0.00    +0.000 C 
BRANCH  19  20
ATOM     20  C   UNL     1       6.816   4.671  14.961  0.00  0.00    +0.000 C 
ATOM     21  O   UNL     1       7.529   5.439  14.325  0.00  0.00    +0.000 OA
ATOM     22  N   UNL     1       5.731   4.036  14.411  0.00  0.00    +0.000 N 
ATOM     23  H   UNL     1       5.180   3.384  14.957  0.00  0.00    +0.000 HD
BRANCH  22  24
ATOM     24  C   UNL     1       5.397   4.186  13.006  0.00  0.00    +0.000 C 
BRANCH  24  25
ATOM     25  C   UNL     1       6.067   3.131  12.199  0.00  0.00    +0.000 A 
ATOM     26  C   UNL     1       7.349   2.974  11.708  0.00  0.00    +0.000 A 
ATOM     27  C   UNL     1       7.354   1.766  10.968  0.00  0.00    +0.000 A 
ATOM     28  C   UNL     1       6.080   1.262  11.055  0.00  0.00    +0.000 A 
ATOM     29  O   UNL     1       5.290   2.079  11.798  0.00  0.00    +0.000 OA
ENDBRANCH  24  25
ENDBRANCH  22  24
ENDBRANCH  19  20
ENDBRANCH  17  19
ENDBRANCH   1  17
TORSDOF 6
ENDMDL
MODEL 4
REMARK VINA RESULT:      -7.2      3.061      6.719
REMARK  Name = 
REMARK  8 active torsions:
REMARK  status: ('A' for Active; 'I' for Inactive)
REMARK    1  A    between atoms: C_1  and  C_2
REMARK    2  A    between atoms: C_7  and  S_8
REMARK    3  A    between atoms: S_8  and  C_11
REMARK    4  A    between atoms: C_11  and  C_12
REMARK    5  A    between atoms: C_11  and  C_13
REMARK    6  A    between atoms: C_13  and  C_14
REMARK    7  A    between atoms: N_16  and  C_17
REMARK    8  A    between atoms: C_17  and  C_18
REMARK                            x       y       z     vdW  Elec       q    Type
REMARK                         _______ _______ _______ _____ _____    ______ ____
ROOT
ATOM      1  S   UNL     1       4.975   5.907  16.575  0.00  0.00    +0.000 S 
ATOM      2  O   UNL     1       4.587   4.528  16.344  0.00  0.00    +0.000 OA
ATOM      3  O   UNL     1       5.027   6.840  15.473  0.00  0.00    +0.000 OA
ENDROOT
BRANCH   1  10
ATOM      4  C   UNL     1       4.072   4.794  19.599  0.00  0.00    +0.000 C 
ATOM      5  C   UNL     1       3.461   6.032  19.002  0.00  0.00    +0.000 A 
ATOM      6  C   UNL     1       2.485   6.665  19.800  0.00  0.00    +0.000 A 
ATOM      7  C   UNL     1       1.955   7.897  19.443  0.00  0.00    +0.000 A 
ATOM      8  C   UNL     1       2.317   8.494  18.236  0.00  0.00    +0.000 A 
ATOM      9  C   UNL     1       3.235   7.857  17.395  0.00  0.00    +0.000 A 
ATOM     10  C   UNL     1       3.822   6.632  17.772  0.00  0.00    +0.000 A 
ATOM     11  O   UNL     1       1.872   9.731  17.852  0.00  0.00    +0.000 OA
ATOM     12  C   UNL     1       0.767  10.210  18.615  0.00  0.00    +0.000 C 
ATOM     13  C   UNL     1       0.703   9.841  20.096  0.00  0.00    +0.000 C 
ATOM     14  O   UNL     1       0.218  10.554  20.966  0.00  0.00    +0.000 OA
ATOM     15  N   UNL     1       1.160   8.578  20.365  0.00  0.00    +0.000 N 
ATOM     16  H   UNL     1       1.050   8.238  21.311  0.00  0.00    +0.000 HD
ENDBRANCH   1  10
BRANCH   1  17
ATOM     17  C   UNL     1       6.596   5.890  17.362  0.00  0.00    +0.000 C 
ATOM     18  C   UNL     1       7.361   4.616  17.006  0.00  0.00    +0.000 C 
BRANCH  17  19
ATOM     19  C   UNL     1       7.418   7.134  16.971  0.00  0.00    +0.000 C 
BRANCH  19  20
ATOM     20  C   UNL     1       8.130   7.711  18.187  0.00  0.00    +0.000 C 
ATOM     21  O   UNL     1       8.430   7.019  19.153  0.00  0.00    +0.000 OA
ATOM     22  N   UNL     1       8.390   9.057  18.127  0.00  0.00    +0.000 N 
ATOM     23  H   UNL     1       8.155   9.594  17.300  0.00  0.00    +0.000 HD
BRANCH  22  24
ATOM     24  C   UNL     1       9.106   9.739  19.190  0.00  0.00    +0.000 C 
BRANCH  24  25
ATOM     25  C   UNL     1       9.351  11.159  18.821  0.00  0.00    +0.000 A 
ATOM     26  C   UNL     1       9.849  11.781  17.692  0.00  0.00    +0.000 A 
ATOM     27  C   UNL     1       9.878  13.169  17.974  0.00  0.00    +0.000 A 
ATOM     28  C   UNL     1       9.396  13.307  19.253  0.00  0.00    +0.000 A 
ATOM     29  O   UNL     1       9.072  12.098  19.777  0.00  0.00    +0.000 OA
ENDBRANCH  24  25
ENDBRANCH  22  24
ENDBRANCH  19  20
ENDBRANCH  17  19
ENDBRANCH   1  17
TORSDOF 6
ENDMDL
MODEL 5
REMARK VINA RESULT:      -7.2      2.664      3.340
REMARK  Name = 
REMARK  8 active torsions:
REMARK  status: ('A' for Active; 'I' for Inactive)
REMARK    1  A    between atoms: C_1  and  C_2
REMARK    2  A    between atoms: C_7  and  S_8
REMARK    3  A    between atoms: S_8  and  C_11
REMARK    4  A    between atoms: C_11  and  C_12
REMARK    5  A    between atoms: C_11  and  C_13
REMARK    6  A    between atoms: C_13  and  C_14
REMARK    7  A    between atoms: N_16  and  C_17
REMARK    8  A    between atoms: C_17  and  C_18
REMARK                            x       y       z     vdW  Elec       q    Type
REMARK                         _______ _______ _______ _____ _____    ______ ____
ROOT
ATOM      1  S   UNL     1       3.806   2.841  18.740  0.00  0.00    +0.000 S 
ATOM      2  O   UNL     1       3.509   1.588  18.071  0.00  0.00    +0.000 OA
ATOM      3  O   UNL     1       4.408   2.836  20.054  0.00  0.00    +0.000 OA
ENDROOT
BRANCH   1  10
ATOM      4  C   UNL     1       5.822   5.386  19.552  0.00  0.00    +0.000 C 
ATOM      5  C   UNL     1       5.694   4.906  18.133  0.00  0.00    +0.000 A 
ATOM      6  C   UNL     1       6.468   5.612  17.189  0.00  0.00    +0.000 A 
ATOM      7  C   UNL     1       6.568   5.178  15.874  0.00  0.00    +0.000 A 
ATOM      8  C   UNL     1       5.828   4.078  15.440  0.00  0.00    +0.000 A 
ATOM      9  C   UNL     1       5.002   3.399  16.340  0.00  0.00    +0.000 A 
ATOM     10  C   UNL     1       4.936   3.795  17.691  0.00  0.00    +0.000 A 
ATOM     11  O   UNL     1       5.923   3.569  14.172  0.00  0.00    +0.000 OA
ATOM     12  C   UNL     1       6.575   4.437  13.248  0.00  0.00    +0.000 C 
ATOM     13  C   UNL     1       7.713   5.314  13.766  0.00  0.00    +0.000 C 
ATOM     14  O   UNL     1       8.684   5.651  13.100  0.00  0.00    +0.000 OA
ATOM     15  N   UNL     1       7.508   5.779  15.037  0.00  0.00    +0.000 N 
ATOM     16  H   UNL     1       8.177   6.446  15.399  0.00  0.00    +0.000 HD
ENDBRANCH   1  10
BRANCH   1  17
ATOM     17  C   UNL     1       2.272   3.781  18.838  0.00  0.00    +0.000 C 
ATOM     18  C   UNL     1       1.070   2.848  18.974  0.00  0.00    +0.000 C 
BRANCH  17  19
ATOM     19  C   UNL     1       2.306   4.782  20.011  0.00  0.00    +0.000 C 
BRANCH  19  20
ATOM     20  C   UNL     1       2.191   6.211  19.498  0.00  0.00    +0.000 C 
ATOM     21  O   UNL     1       2.389   6.498  18.323  0.00  0.00    +0.000 OA
ATOM     22  N   UNL     1       1.871   7.148  20.449  0.00  0.00    +0.000 N 
ATOM     23  H   UNL     1       1.685   6.872  21.406  0.00  0.00    +0.000 HD
BRANCH  22  24
ATOM     24  C   UNL     1       1.678   8.544  20.102  0.00  0.00    +0.000 C 
BRANCH  24  25
ATOM     25  C   UNL     1       0.828   9.218  21.121  0.00  0.00    +0.000 A 
ATOM     26  C   UNL     1      -0.078  10.260  21.071  0.00  0.00    +0.000 A 
ATOM     27  C   UNL     1      -0.530  10.466  22.397  0.00  0.00    +0.000 A 
ATOM     28  C   UNL     1       0.125   9.539  23.171  0.00  0.00    +0.000 A 
ATOM     29  O   UNL     1       0.950   8.777  22.410  0.00  0.00    +0.000 OA
ENDBRANCH  24  25
ENDBRANCH  22  24
ENDBRANCH  19  20
ENDBRANCH  17  19
ENDBRANCH   1  17
TORSDOF 6
ENDMDL
MODEL 6
REMARK VINA RESULT:      -7.1      3.485      6.908
REMARK  Name = 
REMARK  8 active torsions:
REMARK  status: ('A' for Active; 'I' for Inactive)
REMARK    1  A    between atoms: C_1  and  C_2
REMARK    2  A    between atoms: C_7  and  S_8
REMARK    3  A    between atoms: S_8  and  C_11
REMARK    4  A    between atoms: C_11  and  C_12
REMARK    5  A    between atoms: C_11  and  C_13
REMARK    6  A    between atoms: C_13  and  C_14
REMARK    7  A    between atoms: N_16  and  C_17
REMARK    8  A    between atoms: C_17  and  C_18
REMARK                            x       y       z     vdW  Elec       q    Type
REMARK                         _______ _______ _______ _____ _____    ______ ____
ROOT
ATOM      1  S   UNL     1       4.198   4.410  18.422  0.00  0.00    +0.000 S 
ATOM      2  O   UNL     1       4.466   3.464  19.489  0.00  0.00    +0.000 OA
ATOM      3  O   UNL     1       3.547   3.968  17.209  0.00  0.00    +0.000 OA
ENDROOT
BRANCH   1  10
ATOM      4  C   UNL     1       2.366   4.476  21.221  0.00  0.00    +0.000 C 
ATOM      5  C   UNL     1       2.359   5.624  20.250  0.00  0.00    +0.000 A 
ATOM      6  C   UNL     1       1.523   6.703  20.602  0.00  0.00    +0.000 A 
ATOM      7  C   UNL     1       1.539   7.889  19.881  0.00  0.00    +0.000 A 
ATOM      8  C   UNL     1       2.325   8.002  18.735  0.00  0.00    +0.000 A 
ATOM      9  C   UNL     1       3.115   6.924  18.326  0.00  0.00    +0.000 A 
ATOM     10  C   UNL     1       3.150   5.734  19.081  0.00  0.00    +0.000 A 
ATOM     11  O   UNL     1       2.427   9.161  18.011  0.00  0.00    +0.000 OA
ATOM     12  C   UNL     1       1.426  10.127  18.324  0.00  0.00    +0.000 C 
ATOM     13  C   UNL     1       0.936  10.213  19.768  0.00  0.00    +0.000 C 
ATOM     14  O   UNL     1       0.562  11.245  20.311  0.00  0.00    +0.000 OA
ATOM     15  N   UNL     1       0.860   8.996  20.392  0.00  0.00    +0.000 N 
ATOM     16  H   UNL     1       0.448   8.974  21.315  0.00  0.00    +0.000 HD
ENDBRANCH   1  10
BRANCH   1  17
ATOM     17  C   UNL     1       5.766   5.170  17.962  0.00  0.00    +0.000 C 
ATOM     18  C   UNL     1       6.513   5.667  19.199  0.00  0.00    +0.000 C 
BRANCH  17  19
ATOM     19  C   UNL     1       6.648   4.189  17.164  0.00  0.00    +0.000 C 
BRANCH  19  20
ATOM     20  C   UNL     1       6.949   4.745  15.779  0.00  0.00    +0.000 C 
ATOM     21  O   UNL     1       7.445   5.855  15.618  0.00  0.00    +0.000 OA
ATOM     22  N   UNL     1       6.610   3.923  14.734  0.00  0.00    +0.000 N 
ATOM     23  H   UNL     1       6.230   3.000  14.903  0.00  0.00    +0.000 HD
BRANCH  22  24
ATOM     24  C   UNL     1       6.883   4.296  13.358  0.00  0.00    +0.000 C 
BRANCH  24  25
ATOM     25  C   UNL     1       6.037   3.500  12.429  0.00  0.00    +0.000 A 
ATOM     26  C   UNL     1       4.742   3.632  11.965  0.00  0.00    +0.000 A 
ATOM     27  C   UNL     1       4.495   2.517  11.128  0.00  0.00    +0.000 A 
ATOM     28  C   UNL     1       5.652   1.777  11.131  0.00  0.00    +0.000 A 
ATOM     29  O   UNL     1       6.594   2.361  11.914  0.00  0.00    +0.000 OA
ENDBRANCH  24  25
ENDBRANCH  22  24
ENDBRANCH  19  20
ENDBRANCH  17  19
ENDBRANCH   1  17
TORSDOF 6
ENDMDL
MODEL 7
REMARK VINA RESULT:      -7.0      3.393      7.183
REMARK  Name = 
REMARK  8 active torsions:
REMARK  status: ('A' for Active; 'I' for Inactive)
REMARK    1  A    between atoms: C_1  and  C_2
REMARK    2  A    between atoms: C_7  and  S_8
REMARK    3  A    between atoms: S_8  and  C_11
REMARK    4  A    between atoms: C_11  and  C_12
REMARK    5  A    between atoms: C_11  and  C_13
REMARK    6  A    between atoms: C_13  and  C_14
REMARK    7  A    between atoms: N_16  and  C_17
REMARK    8  A    between atoms: C_17  and  C_18
REMARK                            x       y       z     vdW  Elec       q    Type
REMARK                         _______ _______ _______ _____ _____    ______ ____
ROOT
ATOM      1  S   UNL     1       6.915   5.579  16.973  0.00  0.00    +0.000 S 
ATOM      2  O   UNL     1       7.767   4.428  17.211  0.00  0.00    +0.000 OA
ATOM      3  O   UNL     1       6.821   6.150  15.648  0.00  0.00    +0.000 OA
ENDROOT
BRANCH   1  10
ATOM      4  C   UNL     1       4.187   7.510  17.129  0.00  0.00    +0.000 C 
ATOM      5  C   UNL     1       4.149   6.062  17.533  0.00  0.00    +0.000 A 
ATOM      6  C   UNL     1       2.897   5.598  17.987  0.00  0.00    +0.000 A 
ATOM      7  C   UNL     1       2.681   4.251  18.242  0.00  0.00    +0.000 A 
ATOM      8  C   UNL     1       3.730   3.339  18.136  0.00  0.00    +0.000 A 
ATOM      9  C   UNL     1       4.999   3.783  17.750  0.00  0.00    +0.000 A 
ATOM     10  C   UNL     1       5.218   5.139  17.434  0.00  0.00    +0.000 A 
ATOM     11  O   UNL     1       3.570   1.992  18.322  0.00  0.00    +0.000 OA
ATOM     12  C   UNL     1       2.338   1.637  18.947  0.00  0.00    +0.000 C 
ATOM     13  C   UNL     1       1.104   2.480  18.632  0.00  0.00    +0.000 C 
ATOM     14  O   UNL     1      -0.040   2.044  18.597  0.00  0.00    +0.000 OA
ATOM     15  N   UNL     1       1.378   3.813  18.480  0.00  0.00    +0.000 N 
ATOM     16  H   UNL     1       0.590   4.438  18.370  0.00  0.00    +0.000 HD
ENDBRANCH   1  10
BRANCH   1  17
ATOM     17  C   UNL     1       7.437   6.884  18.101  0.00  0.00    +0.000 C 
ATOM     18  C   UNL     1       8.156   6.297  19.315  0.00  0.00    +0.000 C 
BRANCH  17  19
ATOM     19  C   UNL     1       8.341   7.909  17.388  0.00  0.00    +0.000 C 
BRANCH  19  20
ATOM     20  C   UNL     1       8.303   9.250  18.108  0.00  0.00    +0.000 C 
ATOM     21  O   UNL     1       7.508  10.130  17.799  0.00  0.00    +0.000 OA
ATOM     22  N   UNL     1       9.230   9.402  19.108  0.00  0.00    +0.000 N 
ATOM     23  H   UNL     1       9.853   8.642  19.357  0.00  0.00    +0.000 HD
BRANCH  22  24
ATOM     24  C   UNL     1       9.282  10.606  19.916  0.00  0.00    +0.000 C 
BRANCH  24  25
ATOM     25  C   UNL     1      10.195  11.605  19.297  0.00  0.00    +0.000 A 
ATOM     26  C   UNL     1      10.002  12.678  18.448  0.00  0.00    +0.000 A 
ATOM     27  C   UNL     1      11.284  13.217  18.179  0.00  0.00    +0.000 A 
ATOM     28  C   UNL     1      12.176  12.443  18.881  0.00  0.00    +0.000 A 
ATOM     29  O   UNL     1      11.530  11.464  19.563  0.00  0.00    +0.000 OA
ENDBRANCH  24  25
ENDBRANCH  22  24
ENDBRANCH  19  20
ENDBRANCH  17  19
ENDBRANCH   1  17
TORSDOF 6
ENDMDL
MODEL 8
REMARK VINA RESULT:      -7.0      2.427      5.826
REMARK  Name = 
REMARK  8 active torsions:
REMARK  status: ('A' for Active; 'I' for Inactive)
REMARK    1  A    between atoms: C_1  and  C_2
REMARK    2  A    between atoms: C_7  and  S_8
REMARK    3  A    between atoms: S_8  and  C_11
REMARK    4  A    between atoms: C_11  and  C_12
REMARK    5  A    between atoms: C_11  and  C_13
REMARK    6  A    between atoms: C_13  and  C_14
REMARK    7  A    between atoms: N_16  and  C_17
REMARK    8  A    between atoms: C_17  and  C_18
REMARK                            x       y       z     vdW  Elec       q    Type
REMARK                         _______ _______ _______ _____ _____    ______ ____
ROOT
ATOM      1  S   UNL     1       5.693   5.934  16.539  0.00  0.00    +0.000 S 
ATOM      2  O   UNL     1       5.950   6.943  15.527  0.00  0.00    +0.000 OA
ATOM      3  O   UNL     1       6.763   5.476  17.395  0.00  0.00    +0.000 OA
ENDROOT
BRANCH   1  10
ATOM      4  C   UNL     1       4.860   4.899  19.610  0.00  0.00    +0.000 C 
ATOM      5  C   UNL     1       4.098   5.994  18.916  0.00  0.00    +0.000 A 
ATOM      6  C   UNL     1       3.016   6.528  19.646  0.00  0.00    +0.000 A 
ATOM      7  C   UNL     1       2.328   7.646  19.194  0.00  0.00    +0.000 A 
ATOM      8  C   UNL     1       2.640   8.210  17.958  0.00  0.00    +0.000 A 
ATOM      9  C   UNL     1       3.666   7.660  17.184  0.00  0.00    +0.000 A 
ATOM     10  C   UNL     1       4.410   6.560  17.657  0.00  0.00    +0.000 A 
ATOM     11  O   UNL     1       2.035   9.342  17.481  0.00  0.00    +0.000 OA
ATOM     12  C   UNL     1       0.849   9.704  18.184  0.00  0.00    +0.000 C 
ATOM     13  C   UNL     1       0.790   9.426  19.684  0.00  0.00    +0.000 C 
ATOM     14  O   UNL     1       0.179  10.115  20.492  0.00  0.00    +0.000 OA
ATOM     15  N   UNL     1       1.414   8.262  20.049  0.00  0.00    +0.000 N 
ATOM     16  H   UNL     1       1.323   7.971  21.013  0.00  0.00    +0.000 HD
ENDBRANCH   1  10
BRANCH   1  17
ATOM     17  C   UNL     1       4.997   4.495  15.706  0.00  0.00    +0.000 C 
ATOM     18  C   UNL     1       5.665   4.275  14.350  0.00  0.00    +0.000 C 
BRANCH  17  19
ATOM     19  C   UNL     1       5.127   3.230  16.577  0.00  0.00    +0.000 C 
BRANCH  19  20
ATOM     20  C   UNL     1       3.773   2.830  17.147  0.00  0.00    +0.000 C 
ATOM     21  O   UNL     1       2.728   3.334  16.753  0.00  0.00    +0.000 OA
ATOM     22  N   UNL     1       3.814   1.884  18.140  0.00  0.00    +0.000 N 
ATOM     23  H   UNL     1       4.693   1.467  18.422  0.00  0.00    +0.000 HD
BRANCH  22  24
ATOM     24  C   UNL     1       2.600   1.367  18.745  0.00  0.00    +0.000 C 
BRANCH  24  25
ATOM     25  C   UNL     1       2.059   2.340  19.732  0.00  0.00    +0.000 A 
ATOM     26  C   UNL     1       0.959   3.176  19.745  0.00  0.00    +0.000 A 
ATOM     27  C   UNL     1       1.013   3.898  20.963  0.00  0.00    +0.000 A 
ATOM     28  C   UNL     1       2.138   3.457  21.616  0.00  0.00    +0.000 A 
ATOM     29  O   UNL     1       2.781   2.514  20.882  0.00  0.00    +0.000 OA
ENDBRANCH  24  25
ENDBRANCH  22  24
ENDBRANCH  19  20
ENDBRANCH  17  19
ENDBRANCH   1  17
TORSDOF 6
ENDMDL
MODEL 9
REMARK VINA RESULT:      -7.0      3.383      6.774
REMARK  Name = 
REMARK  8 active torsions:
REMARK  status: ('A' for Active; 'I' for Inactive)
REMARK    1  A    between atoms: C_1  and  C_2
REMARK    2  A    between atoms: C_7  and  S_8
REMARK    3  A    between atoms: S_8  and  C_11
REMARK    4  A    between atoms: C_11  and  C_12
REMARK    5  A    between atoms: C_11  and  C_13
REMARK    6  A    between atoms: C_13  and  C_14
REMARK    7  A    between atoms: N_16  and  C_17
REMARK    8  A    between atoms: C_17  and  C_18
REMARK                            x       y       z     vdW  Elec       q    Type
REMARK                         _______ _______ _______ _____ _____    ______ ____
ROOT
ATOM      1  S   UNL     1       7.427   4.984  17.648  0.00  0.00    +0.000 S 
ATOM      2  O   UNL     1       7.977   4.700  18.960  0.00  0.00    +0.000 OA
ATOM      3  O   UNL     1       8.021   4.394  16.470  0.00  0.00    +0.000 OA
ENDROOT
BRANCH   1  10
ATOM      4  C   UNL     1       5.436   4.309  15.044  0.00  0.00    +0.000 C 
ATOM      5  C   UNL     1       4.923   4.271  16.457  0.00  0.00    +0.000 A 
ATOM      6  C   UNL     1       3.557   3.947  16.591  0.00  0.00    +0.000 A 
ATOM      7  C   UNL     1       2.991   3.723  17.838  0.00  0.00    +0.000 A 
ATOM      8  C   UNL     1       3.749   3.902  18.995  0.00  0.00    +0.000 A 
ATOM      9  C   UNL     1       5.089   4.286  18.894  0.00  0.00    +0.000 A 
ATOM     10  C   UNL     1       5.691   4.462  17.631  0.00  0.00    +0.000 A 
ATOM     11  O   UNL     1       3.266   3.646  20.251  0.00  0.00    +0.000 OA
ATOM     12  C   UNL     1       1.849   3.503  20.307  0.00  0.00    +0.000 C 
ATOM     13  C   UNL     1       1.143   2.865  19.112  0.00  0.00    +0.000 C 
ATOM     14  O   UNL     1       0.127   2.185  19.191  0.00  0.00    +0.000 OA
ATOM     15  N   UNL     1       1.700   3.199  17.906  0.00  0.00    +0.000 N 
ATOM     16  H   UNL     1       1.218   2.890  17.073  0.00  0.00    +0.000 HD
ENDBRANCH   1  10
BRANCH   1  17
ATOM     17  C   UNL     1       7.431   6.774  17.433  0.00  0.00    +0.000 C 
ATOM     18  C   UNL     1       6.017   7.296  17.188  0.00  0.00    +0.000 C 
BRANCH  17  19
ATOM     19  C   UNL     1       8.058   7.480  18.651  0.00  0.00    +0.000 C 
BRANCH  19  20
ATOM     20  C   UNL     1       8.423   8.918  18.309  0.00  0.00    +0.000 C 
ATOM     21  O   UNL     1       7.942   9.497  17.341  0.00  0.00    +0.000 OA
ATOM     22  N   UNL     1       9.336   9.504  19.149  0.00  0.00    +0.000 N 
ATOM     23  H   UNL     1       9.691   9.007  19.957  0.00  0.00    +0.000 HD
BRANCH  22  24
ATOM     24  C   UNL     1       9.743  10.887  18.978  0.00  0.00    +0.000 C 
BRANCH  24  25
ATOM     25  C   UNL     1       9.293  11.705  20.136  0.00  0.00    +0.000 A 
ATOM     26  C   UNL     1       9.133  11.447  21.484  0.00  0.00    +0.000 A 
ATOM     27  C   UNL     1       8.624  12.634  22.066  0.00  0.00    +0.000 A 
ATOM     28  C   UNL     1       8.507  13.540  21.040  0.00  0.00    +0.000 A 
ATOM     29  O   UNL     1       8.910  12.991  19.866  0.00  0.00    +0.000 OA
ENDBRANCH  24  25
ENDBRANCH  22  24
ENDBRANCH  19  20
ENDBRANCH  17  19
ENDBRANCH   1  17
TORSDOF 6
ENDMDL
