MODEL 1
REMARK VINA RESULT:      -8.7      0.000      0.000
REMARK  Name = 
REMARK  10 active torsions:
REMARK  status: ('A' for Active; 'I' for Inactive)
REMARK    1  A    between atoms: C_1  and  O_2
REMARK    2  A    between atoms: O_2  and  C_3
REMARK    3  A    between atoms: C_5  and  N_6
REMARK    4  A    between atoms: N_6  and  C_7
REMARK    5  A    between atoms: N_10  and  C_11
REMARK    6  A    between atoms: C_11  and  C_12
REMARK    7  A    between atoms: C_12  and  C_13
REMARK    8  A    between atoms: C_24  and  C_25
REMARK    9  A    between atoms: C_29  and  O_30
REMARK   10  A    between atoms: O_30  and  C_31
REMARK                            x       y       z     vdW  Elec       q    Type
REMARK                         _______ _______ _______ _____ _____    ______ ____
ROOT
ATOM      1  C   UNL     1       4.613   5.568  18.080  0.00  0.00    +0.000 A 
ATOM      2  N   UNL     1       5.640   6.501  17.969  0.00  0.00    +0.000 NA
ATOM      3  C   UNL     1       6.475   6.460  16.971  0.00  0.00    +0.000 A 
ATOM      4  N   UNL     1       7.531   7.339  16.845  0.00  0.00    +0.000 N 
ATOM      5  N   UNL     1       6.332   5.455  16.001  0.00  0.00    +0.000 N 
ATOM      6  C   UNL     1       7.083   5.203  14.877  0.00  0.00    +0.000 A 
ATOM      7  C   UNL     1       6.543   4.063  14.331  0.00  0.00    +0.000 A 
ATOM      8  N   UNL     1       5.483   3.620  15.081  0.00  0.00    +0.000 NA
ATOM      9  C   UNL     1       5.381   4.467  16.089  0.00  0.00    +0.000 A 
ATOM     10  C   UNL     1       4.497   4.530  17.200  0.00  0.00    +0.000 A 
ATOM     11  H   UNL     1       7.618   7.812  15.958  0.00  0.00    +0.000 HD
ENDROOT
BRANCH  10  12
ATOM     12  C   UNL     1       3.436   3.488  17.384  0.00  0.00    +0.000 C 
ATOM     13  N   UNL     1       3.853   2.246  17.752  0.00  0.00    +0.000 N 
ATOM     14  O   UNL     1       2.238   3.721  17.242  0.00  0.00    +0.000 OA
ATOM     15  H   UNL     1       4.819   2.080  18.034  0.00  0.00    +0.000 HD
ATOM     16  H   UNL     1       3.160   1.538  17.943  0.00  0.00    +0.000 HD
ENDBRANCH  10  12
BRANCH   1  17
ATOM     17  N   UNL     1       3.726   5.711  19.159  0.00  0.00    +0.000 N 
ATOM     18  H   UNL     1       3.150   4.865  19.243  0.00  0.00    +0.000 HD
BRANCH  17  21
ATOM     19  C   UNL     1       1.247   8.096  20.612  0.00  0.00    +0.000 A 
ATOM     20  C   UNL     1       2.073   6.984  20.420  0.00  0.00    +0.000 A 
ATOM     21  C   UNL     1       2.830   6.824  19.248  0.00  0.00    +0.000 A 
ATOM     22  C   UNL     1       2.758   7.828  18.275  0.00  0.00    +0.000 A 
ATOM     23  C   UNL     1       1.934   8.948  18.454  0.00  0.00    +0.000 A 
ATOM     24  C   UNL     1       1.175   9.073  19.619  0.00  0.00    +0.000 A 
BRANCH  19  26
ATOM     25  C   UNL     1      -0.023   9.353  22.191  0.00  0.00    +0.000 C 
ATOM     26  O   UNL     1       0.583   8.123  21.809  0.00  0.00    +0.000 OA
ENDBRANCH  19  26
BRANCH  23  27
ATOM     27  O   UNL     1       1.970   9.862  17.431  0.00  0.00    +0.000 OA
ATOM     28  C   UNL     1       2.241  11.214  17.786  0.00  0.00    +0.000 C 
ENDBRANCH  23  27
ENDBRANCH  17  21
ENDBRANCH   1  17
BRANCH   4  29
ATOM     29  C   UNL     1       8.023   8.069  18.013  0.00  0.00    +0.000 C 
BRANCH  29  30
ATOM     30  C   UNL     1       7.932   9.582  17.797  0.00  0.00    +0.000 C 
BRANCH  30  31
ATOM     31  C   UNL     1       9.057  10.321  18.482  0.00  0.00    +0.000 A 
ATOM     32  C   UNL     1       9.128  10.377  19.881  0.00  0.00    +0.000 A 
ATOM     33  C   UNL     1      10.155  11.082  20.511  0.00  0.00    +0.000 A 
ATOM     34  C   UNL     1      11.123  11.736  19.750  0.00  0.00    +0.000 A 
ATOM     35  C   UNL     1      11.062  11.687  18.359  0.00  0.00    +0.000 A 
ATOM     36  C   UNL     1      10.031  10.989  17.727  0.00  0.00    +0.000 A 
ENDBRANCH  30  31
ENDBRANCH  29  30
ENDBRANCH   4  29
TORSDOF 8
ENDMDL
MODEL 2
REMARK VINA RESULT:      -8.2      3.046      6.871
REMARK  Name = 
REMARK  10 active torsions:
REMARK  status: ('A' for Active; 'I' for Inactive)
REMARK    1  A    between atoms: C_1  and  O_2
REMARK    2  A    between atoms: O_2  and  C_3
REMARK    3  A    between atoms: C_5  and  N_6
REMARK    4  A    between atoms: N_6  and  C_7
REMARK    5  A    between atoms: N_10  and  C_11
REMARK    6  A    between atoms: C_11  and  C_12
REMARK    7  A    between atoms: C_12  and  C_13
REMARK    8  A    between atoms: C_24  and  C_25
REMARK    9  A    between atoms: C_29  and  O_30
REMARK   10  A    between atoms: O_30  and  C_31
REMARK                            x       y       z     vdW  Elec       q    Type
REMARK                         _______ _______ _______ _____ _____    ______ ____
ROOT
ATOM      1  C   UNL     1       4.732   4.087  19.363  0.00  0.00    +0.000 A 
ATOM      2  N   UNL     1       4.141   5.340  19.230  0.00  0.00    +0.000 NA
ATOM      3  C   UNL     1       2.886   5.521  19.524  0.00  0.00    +0.000 A 
ATOM      4  N   UNL     1       2.251   6.736  19.368  0.00  0.00    +0.000 N 
ATOM      5  N   UNL     1       2.126   4.430  19.975  0.00  0.00    +0.000 N 
ATOM      6  C   UNL     1       0.799   4.370  20.334  0.00  0.00    +0.000 A 
ATOM      7  C   UNL     1       0.566   3.048  20.628  0.00  0.00    +0.000 A 
ATOM      8  N   UNL     1       1.708   2.305  20.470  0.00  0.00    +0.000 NA
ATOM      9  C   UNL     1       2.633   3.157  20.065  0.00  0.00    +0.000 A 
ATOM     10  C   UNL     1       4.002   2.990  19.719  0.00  0.00    +0.000 A 
ATOM     11  H   UNL     1       1.740   7.081  20.166  0.00  0.00    +0.000 HD
ENDROOT
BRANCH  10  12
ATOM     12  C   UNL     1       4.638   1.634  19.775  0.00  0.00    +0.000 C 
ATOM     13  N   UNL     1       4.341   0.775  18.761  0.00  0.00    +0.000 N 
ATOM     14  O   UNL     1       5.413   1.295  20.666  0.00  0.00    +0.000 OA
ATOM     15  H   UNL     1       3.837   1.094  17.935  0.00  0.00    +0.000 HD
ATOM     16  H   UNL     1       4.799  -0.123  18.737  0.00  0.00    +0.000 HD
ENDBRANCH  10  12
BRANCH   1  17
ATOM     17  N   UNL     1       6.102   3.987  19.072  0.00  0.00    +0.000 N 
ATOM     18  H   UNL     1       6.633   3.910  19.949  0.00  0.00    +0.000 HD
BRANCH  17  21
ATOM     19  C   UNL     1       7.302   5.804  16.038  0.00  0.00    +0.000 A 
ATOM     20  C   UNL     1       6.748   4.833  16.879  0.00  0.00    +0.000 A 
ATOM     21  C   UNL     1       6.771   4.971  18.277  0.00  0.00    +0.000 A 
ATOM     22  C   UNL     1       7.344   6.130  18.814  0.00  0.00    +0.000 A 
ATOM     23  C   UNL     1       7.903   7.111  17.984  0.00  0.00    +0.000 A 
ATOM     24  C   UNL     1       7.887   6.940  16.598  0.00  0.00    +0.000 A 
BRANCH  19  26
ATOM     25  C   UNL     1       6.272   4.526  14.309  0.00  0.00    +0.000 C 
ATOM     26  O   UNL     1       7.190   5.540  14.699  0.00  0.00    +0.000 OA
ENDBRANCH  19  26
BRANCH  23  27
ATOM     27  O   UNL     1       8.417   8.201  18.640  0.00  0.00    +0.000 OA
ATOM     28  C   UNL     1       8.303   9.459  17.984  0.00  0.00    +0.000 C 
ENDBRANCH  23  27
ENDBRANCH  17  21
ENDBRANCH   1  17
BRANCH   4  29
ATOM     29  C   UNL     1       2.814   7.750  18.478  0.00  0.00    +0.000 C 
BRANCH  29  30
ATOM     30  C   UNL     1       1.709   8.505  17.732  0.00  0.00    +0.000 C 
BRANCH  30  31
ATOM     31  C   UNL     1       1.382   9.825  18.389  0.00  0.00    +0.000 A 
ATOM     32  C   UNL     1       2.117  10.978  18.082  0.00  0.00    +0.000 A 
ATOM     33  C   UNL     1       1.829  12.192  18.710  0.00  0.00    +0.000 A 
ATOM     34  C   UNL     1       0.801  12.265  19.649  0.00  0.00    +0.000 A 
ATOM     35  C   UNL     1       0.064  11.125  19.963  0.00  0.00    +0.000 A 
ATOM     36  C   UNL     1       0.356   9.909  19.341  0.00  0.00    +0.000 A 
ENDBRANCH  30  31
ENDBRANCH  29  30
ENDBRANCH   4  29
TORSDOF 8
ENDMDL
MODEL 3
REMARK VINA RESULT:      -8.1      3.713      7.517
REMARK  Name = 
REMARK  10 active torsions:
REMARK  status: ('A' for Active; 'I' for Inactive)
REMARK    1  A    between atoms: C_1  and  O_2
REMARK    2  A    between atoms: O_2  and  C_3
REMARK    3  A    between atoms: C_5  and  N_6
REMARK    4  A    between atoms: N_6  and  C_7
REMARK    5  A    between atoms: N_10  and  C_11
REMARK    6  A    between atoms: C_11  and  C_12
REMARK    7  A    between atoms: C_12  and  C_13
REMARK    8  A    between atoms: C_24  and  C_25
REMARK    9  A    between atoms: C_29  and  O_30
REMARK   10  A    between atoms: O_30  and  C_31
REMARK                            x       y       z     vdW  Elec       q    Type
REMARK                         _______ _______ _______ _____ _____    ______ ____
ROOT
ATOM      1  C   UNL     1       3.003   5.050  18.240  0.00  0.00    +0.000 A 
ATOM      2  N   UNL     1       2.655   6.039  19.157  0.00  0.00    +0.000 NA
ATOM      3  C   UNL     1       2.198   5.727  20.335  0.00  0.00    +0.000 A 
ATOM      4  N   UNL     1       1.803   6.674  21.257  0.00  0.00    +0.000 N 
ATOM      5  N   UNL     1       2.055   4.373  20.675  0.00  0.00    +0.000 N 
ATOM      6  C   UNL     1       1.592   3.801  21.838  0.00  0.00    +0.000 A 
ATOM      7  C   UNL     1       1.600   2.447  21.602  0.00  0.00    +0.000 A 
ATOM      8  N   UNL     1       2.062   2.177  20.338  0.00  0.00    +0.000 NA
ATOM      9  C   UNL     1       2.318   3.352  19.794  0.00  0.00    +0.000 A 
ATOM     10  C   UNL     1       2.797   3.728  18.509  0.00  0.00    +0.000 A 
ATOM     11  H   UNL     1       2.195   6.590  22.183  0.00  0.00    +0.000 HD
ENDROOT
BRANCH  10  12
ATOM     12  C   UNL     1       3.100   2.683  17.478  0.00  0.00    +0.000 C 
ATOM     13  N   UNL     1       4.006   1.726  17.823  0.00  0.00    +0.000 N 
ATOM     14  O   UNL     1       2.555   2.651  16.378  0.00  0.00    +0.000 OA
ATOM     15  H   UNL     1       4.340   1.642  18.782  0.00  0.00    +0.000 HD
ATOM     16  H   UNL     1       4.187   0.975  17.175  0.00  0.00    +0.000 HD
ENDBRANCH  10  12
BRANCH   1  17
ATOM     17  N   UNL     1       3.534   5.470  17.010  0.00  0.00    +0.000 N 
ATOM     18  H   UNL     1       2.975   5.074  16.244  0.00  0.00    +0.000 HD
BRANCH  17  21
ATOM     19  C   UNL     1       7.182   4.812  17.459  0.00  0.00    +0.000 A 
ATOM     20  C   UNL     1       5.842   5.123  17.713  0.00  0.00    +0.000 A 
ATOM     21  C   UNL     1       4.906   5.245  16.672  0.00  0.00    +0.000 A 
ATOM     22  C   UNL     1       5.345   5.019  15.362  0.00  0.00    +0.000 A 
ATOM     23  C   UNL     1       6.685   4.707  15.094  0.00  0.00    +0.000 A 
ATOM     24  C   UNL     1       7.601   4.612  16.144  0.00  0.00    +0.000 A 
BRANCH  19  26
ATOM     25  C   UNL     1       7.917   5.780  19.511  0.00  0.00    +0.000 C 
ATOM     26  O   UNL     1       7.972   4.711  18.574  0.00  0.00    +0.000 OA
ENDBRANCH  19  26
BRANCH  23  27
ATOM     27  O   UNL     1       6.977   4.495  13.770  0.00  0.00    +0.000 OA
ATOM     28  C   UNL     1       6.055   3.704  13.026  0.00  0.00    +0.000 C 
ENDBRANCH  23  27
ENDBRANCH  17  21
ENDBRANCH   1  17
BRANCH   4  29
ATOM     29  C   UNL     1       1.470   8.030  20.821  0.00  0.00    +0.000 C 
BRANCH  29  30
ATOM     30  C   UNL     1       1.020   8.895  22.002  0.00  0.00    +0.000 C 
BRANCH  30  31
ATOM     31  C   UNL     1       0.096  10.008  21.569  0.00  0.00    +0.000 A 
ATOM     32  C   UNL     1      -0.510  10.844  22.517  0.00  0.00    +0.000 A 
ATOM     33  C   UNL     1      -1.383  11.857  22.115  0.00  0.00    +0.000 A 
ATOM     34  C   UNL     1      -1.657  12.046  20.762  0.00  0.00    +0.000 A 
ATOM     35  C   UNL     1      -1.061  11.221  19.810  0.00  0.00    +0.000 A 
ATOM     36  C   UNL     1      -0.193  10.203  20.211  0.00  0.00    +0.000 A 
ENDBRANCH  30  31
ENDBRANCH  29  30
ENDBRANCH   4  29
TORSDOF 8
ENDMDL
MODEL 4
REMARK VINA RESULT:      -8.0      3.799      7.745
REMARK  Name = 
REMARK  10 active torsions:
REMARK  status: ('A' for Active; 'I' for Inactive)
REMARK    1  A    between atoms: C_1  and  O_2
REMARK    2  A    between atoms: O_2  and  C_3
REMARK    3  A    between atoms: C_5  and  N_6
REMARK    4  A    between atoms: N_6  and  C_7
REMARK    5  A    between atoms: N_10  and  C_11
REMARK    6  A    between atoms: C_11  and  C_12
REMARK    7  A    between atoms: C_12  and  C_13
REMARK    8  A    between atoms: C_24  and  C_25
REMARK    9  A    between atoms: C_29  and  O_30
REMARK   10  A    between atoms: O_30  and  C_31
REMARK                            x       y       z     vdW  Elec       q    Type
REMARK                         _______ _______ _______ _____ _____    ______ ____
ROOT
ATOM      1  C   UNL     1       2.969   4.580  18.198  0.00  0.00    +0.000 A 
ATOM      2  N   UNL     1       2.705   5.686  19.000  0.00  0.00    +0.000 NA
ATOM      3  C   UNL     1       2.275   5.539  20.221  0.00  0.00    +0.000 A 
ATOM      4  N   UNL     1       1.962   6.608  21.034  0.00  0.00    +0.000 N 
ATOM      5  N   UNL     1       2.076   4.244  20.723  0.00  0.00    +0.000 N 
ATOM      6  C   UNL     1       1.628   3.838  21.959  0.00  0.00    +0.000 A 
ATOM      7  C   UNL     1       1.560   2.468  21.885  0.00  0.00    +0.000 A 
ATOM      8  N   UNL     1       1.961   2.027  20.650  0.00  0.00    +0.000 NA
ATOM      9  C   UNL     1       2.256   3.115  19.962  0.00  0.00    +0.000 A 
ATOM     10  C   UNL     1       2.707   3.311  18.628  0.00  0.00    +0.000 A 
ATOM     11  H   UNL     1       2.382   6.612  21.952  0.00  0.00    +0.000 HD
ENDROOT
BRANCH  10  12
ATOM     12  C   UNL     1       2.920   2.137  17.720  0.00  0.00    +0.000 C 
ATOM     13  N   UNL     1       3.735   1.147  18.178  0.00  0.00    +0.000 N 
ATOM     14  O   UNL     1       2.379   2.035  16.622  0.00  0.00    +0.000 OA
ATOM     15  H   UNL     1       4.056   1.139  19.145  0.00  0.00    +0.000 HD
ATOM     16  H   UNL     1       3.851   0.317  17.618  0.00  0.00    +0.000 HD
ENDBRANCH  10  12
BRANCH   1  17
ATOM     17  N   UNL     1       3.476   4.823  16.911  0.00  0.00    +0.000 N 
ATOM     18  H   UNL     1       2.975   4.238  16.231  0.00  0.00    +0.000 HD
BRANCH  17  21
ATOM     19  C   UNL     1       6.622   4.597  14.913  0.00  0.00    +0.000 A 
ATOM     20  C   UNL     1       5.271   4.639  15.272  0.00  0.00    +0.000 A 
ATOM     21  C   UNL     1       4.870   4.685  16.618  0.00  0.00    +0.000 A 
ATOM     22  C   UNL     1       5.866   4.716  17.601  0.00  0.00    +0.000 A 
ATOM     23  C   UNL     1       7.223   4.674  17.255  0.00  0.00    +0.000 A 
ATOM     24  C   UNL     1       7.596   4.607  15.911  0.00  0.00    +0.000 A 
BRANCH  19  26
ATOM     25  C   UNL     1       6.168   3.591  12.799  0.00  0.00    +0.000 C 
ATOM     26  O   UNL     1       6.860   4.571  13.564  0.00  0.00    +0.000 OA
ENDBRANCH  19  26
BRANCH  23  27
ATOM     27  O   UNL     1       8.093   4.725  18.315  0.00  0.00    +0.000 OA
ATOM     28  C   UNL     1       7.831   5.702  19.317  0.00  0.00    +0.000 C 
ENDBRANCH  23  27
ENDBRANCH  17  21
ENDBRANCH   1  17
BRANCH   4  29
ATOM     29  C   UNL     1       1.682   7.919  20.451  0.00  0.00    +0.000 C 
BRANCH  29  30
ATOM     30  C   UNL     1       0.997   8.840  21.465  0.00  0.00    +0.000 C 
BRANCH  30  31
ATOM     31  C   UNL     1       0.126   9.875  20.792  0.00  0.00    +0.000 A 
ATOM     32  C   UNL     1      -0.031   9.881  19.400  0.00  0.00    +0.000 A 
ATOM     33  C   UNL     1      -0.817  10.854  18.779  0.00  0.00    +0.000 A 
ATOM     34  C   UNL     1      -1.455  11.829  19.544  0.00  0.00    +0.000 A 
ATOM     35  C   UNL     1      -1.305  11.834  20.929  0.00  0.00    +0.000 A 
ATOM     36  C   UNL     1      -0.514  10.865  21.551  0.00  0.00    +0.000 A 
ENDBRANCH  30  31
ENDBRANCH  29  30
ENDBRANCH   4  29
TORSDOF 8
ENDMDL
MODEL 5
REMARK VINA RESULT:      -7.9      2.996      7.084
REMARK  Name = 
REMARK  10 active torsions:
REMARK  status: ('A' for Active; 'I' for Inactive)
REMARK    1  A    between atoms: C_1  and  O_2
REMARK    2  A    between atoms: O_2  and  C_3
REMARK    3  A    between atoms: C_5  and  N_6
REMARK    4  A    between atoms: N_6  and  C_7
REMARK    5  A    between atoms: N_10  and  C_11
REMARK    6  A    between atoms: C_11  and  C_12
REMARK    7  A    between atoms: C_12  and  C_13
REMARK    8  A    between atoms: C_24  and  C_25
REMARK    9  A    between atoms: C_29  and  O_30
REMARK   10  A    between atoms: O_30  and  C_31
REMARK                            x       y       z     vdW  Elec       q    Type
REMARK                         _______ _______ _______ _____ _____    ______ ____
ROOT
ATOM      1  C   UNL     1       4.613   4.041  19.381  0.00  0.00    +0.000 A 
ATOM      2  N   UNL     1       3.994   5.288  19.348  0.00  0.00    +0.000 NA
ATOM      3  C   UNL     1       2.730   5.414  19.634  0.00  0.00    +0.000 A 
ATOM      4  N   UNL     1       2.070   6.624  19.573  0.00  0.00    +0.000 N 
ATOM      5  N   UNL     1       1.990   4.272  19.975  0.00  0.00    +0.000 N 
ATOM      6  C   UNL     1       0.659   4.150  20.303  0.00  0.00    +0.000 A 
ATOM      7  C   UNL     1       0.452   2.803  20.477  0.00  0.00    +0.000 A 
ATOM      8  N   UNL     1       1.615   2.103  20.275  0.00  0.00    +0.000 NA
ATOM      9  C   UNL     1       2.525   3.007  19.962  0.00  0.00    +0.000 A 
ATOM     10  C   UNL     1       3.902   2.901  19.627  0.00  0.00    +0.000 A 
ATOM     11  H   UNL     1       1.538   6.886  20.390  0.00  0.00    +0.000 HD
ENDROOT
BRANCH  10  12
ATOM     12  C   UNL     1       4.569   1.560  19.576  0.00  0.00    +0.000 C 
ATOM     13  N   UNL     1       4.225   0.743  18.543  0.00  0.00    +0.000 N 
ATOM     14  O   UNL     1       5.408   1.198  20.397  0.00  0.00    +0.000 OA
ATOM     15  H   UNL     1       3.661   1.089  17.767  0.00  0.00    +0.000 HD
ATOM     16  H   UNL     1       4.699  -0.142  18.445  0.00  0.00    +0.000 HD
ENDBRANCH  10  12
BRANCH   1  17
ATOM     17  N   UNL     1       5.989   3.997  19.106  0.00  0.00    +0.000 N 
ATOM     18  H   UNL     1       6.513   3.973  19.990  0.00  0.00    +0.000 HD
BRANCH  17  21
ATOM     19  C   UNL     1       6.921   5.925  16.047  0.00  0.00    +0.000 A 
ATOM     20  C   UNL     1       6.412   4.939  16.898  0.00  0.00    +0.000 A 
ATOM     21  C   UNL     1       6.619   4.987  18.286  0.00  0.00    +0.000 A 
ATOM     22  C   UNL     1       7.334   6.072  18.808  0.00  0.00    +0.000 A 
ATOM     23  C   UNL     1       7.851   7.067  17.967  0.00  0.00    +0.000 A 
ATOM     24  C   UNL     1       7.649   6.985  16.587  0.00  0.00    +0.000 A 
BRANCH  19  26
ATOM     25  C   UNL     1       6.722   4.434  14.197  0.00  0.00    +0.000 C 
ATOM     26  O   UNL     1       6.625   5.753  14.721  0.00  0.00    +0.000 OA
ENDBRANCH  19  26
BRANCH  23  27
ATOM     27  O   UNL     1       8.517   8.080  18.610  0.00  0.00    +0.000 OA
ATOM     28  C   UNL     1       8.347   9.394  18.088  0.00  0.00    +0.000 C 
ENDBRANCH  23  27
ENDBRANCH  17  21
ENDBRANCH   1  17
BRANCH   4  29
ATOM     29  C   UNL     1       2.622   7.725  18.785  0.00  0.00    +0.000 C 
BRANCH  29  30
ATOM     30  C   UNL     1       1.587   8.836  18.588  0.00  0.00    +0.000 C 
BRANCH  30  31
ATOM     31  C   UNL     1       1.002   9.305  19.899  0.00  0.00    +0.000 A 
ATOM     32  C   UNL     1       1.458   8.777  21.114  0.00  0.00    +0.000 A 
ATOM     33  C   UNL     1       0.898   9.195  22.324  0.00  0.00    +0.000 A 
ATOM     34  C   UNL     1      -0.121  10.146  22.330  0.00  0.00    +0.000 A 
ATOM     35  C   UNL     1      -0.583  10.677  21.127  0.00  0.00    +0.000 A 
ATOM     36  C   UNL     1      -0.029  10.255  19.916  0.00  0.00    +0.000 A 
ENDBRANCH  30  31
ENDBRANCH  29  30
ENDBRANCH   4  29
TORSDOF 8
ENDMDL
MODEL 6
REMARK VINA RESULT:      -7.9      3.095      7.238
REMARK  Name = 
REMARK  10 active torsions:
REMARK  status: ('A' for Active; 'I' for Inactive)
REMARK    1  A    between atoms: C_1  and  O_2
REMARK    2  A    between atoms: O_2  and  C_3
REMARK    3  A    between atoms: C_5  and  N_6
REMARK    4  A    between atoms: N_6  and  C_7
REMARK    5  A    between atoms: N_10  and  C_11
REMARK    6  A    between atoms: C_11  and  C_12
REMARK    7  A    between atoms: C_12  and  C_13
REMARK    8  A    between atoms: C_24  and  C_25
REMARK    9  A    between atoms: C_29  and  O_30
REMARK   10  A    between atoms: O_30  and  C_31
REMARK                            x       y       z     vdW  Elec       q    Type
REMARK                         _______ _______ _______ _____ _____    ______ ____
ROOT
ATOM      1  C   UNL     1       4.698   4.103  19.338  0.00  0.00    +0.000 A 
ATOM      2  N   UNL     1       4.097   5.357  19.274  0.00  0.00    +0.000 NA
ATOM      3  C   UNL     1       2.854   5.521  19.624  0.00  0.00    +0.000 A 
ATOM      4  N   UNL     1       2.209   6.737  19.538  0.00  0.00    +0.000 N 
ATOM      5  N   UNL     1       2.117   4.411  20.067  0.00  0.00    +0.000 N 
ATOM      6  C   UNL     1       0.806   4.331  20.476  0.00  0.00    +0.000 A 
ATOM      7  C   UNL     1       0.590   2.998  20.732  0.00  0.00    +0.000 A 
ATOM      8  N   UNL     1       1.728   2.268  20.502  0.00  0.00    +0.000 NA
ATOM      9  C   UNL     1       2.631   3.138  20.090  0.00  0.00    +0.000 A 
ATOM     10  C   UNL     1       3.986   2.990  19.684  0.00  0.00    +0.000 A 
ATOM     11  H   UNL     1       1.729   7.051  20.368  0.00  0.00    +0.000 HD
ENDROOT
BRANCH  10  12
ATOM     12  C   UNL     1       4.629   1.636  19.665  0.00  0.00    +0.000 C 
ATOM     13  N   UNL     1       4.286   0.808  18.640  0.00  0.00    +0.000 N 
ATOM     14  O   UNL     1       5.448   1.273  20.506  0.00  0.00    +0.000 OA
ATOM     15  H   UNL     1       3.741   1.151  17.850  0.00  0.00    +0.000 HD
ATOM     16  H   UNL     1       4.745  -0.086  18.565  0.00  0.00    +0.000 HD
ENDBRANCH  10  12
BRANCH   1  17
ATOM     17  N   UNL     1       6.055   4.020  18.989  0.00  0.00    +0.000 N 
ATOM     18  H   UNL     1       6.632   4.288  19.795  0.00  0.00    +0.000 HD
BRANCH  17  21
ATOM     19  C   UNL     1       6.947   4.773  15.442  0.00  0.00    +0.000 A 
ATOM     20  C   UNL     1       6.535   4.107  16.600  0.00  0.00    +0.000 A 
ATOM     21  C   UNL     1       6.581   4.727  17.860  0.00  0.00    +0.000 A 
ATOM     22  C   UNL     1       7.028   6.051  17.926  0.00  0.00    +0.000 A 
ATOM     23  C   UNL     1       7.444   6.732  16.773  0.00  0.00    +0.000 A 
ATOM     24  C   UNL     1       7.409   6.086  15.535  0.00  0.00    +0.000 A 
BRANCH  19  26
ATOM     25  C   UNL     1       5.549   4.010  13.667  0.00  0.00    +0.000 C 
ATOM     26  O   UNL     1       6.830   4.048  14.285  0.00  0.00    +0.000 OA
ENDBRANCH  19  26
BRANCH  23  27
ATOM     27  O   UNL     1       7.844   8.028  16.978  0.00  0.00    +0.000 OA
ATOM     28  C   UNL     1       8.281   8.367  18.290  0.00  0.00    +0.000 C 
ENDBRANCH  23  27
ENDBRANCH  17  21
ENDBRANCH   1  17
BRANCH   4  29
ATOM     29  C   UNL     1       2.732   7.786  18.663  0.00  0.00    +0.000 C 
BRANCH  29  30
ATOM     30  C   UNL     1       1.604   8.469  17.884  0.00  0.00    +0.000 C 
BRANCH  30  31
ATOM     31  C   UNL     1       0.770   9.368  18.766  0.00  0.00    +0.000 A 
ATOM     32  C   UNL     1      -0.188  10.226  18.210  0.00  0.00    +0.000 A 
ATOM     33  C   UNL     1      -0.940  11.075  19.026  0.00  0.00    +0.000 A 
ATOM     34  C   UNL     1      -0.742  11.073  20.405  0.00  0.00    +0.000 A 
ATOM     35  C   UNL     1       0.210  10.225  20.970  0.00  0.00    +0.000 A 
ATOM     36  C   UNL     1       0.967   9.381  20.154  0.00  0.00    +0.000 A 
ENDBRANCH  30  31
ENDBRANCH  29  30
ENDBRANCH   4  29
TORSDOF 8
ENDMDL
MODEL 7
REMARK VINA RESULT:      -7.8      0.700      2.252
REMARK  Name = 
REMARK  10 active torsions:
REMARK  status: ('A' for Active; 'I' for Inactive)
REMARK    1  A    between atoms: C_1  and  O_2
REMARK    2  A    between atoms: O_2  and  C_3
REMARK    3  A    between atoms: C_5  and  N_6
REMARK    4  A    between atoms: N_6  and  C_7
REMARK    5  A    between atoms: N_10  and  C_11
REMARK    6  A    between atoms: C_11  and  C_12
REMARK    7  A    between atoms: C_12  and  C_13
REMARK    8  A    between atoms: C_24  and  C_25
REMARK    9  A    between atoms: C_29  and  O_30
REMARK   10  A    between atoms: O_30  and  C_31
REMARK                            x       y       z     vdW  Elec       q    Type
REMARK                         _______ _______ _______ _____ _____    ______ ____
ROOT
ATOM      1  C   UNL     1       4.156   5.496  17.988  0.00  0.00    +0.000 A 
ATOM      2  N   UNL     1       5.048   6.558  17.860  0.00  0.00    +0.000 NA
ATOM      3  C   UNL     1       5.953   6.561  16.924  0.00  0.00    +0.000 A 
ATOM      4  N   UNL     1       6.881   7.573  16.788  0.00  0.00    +0.000 N 
ATOM      5  N   UNL     1       6.026   5.473  16.040  0.00  0.00    +0.000 N 
ATOM      6  C   UNL     1       6.888   5.246  14.992  0.00  0.00    +0.000 A 
ATOM      7  C   UNL     1       6.556   4.000  14.517  0.00  0.00    +0.000 A 
ATOM      8  N   UNL     1       5.515   3.467  15.234  0.00  0.00    +0.000 NA
ATOM      9  C   UNL     1       5.220   4.367  16.154  0.00  0.00    +0.000 A 
ATOM     10  C   UNL     1       4.254   4.387  17.198  0.00  0.00    +0.000 A 
ATOM     11  H   UNL     1       6.967   7.982  15.869  0.00  0.00    +0.000 HD
ENDROOT
BRANCH  10  12
ATOM     12  C   UNL     1       3.339   3.219  17.406  0.00  0.00    +0.000 C 
ATOM     13  N   UNL     1       3.910   2.061  17.840  0.00  0.00    +0.000 N 
ATOM     14  O   UNL     1       2.125   3.280  17.227  0.00  0.00    +0.000 OA
ATOM     15  H   UNL     1       4.881   2.041  18.150  0.00  0.00    +0.000 HD
ATOM     16  H   UNL     1       3.315   1.275  18.047  0.00  0.00    +0.000 HD
ENDBRANCH  10  12
BRANCH   1  17
ATOM     17  N   UNL     1       3.180   5.593  18.992  0.00  0.00    +0.000 N 
ATOM     18  H   UNL     1       2.423   4.925  18.798  0.00  0.00    +0.000 HD
BRANCH  17  21
ATOM     19  C   UNL     1       1.868   9.059  18.533  0.00  0.00    +0.000 A 
ATOM     20  C   UNL     1       2.542   7.851  18.329  0.00  0.00    +0.000 A 
ATOM     21  C   UNL     1       2.551   6.840  19.305  0.00  0.00    +0.000 A 
ATOM     22  C   UNL     1       1.838   7.062  20.489  0.00  0.00    +0.000 A 
ATOM     23  C   UNL     1       1.158   8.268  20.707  0.00  0.00    +0.000 A 
ATOM     24  C   UNL     1       1.183   9.267  19.730  0.00  0.00    +0.000 A 
BRANCH  19  26
ATOM     25  C   UNL     1       2.243  11.296  17.797  0.00  0.00    +0.000 C 
ATOM     26  O   UNL     1       1.935   9.941  17.487  0.00  0.00    +0.000 OA
ENDBRANCH  19  26
BRANCH  23  27
ATOM     27  O   UNL     1       0.489   8.349  21.902  0.00  0.00    +0.000 OA
ATOM     28  C   UNL     1       0.399   9.636  22.504  0.00  0.00    +0.000 C 
ENDBRANCH  23  27
ENDBRANCH  17  21
ENDBRANCH   1  17
BRANCH   4  29
ATOM     29  C   UNL     1       7.176   8.457  17.915  0.00  0.00    +0.000 C 
BRANCH  29  30
ATOM     30  C   UNL     1       8.668   8.798  17.973  0.00  0.00    +0.000 C 
BRANCH  30  31
ATOM     31  C   UNL     1       8.914  10.165  18.568  0.00  0.00    +0.000 A 
ATOM     32  C   UNL     1       8.709  11.323  17.806  0.00  0.00    +0.000 A 
ATOM     33  C   UNL     1       8.961  12.584  18.350  0.00  0.00    +0.000 A 
ATOM     34  C   UNL     1       9.417  12.699  19.662  0.00  0.00    +0.000 A 
ATOM     35  C   UNL     1       9.625  11.554  20.429  0.00  0.00    +0.000 A 
ATOM     36  C   UNL     1       9.380  10.292  19.883  0.00  0.00    +0.000 A 
ENDBRANCH  30  31
ENDBRANCH  29  30
ENDBRANCH   4  29
TORSDOF 8
ENDMDL
MODEL 8
REMARK VINA RESULT:      -7.8      2.967      7.537
REMARK  Name = 
REMARK  10 active torsions:
REMARK  status: ('A' for Active; 'I' for Inactive)
REMARK    1  A    between atoms: C_1  and  O_2
REMARK    2  A    between atoms: O_2  and  C_3
REMARK    3  A    between atoms: C_5  and  N_6
REMARK    4  A    between atoms: N_6  and  C_7
REMARK    5  A    between atoms: N_10  and  C_11
REMARK    6  A    between atoms: C_11  and  C_12
REMARK    7  A    between atoms: C_12  and  C_13
REMARK    8  A    between atoms: C_24  and  C_25
REMARK    9  A    between atoms: C_29  and  O_30
REMARK   10  A    between atoms: O_30  and  C_31
REMARK                            x       y       z     vdW  Elec       q    Type
REMARK                         _______ _______ _______ _____ _____    ______ ____
ROOT
ATOM      1  C   UNL     1       2.925   5.180  18.286  0.00  0.00    +0.000 A 
ATOM      2  N   UNL     1       2.558   6.136  19.228  0.00  0.00    +0.000 NA
ATOM      3  C   UNL     1       2.131   5.784  20.406  0.00  0.00    +0.000 A 
ATOM      4  N   UNL     1       1.718   6.698  21.354  0.00  0.00    +0.000 N 
ATOM      5  N   UNL     1       2.039   4.419  20.720  0.00  0.00    +0.000 N 
ATOM      6  C   UNL     1       1.615   3.807  21.877  0.00  0.00    +0.000 A 
ATOM      7  C   UNL     1       1.666   2.460  21.611  0.00  0.00    +0.000 A 
ATOM      8  N   UNL     1       2.116   2.232  20.336  0.00  0.00    +0.000 NA
ATOM      9  C   UNL     1       2.323   3.427  19.813  0.00  0.00    +0.000 A 
ATOM     10  C   UNL     1       2.769   3.845  18.530  0.00  0.00    +0.000 A 
ATOM     11  H   UNL     1       2.127   6.608  22.272  0.00  0.00    +0.000 HD
ENDROOT
BRANCH  10  12
ATOM     12  C   UNL     1       3.092   2.833  17.472  0.00  0.00    +0.000 C 
ATOM     13  N   UNL     1       3.999   1.873  17.799  0.00  0.00    +0.000 N 
ATOM     14  O   UNL     1       2.560   2.831  16.365  0.00  0.00    +0.000 OA
ATOM     15  H   UNL     1       4.322   1.762  18.760  0.00  0.00    +0.000 HD
ATOM     16  H   UNL     1       4.194   1.142  17.132  0.00  0.00    +0.000 HD
ENDBRANCH  10  12
BRANCH   1  17
ATOM     17  N   UNL     1       3.422   5.643  17.057  0.00  0.00    +0.000 N 
ATOM     18  H   UNL     1       3.003   5.099  16.292  0.00  0.00    +0.000 HD
BRANCH  17  21
ATOM     19  C   UNL     1       6.650   5.285  15.216  0.00  0.00    +0.000 A 
ATOM     20  C   UNL     1       5.304   5.179  15.579  0.00  0.00    +0.000 A 
ATOM     21  C   UNL     1       4.827   5.702  16.793  0.00  0.00    +0.000 A 
ATOM     22  C   UNL     1       5.736   6.362  17.628  0.00  0.00    +0.000 A 
ATOM     23  C   UNL     1       7.089   6.475  17.277  0.00  0.00    +0.000 A 
ATOM     24  C   UNL     1       7.542   5.927  16.074  0.00  0.00    +0.000 A 
BRANCH  19  26
ATOM     25  C   UNL     1       6.095   3.739  13.487  0.00  0.00    +0.000 C 
ATOM     26  O   UNL     1       6.964   4.743  13.997  0.00  0.00    +0.000 OA
ENDBRANCH  19  26
BRANCH  23  27
ATOM     27  O   UNL     1       7.866   7.157  18.177  0.00  0.00    +0.000 OA
ATOM     28  C   UNL     1       8.104   8.535  17.908  0.00  0.00    +0.000 C 
ENDBRANCH  23  27
ENDBRANCH  17  21
ENDBRANCH   1  17
BRANCH   4  29
ATOM     29  C   UNL     1       1.332   8.050  20.953  0.00  0.00    +0.000 C 
BRANCH  29  30
ATOM     30  C   UNL     1       1.408   9.020  22.135  0.00  0.00    +0.000 C 
BRANCH  30  31
ATOM     31  C   UNL     1       0.341  10.087  22.062  0.00  0.00    +0.000 A 
ATOM     32  C   UNL     1      -0.583  10.247  23.104  0.00  0.00    +0.000 A 
ATOM     33  C   UNL     1      -1.583  11.218  23.022  0.00  0.00    +0.000 A 
ATOM     34  C   UNL     1      -1.669  12.039  21.899  0.00  0.00    +0.000 A 
ATOM     35  C   UNL     1      -0.757  11.888  20.857  0.00  0.00    +0.000 A 
ATOM     36  C   UNL     1       0.240  10.913  20.934  0.00  0.00    +0.000 A 
ENDBRANCH  30  31
ENDBRANCH  29  30
ENDBRANCH   4  29
TORSDOF 8
ENDMDL
MODEL 9
REMARK VINA RESULT:      -7.8      2.979      7.427
REMARK  Name = 
REMARK  10 active torsions:
REMARK  status: ('A' for Active; 'I' for Inactive)
REMARK    1  A    between atoms: C_1  and  O_2
REMARK    2  A    between atoms: O_2  and  C_3
REMARK    3  A    between atoms: C_5  and  N_6
REMARK    4  A    between atoms: N_6  and  C_7
REMARK    5  A    between atoms: N_10  and  C_11
REMARK    6  A    between atoms: C_11  and  C_12
REMARK    7  A    between atoms: C_12  and  C_13
REMARK    8  A    between atoms: C_24  and  C_25
REMARK    9  A    between atoms: C_29  and  O_30
REMARK   10  A    between atoms: O_30  and  C_31
REMARK                            x       y       z     vdW  Elec       q    Type
REMARK                         _______ _______ _______ _____ _____    ______ ____
ROOT
ATOM      1  C   UNL     1       2.904   5.308  18.250  0.00  0.00    +0.000 A 
ATOM      2  N   UNL     1       2.539   6.257  19.200  0.00  0.00    +0.000 NA
ATOM      3  C   UNL     1       2.152   5.897  20.390  0.00  0.00    +0.000 A 
ATOM      4  N   UNL     1       1.742   6.803  21.346  0.00  0.00    +0.000 N 
ATOM      5  N   UNL     1       2.102   4.531  20.708  0.00  0.00    +0.000 N 
ATOM      6  C   UNL     1       1.724   3.912  21.877  0.00  0.00    +0.000 A 
ATOM      7  C   UNL     1       1.801   2.566  21.613  0.00  0.00    +0.000 A 
ATOM      8  N   UNL     1       2.223   2.346  20.326  0.00  0.00    +0.000 NA
ATOM      9  C   UNL     1       2.386   3.544  19.796  0.00  0.00    +0.000 A 
ATOM     10  C   UNL     1       2.788   3.970  18.500  0.00  0.00    +0.000 A 
ATOM     11  H   UNL     1       2.177   6.726  22.254  0.00  0.00    +0.000 HD
ENDROOT
BRANCH  10  12
ATOM     12  C   UNL     1       3.107   2.964  17.437  0.00  0.00    +0.000 C 
ATOM     13  N   UNL     1       4.115   2.088  17.703  0.00  0.00    +0.000 N 
ATOM     14  O   UNL     1       2.490   2.892  16.377  0.00  0.00    +0.000 OA
ATOM     15  H   UNL     1       4.522   2.027  18.636  0.00  0.00    +0.000 HD
ATOM     16  H   UNL     1       4.315   1.361  17.034  0.00  0.00    +0.000 HD
ENDBRANCH  10  12
BRANCH   1  17
ATOM     17  N   UNL     1       3.356   5.780  17.008  0.00  0.00    +0.000 N 
ATOM     18  H   UNL     1       2.848   5.301  16.255  0.00  0.00    +0.000 HD
BRANCH  17  21
ATOM     19  C   UNL     1       7.034   6.393  17.206  0.00  0.00    +0.000 A 
ATOM     20  C   UNL     1       5.657   6.459  17.440  0.00  0.00    +0.000 A 
ATOM     21  C   UNL     1       4.742   5.741  16.652  0.00  0.00    +0.000 A 
ATOM     22  C   UNL     1       5.248   4.927  15.633  0.00  0.00    +0.000 A 
ATOM     23  C   UNL     1       6.626   4.851  15.386  0.00  0.00    +0.000 A 
ATOM     24  C   UNL     1       7.514   5.592  16.170  0.00  0.00    +0.000 A 
BRANCH  19  26
ATOM     25  C   UNL     1       7.910   8.529  17.804  0.00  0.00    +0.000 C 
ATOM     26  O   UNL     1       7.803   7.134  18.064  0.00  0.00    +0.000 OA
ENDBRANCH  19  26
BRANCH  23  27
ATOM     27  O   UNL     1       6.987   4.005  14.368  0.00  0.00    +0.000 OA
ATOM     28  C   UNL     1       6.033   3.802  13.331  0.00  0.00    +0.000 C 
ENDBRANCH  23  27
ENDBRANCH  17  21
ENDBRANCH   1  17
BRANCH   4  29
ATOM     29  C   UNL     1       1.312   8.144  20.953  0.00  0.00    +0.000 C 
BRANCH  29  30
ATOM     30  C   UNL     1      -0.056   8.483  21.552  0.00  0.00    +0.000 C 
BRANCH  30  31
ATOM     31  C   UNL     1      -0.242   9.972  21.733  0.00  0.00    +0.000 A 
ATOM     32  C   UNL     1       0.315  10.877  20.820  0.00  0.00    +0.000 A 
ATOM     33  C   UNL     1       0.162  12.253  21.003  0.00  0.00    +0.000 A 
ATOM     34  C   UNL     1      -0.550  12.737  22.099  0.00  0.00    +0.000 A 
ATOM     35  C   UNL     1      -1.107  11.846  23.014  0.00  0.00    +0.000 A 
ATOM     36  C   UNL     1      -0.949  10.470  22.836  0.00  0.00    +0.000 A 
ENDBRANCH  30  31
ENDBRANCH  29  30
ENDBRANCH   4  29
TORSDOF 8
ENDMDL
