MODEL 1
REMARK VINA RESULT:      -5.9      0.000      0.000
REMARK  Name = 
REMARK  17 active torsions:
REMARK  status: ('A' for Active; 'I' for Inactive)
REMARK    1  A    between atoms: C_1  and  N_2
REMARK    2  A    between atoms: N_2  and  C_3
REMARK    3  A    between atoms: N_6  and  C_7
REMARK    4  A    between atoms: C_7  and  C_8
REMARK    5  A    between atoms: C_8  and  C_9
REMARK    6  A    between atoms: C_9  and  C_10
REMARK    7  A    between atoms: C_10  and  C_11
REMARK    8  A    between atoms: C_11  and  C_12
REMARK    9  A    between atoms: C_12  and  C_13
REMARK   10  A    between atoms: C_13  and  C_14
REMARK   11  A    between atoms: C_14  and  C_15
REMARK   12  A    between atoms: C_15  and  C_16
REMARK   13  A    between atoms: C_16  and  C_17
REMARK   14  A    between atoms: C_17  and  C_18
REMARK   15  A    between atoms: C_18  and  N_19
REMARK   16  A    between atoms: C_22  and  N_23
REMARK   17  A    between atoms: N_23  and  C_24
REMARK                            x       y       z     vdW  Elec       q    Type
REMARK                         _______ _______ _______ _____ _____    ______ ____
ROOT
ATOM      1  C   UNL     1       2.177   6.693  18.300  0.00  0.00    +0.000 C 
ENDROOT
BRANCH   1   2
ATOM      2  C   UNL     1       2.685   7.964  17.614  0.00  0.00    +0.000 C 
BRANCH   2   3
ATOM      3  C   UNL     1       2.166   9.228  18.307  0.00  0.00    +0.000 C 
BRANCH   3   4
ATOM      4  C   UNL     1       0.680   9.486  18.020  0.00  0.00    +0.000 C 
BRANCH   4   5
ATOM      5  C   UNL     1      -0.055  10.100  19.213  0.00  0.00    +0.000 C 
BRANCH   5   6
ATOM      6  C   UNL     1       0.912  10.921  20.049  0.00  0.00    +0.000 C 
BRANCH   6  10
ATOM      7  C   UNL     1      -1.421  12.893  22.958  0.00  0.00    +0.000 A 
ATOM      8  C   UNL     1      -0.476  13.596  22.209  0.00  0.00    +0.000 A 
ATOM      9  C   UNL     1       0.327  12.918  21.309  0.00  0.00    +0.000 A 
ATOM     10  N   UNL     1       0.216  11.581  21.158  0.00  0.00    +0.000 N 
ATOM     11  C   UNL     1      -0.607  10.861  21.949  0.00  0.00    +0.000 A 
ATOM     12  C   UNL     1      -1.422  11.503  22.869  0.00  0.00    +0.000 A 
BRANCH   7  14
ATOM     13  C   UNL     1      -3.620  12.964  24.019  0.00  0.00    +0.000 C 
ATOM     14  N   UNL     1      -2.278  13.519  23.862  0.00  0.00    +0.000 N 
ATOM     15  H   UNL     1      -1.853  13.720  24.763  0.00  0.00    +0.000 HD
ENDBRANCH   7  14
ENDBRANCH   6  10
ENDBRANCH   5   6
ENDBRANCH   4   5
ENDBRANCH   3   4
ENDBRANCH   2   3
ENDBRANCH   1   2
BRANCH   1  16
ATOM     16  C   UNL     1       2.807   6.503  19.684  0.00  0.00    +0.000 C 
BRANCH  16  17
ATOM     17  C   UNL     1       1.952   5.601  20.580  0.00  0.00    +0.000 C 
BRANCH  17  18
ATOM     18  C   UNL     1       1.033   4.693  19.758  0.00  0.00    +0.000 C 
BRANCH  18  19
ATOM     19  C   UNL     1       1.132   3.222  20.183  0.00  0.00    +0.000 C 
BRANCH  19  20
ATOM     20  C   UNL     1       1.378   2.284  19.000  0.00  0.00    +0.000 C 
BRANCH  20  21
ATOM     21  C   UNL     1       2.834   1.843  18.979  0.00  0.00    +0.000 C 
BRANCH  21  22
ATOM     22  N   UNL     1       3.690   2.919  18.467  0.00  0.00    +0.000 N 
ATOM     23  C   UNL     1       3.501   3.367  17.210  0.00  0.00    +0.000 A 
ATOM     24  C   UNL     1       4.381   4.279  16.655  0.00  0.00    +0.000 A 
ATOM     25  C   UNL     1       5.453   4.767  17.400  0.00  0.00    +0.000 A 
ATOM     26  C   UNL     1       5.593   4.325  18.713  0.00  0.00    +0.000 A 
ATOM     27  C   UNL     1       4.705   3.388  19.225  0.00  0.00    +0.000 A 
BRANCH  25  28
ATOM     28  N   UNL     1       6.256   5.723  16.812  0.00  0.00    +0.000 N 
ATOM     29  C   UNL     1       6.367   7.085  17.295  0.00  0.00    +0.000 C 
ATOM     30  H   UNL     1       7.128   5.357  16.426  0.00  0.00    +0.000 HD
ENDBRANCH  25  28
ENDBRANCH  21  22
ENDBRANCH  20  21
ENDBRANCH  19  20
ENDBRANCH  18  19
ENDBRANCH  17  18
ENDBRANCH  16  17
ENDBRANCH   1  16
TORSDOF 15
ENDMDL
MODEL 2
REMARK VINA RESULT:      -5.8      3.085      4.487
REMARK  Name = 
REMARK  17 active torsions:
REMARK  status: ('A' for Active; 'I' for Inactive)
REMARK    1  A    between atoms: C_1  and  N_2
REMARK    2  A    between atoms: N_2  and  C_3
REMARK    3  A    between atoms: N_6  and  C_7
REMARK    4  A    between atoms: C_7  and  C_8
REMARK    5  A    between atoms: C_8  and  C_9
REMARK    6  A    between atoms: C_9  and  C_10
REMARK    7  A    between atoms: C_10  and  C_11
REMARK    8  A    between atoms: C_11  and  C_12
REMARK    9  A    between atoms: C_12  and  C_13
REMARK   10  A    between atoms: C_13  and  C_14
REMARK   11  A    between atoms: C_14  and  C_15
REMARK   12  A    between atoms: C_15  and  C_16
REMARK   13  A    between atoms: C_16  and  C_17
REMARK   14  A    between atoms: C_17  and  C_18
REMARK   15  A    between atoms: C_18  and  N_19
REMARK   16  A    between atoms: C_22  and  N_23
REMARK   17  A    between atoms: N_23  and  C_24
REMARK                            x       y       z     vdW  Elec       q    Type
REMARK                         _______ _______ _______ _____ _____    ______ ____
ROOT
ATOM      1  C   UNL     1       1.775   8.539  19.186  0.00  0.00    +0.000 C 
ENDROOT
BRANCH   1   2
ATOM      2  C   UNL     1       1.068   9.599  18.336  0.00  0.00    +0.000 C 
BRANCH   2   3
ATOM      3  C   UNL     1       1.494  11.017  18.731  0.00  0.00    +0.000 C 
BRANCH   3   4
ATOM      4  C   UNL     1       0.395  11.766  19.498  0.00  0.00    +0.000 C 
BRANCH   4   5
ATOM      5  C   UNL     1      -0.896  10.954  19.627  0.00  0.00    +0.000 C 
BRANCH   5   6
ATOM      6  C   UNL     1      -2.085  11.807  19.219  0.00  0.00    +0.000 C 
BRANCH   6  10
ATOM      7  C   UNL     1      -3.882  10.426  15.662  0.00  0.00    +0.000 A 
ATOM      8  C   UNL     1      -4.535  11.354  16.473  0.00  0.00    +0.000 A 
ATOM      9  C   UNL     1      -3.960  11.743  17.670  0.00  0.00    +0.000 A 
ATOM     10  N   UNL     1      -2.780  11.221  18.068  0.00  0.00    +0.000 N 
ATOM     11  C   UNL     1      -2.183  10.239  17.361  0.00  0.00    +0.000 A 
ATOM     12  C   UNL     1      -2.733   9.817  16.160  0.00  0.00    +0.000 A 
BRANCH   7  14
ATOM     13  C   UNL     1      -3.462   9.898  13.314  0.00  0.00    +0.000 C 
ATOM     14  N   UNL     1      -4.394  10.013  14.433  0.00  0.00    +0.000 N 
ATOM     15  H   UNL     1      -5.004   9.202  14.490  0.00  0.00    +0.000 HD
ENDBRANCH   7  14
ENDBRANCH   6  10
ENDBRANCH   5   6
ENDBRANCH   4   5
ENDBRANCH   3   4
ENDBRANCH   2   3
ENDBRANCH   1   2
BRANCH   1  16
ATOM     16  C   UNL     1       2.748   7.697  18.353  0.00  0.00    +0.000 C 
BRANCH  16  17
ATOM     17  C   UNL     1       2.159   6.327  18.004  0.00  0.00    +0.000 C 
BRANCH  17  18
ATOM     18  C   UNL     1       2.203   5.370  19.198  0.00  0.00    +0.000 C 
BRANCH  18  19
ATOM     19  C   UNL     1       1.880   3.923  18.800  0.00  0.00    +0.000 C 
BRANCH  19  20
ATOM     20  C   UNL     1       2.498   3.531  17.457  0.00  0.00    +0.000 C 
BRANCH  20  21
ATOM     21  C   UNL     1       3.926   3.051  17.662  0.00  0.00    +0.000 C 
BRANCH  21  22
ATOM     22  N   UNL     1       4.871   4.163  17.506  0.00  0.00    +0.000 N 
ATOM     23  C   UNL     1       4.944   4.800  16.321  0.00  0.00    +0.000 A 
ATOM     24  C   UNL     1       5.921   5.756  16.102  0.00  0.00    +0.000 A 
ATOM     25  C   UNL     1       6.817   6.092  17.116  0.00  0.00    +0.000 A 
ATOM     26  C   UNL     1       6.683   5.454  18.346  0.00  0.00    +0.000 A 
ATOM     27  C   UNL     1       5.708   4.481  18.517  0.00  0.00    +0.000 A 
BRANCH  25  28
ATOM     28  N   UNL     1       7.725   7.099  16.856  0.00  0.00    +0.000 N 
ATOM     29  C   UNL     1       7.835   8.304  17.654  0.00  0.00    +0.000 C 
ATOM     30  H   UNL     1       8.619   6.771  16.490  0.00  0.00    +0.000 HD
ENDBRANCH  25  28
ENDBRANCH  21  22
ENDBRANCH  20  21
ENDBRANCH  19  20
ENDBRANCH  18  19
ENDBRANCH  17  18
ENDBRANCH  16  17
ENDBRANCH   1  16
TORSDOF 15
ENDMDL
MODEL 3
REMARK VINA RESULT:      -5.7      1.155     10.010
REMARK  Name = 
REMARK  17 active torsions:
REMARK  status: ('A' for Active; 'I' for Inactive)
REMARK    1  A    between atoms: C_1  and  N_2
REMARK    2  A    between atoms: N_2  and  C_3
REMARK    3  A    between atoms: N_6  and  C_7
REMARK    4  A    between atoms: C_7  and  C_8
REMARK    5  A    between atoms: C_8  and  C_9
REMARK    6  A    between atoms: C_9  and  C_10
REMARK    7  A    between atoms: C_10  and  C_11
REMARK    8  A    between atoms: C_11  and  C_12
REMARK    9  A    between atoms: C_12  and  C_13
REMARK   10  A    between atoms: C_13  and  C_14
REMARK   11  A    between atoms: C_14  and  C_15
REMARK   12  A    between atoms: C_15  and  C_16
REMARK   13  A    between atoms: C_16  and  C_17
REMARK   14  A    between atoms: C_17  and  C_18
REMARK   15  A    between atoms: C_18  and  N_19
REMARK   16  A    between atoms: C_22  and  N_23
REMARK   17  A    between atoms: N_23  and  C_24
REMARK                            x       y       z     vdW  Elec       q    Type
REMARK                         _______ _______ _______ _____ _____    ______ ____
ROOT
ATOM      1  C   UNL     1       2.229   6.852  19.965  0.00  0.00    +0.000 C 
ENDROOT
BRANCH   1   2
ATOM      2  C   UNL     1       1.891   5.502  20.605  0.00  0.00    +0.000 C 
BRANCH   2   3
ATOM      3  C   UNL     1       1.165   4.577  19.624  0.00  0.00    +0.000 C 
BRANCH   3   4
ATOM      4  C   UNL     1       1.068   3.135  20.142  0.00  0.00    +0.000 C 
BRANCH   4   5
ATOM      5  C   UNL     1       1.833   2.138  19.267  0.00  0.00    +0.000 C 
BRANCH   5   6
ATOM      6  C   UNL     1       3.290   2.091  19.691  0.00  0.00    +0.000 C 
BRANCH   6  10
ATOM      7  C   UNL     1       5.358   4.861  17.274  0.00  0.00    +0.000 A 
ATOM      8  C   UNL     1       4.471   3.946  16.705  0.00  0.00    +0.000 A 
ATOM      9  C   UNL     1       3.855   3.000  17.506  0.00  0.00    +0.000 A 
ATOM     10  N   UNL     1       4.115   2.945  18.830  0.00  0.00    +0.000 N 
ATOM     11  C   UNL     1       5.052   3.741  19.386  0.00  0.00    +0.000 A 
ATOM     12  C   UNL     1       5.697   4.697  18.614  0.00  0.00    +0.000 A 
BRANCH   7  14
ATOM     13  C   UNL     1       5.195   6.560  15.525  0.00  0.00    +0.000 C 
ATOM     14  N   UNL     1       5.990   5.854  16.527  0.00  0.00    +0.000 N 
ATOM     15  H   UNL     1       6.542   6.502  17.084  0.00  0.00    +0.000 HD
ENDBRANCH   7  14
ENDBRANCH   6  10
ENDBRANCH   5   6
ENDBRANCH   4   5
ENDBRANCH   3   4
ENDBRANCH   2   3
ENDBRANCH   1   2
BRANCH   1  16
ATOM     16  C   UNL     1       2.565   6.708  18.477  0.00  0.00    +0.000 C 
BRANCH  16  17
ATOM     17  C   UNL     1       2.216   7.976  17.690  0.00  0.00    +0.000 C 
BRANCH  17  18
ATOM     18  C   UNL     1       1.815   9.126  18.618  0.00  0.00    +0.000 C 
BRANCH  18  19
ATOM     19  C   UNL     1       0.497   9.787  18.192  0.00  0.00    +0.000 C 
BRANCH  19  20
ATOM     20  C   UNL     1      -0.410  10.112  19.380  0.00  0.00    +0.000 C 
BRANCH  20  21
ATOM     21  C   UNL     1      -0.966  11.520  19.241  0.00  0.00    +0.000 C 
BRANCH  21  22
ATOM     22  N   UNL     1      -1.636  11.935  20.479  0.00  0.00    +0.000 N 
ATOM     23  C   UNL     1      -1.094  11.592  21.664  0.00  0.00    +0.000 A 
ATOM     24  C   UNL     1      -1.775  11.847  22.842  0.00  0.00    +0.000 A 
ATOM     25  C   UNL     1      -3.012  12.490  22.815  0.00  0.00    +0.000 A 
ATOM     26  C   UNL     1      -3.521  12.878  21.579  0.00  0.00    +0.000 A 
ATOM     27  C   UNL     1      -2.821  12.580  20.418  0.00  0.00    +0.000 A 
BRANCH  25  28
ATOM     28  N   UNL     1      -3.609  12.774  24.027  0.00  0.00    +0.000 N 
ATOM     29  C   UNL     1      -3.465  14.042  24.714  0.00  0.00    +0.000 C 
ATOM     30  H   UNL     1      -4.528  12.347  24.150  0.00  0.00    +0.000 HD
ENDBRANCH  25  28
ENDBRANCH  21  22
ENDBRANCH  20  21
ENDBRANCH  19  20
ENDBRANCH  18  19
ENDBRANCH  17  18
ENDBRANCH  16  17
ENDBRANCH   1  16
TORSDOF 15
ENDMDL
MODEL 4
REMARK VINA RESULT:      -5.7      2.222      8.920
REMARK  Name = 
REMARK  17 active torsions:
REMARK  status: ('A' for Active; 'I' for Inactive)
REMARK    1  A    between atoms: C_1  and  N_2
REMARK    2  A    between atoms: N_2  and  C_3
REMARK    3  A    between atoms: N_6  and  C_7
REMARK    4  A    between atoms: C_7  and  C_8
REMARK    5  A    between atoms: C_8  and  C_9
REMARK    6  A    between atoms: C_9  and  C_10
REMARK    7  A    between atoms: C_10  and  C_11
REMARK    8  A    between atoms: C_11  and  C_12
REMARK    9  A    between atoms: C_12  and  C_13
REMARK   10  A    between atoms: C_13  and  C_14
REMARK   11  A    between atoms: C_14  and  C_15
REMARK   12  A    between atoms: C_15  and  C_16
REMARK   13  A    between atoms: C_16  and  C_17
REMARK   14  A    between atoms: C_17  and  C_18
REMARK   15  A    between atoms: C_18  and  N_19
REMARK   16  A    between atoms: C_22  and  N_23
REMARK   17  A    between atoms: N_23  and  C_24
REMARK                            x       y       z     vdW  Elec       q    Type
REMARK                         _______ _______ _______ _____ _____    ______ ____
ROOT
ATOM      1  C   UNL     1       1.902   3.573  21.604  0.00  0.00    +0.000 C 
ENDROOT
BRANCH   1   2
ATOM      2  C   UNL     1       1.322   2.526  20.649  0.00  0.00    +0.000 C 
BRANCH   2   3
ATOM      3  C   UNL     1       2.190   2.359  19.398  0.00  0.00    +0.000 C 
BRANCH   3   4
ATOM      4  C   UNL     1       1.576   3.035  18.164  0.00  0.00    +0.000 C 
BRANCH   4   5
ATOM      5  C   UNL     1       2.599   3.280  17.052  0.00  0.00    +0.000 C 
BRANCH   5   6
ATOM      6  C   UNL     1       4.006   3.130  17.603  0.00  0.00    +0.000 C 
BRANCH   6  10
ATOM      7  C   UNL     1       6.402   6.589  17.310  0.00  0.00    +0.000 A 
ATOM      8  C   UNL     1       6.399   5.824  18.477  0.00  0.00    +0.000 A 
ATOM      9  C   UNL     1       5.555   4.732  18.579  0.00  0.00    +0.000 A 
ATOM     10  N   UNL     1       4.723   4.409  17.566  0.00  0.00    +0.000 N 
ATOM     11  C   UNL     1       4.621   5.196  16.474  0.00  0.00    +0.000 A 
ATOM     12  C   UNL     1       5.445   6.304  16.339  0.00  0.00    +0.000 A 
BRANCH   7  14
ATOM     13  C   UNL     1       8.192   7.991  18.204  0.00  0.00    +0.000 C 
ATOM     14  N   UNL     1       7.246   7.685  17.134  0.00  0.00    +0.000 N 
ATOM     15  H   UNL     1       7.695   7.718  16.222  0.00  0.00    +0.000 HD
ENDBRANCH   7  14
ENDBRANCH   6  10
ENDBRANCH   5   6
ENDBRANCH   4   5
ENDBRANCH   3   4
ENDBRANCH   2   3
ENDBRANCH   1   2
BRANCH   1  16
ATOM     16  C   UNL     1       2.706   4.642  20.857  0.00  0.00    +0.000 C 
BRANCH  16  17
ATOM     17  C   UNL     1       1.860   5.883  20.554  0.00  0.00    +0.000 C 
BRANCH  17  18
ATOM     18  C   UNL     1       2.500   6.754  19.470  0.00  0.00    +0.000 C 
BRANCH  18  19
ATOM     19  C   UNL     1       1.895   8.164  19.422  0.00  0.00    +0.000 C 
BRANCH  19  20
ATOM     20  C   UNL     1       1.380   8.631  20.785  0.00  0.00    +0.000 C 
BRANCH  20  21
ATOM     21  C   UNL     1       0.069   9.382  20.616  0.00  0.00    +0.000 C 
BRANCH  21  22
ATOM     22  N   UNL     1       0.312  10.734  20.098  0.00  0.00    +0.000 N 
ATOM     23  C   UNL     1       1.143  11.555  20.771  0.00  0.00    +0.000 A 
ATOM     24  C   UNL     1       1.281  12.876  20.386  0.00  0.00    +0.000 A 
ATOM     25  C   UNL     1       0.588  13.363  19.279  0.00  0.00    +0.000 A 
ATOM     26  C   UNL     1      -0.223  12.478  18.573  0.00  0.00    +0.000 A 
ATOM     27  C   UNL     1      -0.356  11.166  19.008  0.00  0.00    +0.000 A 
BRANCH  25  28
ATOM     28  N   UNL     1       0.818  14.672  18.907  0.00  0.00    +0.000 N 
ATOM     29  C   UNL     1      -0.235  15.647  18.710  0.00  0.00    +0.000 C 
ATOM     30  H   UNL     1       1.675  15.071  19.293  0.00  0.00    +0.000 HD
ENDBRANCH  25  28
ENDBRANCH  21  22
ENDBRANCH  20  21
ENDBRANCH  19  20
ENDBRANCH  18  19
ENDBRANCH  17  18
ENDBRANCH  16  17
ENDBRANCH   1  16
TORSDOF 15
ENDMDL
MODEL 5
REMARK VINA RESULT:      -5.7      4.760      8.128
REMARK  Name = 
REMARK  17 active torsions:
REMARK  status: ('A' for Active; 'I' for Inactive)
REMARK    1  A    between atoms: C_1  and  N_2
REMARK    2  A    between atoms: N_2  and  C_3
REMARK    3  A    between atoms: N_6  and  C_7
REMARK    4  A    between atoms: C_7  and  C_8
REMARK    5  A    between atoms: C_8  and  C_9
REMARK    6  A    between atoms: C_9  and  C_10
REMARK    7  A    between atoms: C_10  and  C_11
REMARK    8  A    between atoms: C_11  and  C_12
REMARK    9  A    between atoms: C_12  and  C_13
REMARK   10  A    between atoms: C_13  and  C_14
REMARK   11  A    between atoms: C_14  and  C_15
REMARK   12  A    between atoms: C_15  and  C_16
REMARK   13  A    between atoms: C_16  and  C_17
REMARK   14  A    between atoms: C_17  and  C_18
REMARK   15  A    between atoms: C_18  and  N_19
REMARK   16  A    between atoms: C_22  and  N_23
REMARK   17  A    between atoms: N_23  and  C_24
REMARK                            x       y       z     vdW  Elec       q    Type
REMARK                         _______ _______ _______ _____ _____    ______ ____
ROOT
ATOM      1  C   UNL     1       6.709   5.539  18.942  0.00  0.00    +0.000 C 
ENDROOT
BRANCH   1   2
ATOM      2  C   UNL     1       7.680   5.866  17.803  0.00  0.00    +0.000 C 
BRANCH   2   3
ATOM      3  C   UNL     1       7.647   7.354  17.441  0.00  0.00    +0.000 C 
BRANCH   3   4
ATOM      4  C   UNL     1       8.208   8.242  18.560  0.00  0.00    +0.000 C 
BRANCH   4   5
ATOM      5  C   UNL     1       8.615   9.633  18.066  0.00  0.00    +0.000 C 
BRANCH   5   6
ATOM      6  C   UNL     1       9.346  10.379  19.168  0.00  0.00    +0.000 C 
BRANCH   6  10
ATOM      7  C   UNL     1      10.466  14.064  17.448  0.00  0.00    +0.000 A 
ATOM      8  C   UNL     1      11.199  12.906  17.186  0.00  0.00    +0.000 A 
ATOM      9  C   UNL     1      10.857  11.721  17.814  0.00  0.00    +0.000 A 
ATOM     10  N   UNL     1       9.831  11.678  18.689  0.00  0.00    +0.000 N 
ATOM     11  C   UNL     1       9.178  12.803  19.048  0.00  0.00    +0.000 A 
ATOM     12  C   UNL     1       9.497  14.012  18.446  0.00  0.00    +0.000 A 
BRANCH   7  14
ATOM     13  C   UNL     1      11.993  15.952  17.178  0.00  0.00    +0.000 C 
ATOM     14  N   UNL     1      10.742  15.283  16.829  0.00  0.00    +0.000 N 
ATOM     15  H   UNL     1      10.593  15.279  15.824  0.00  0.00    +0.000 HD
ENDBRANCH   7  14
ENDBRANCH   6  10
ENDBRANCH   5   6
ENDBRANCH   4   5
ENDBRANCH   3   4
ENDBRANCH   2   3
ENDBRANCH   1   2
BRANCH   1  16
ATOM     16  C   UNL     1       5.421   4.891  18.423  0.00  0.00    +0.000 C 
BRANCH  16  17
ATOM     17  C   UNL     1       5.517   4.549  16.933  0.00  0.00    +0.000 C 
BRANCH  17  18
ATOM     18  C   UNL     1       4.523   3.452  16.538  0.00  0.00    +0.000 C 
BRANCH  18  19
ATOM     19  C   UNL     1       4.094   2.595  17.737  0.00  0.00    +0.000 C 
BRANCH  19  20
ATOM     20  C   UNL     1       2.696   1.998  17.562  0.00  0.00    +0.000 C 
BRANCH  20  21
ATOM     21  C   UNL     1       1.901   2.149  18.849  0.00  0.00    +0.000 C 
BRANCH  21  22
ATOM     22  N   UNL     1       1.921   3.544  19.306  0.00  0.00    +0.000 N 
ATOM     23  C   UNL     1       1.797   4.533  18.400  0.00  0.00    +0.000 A 
ATOM     24  C   UNL     1       1.953   5.853  18.783  0.00  0.00    +0.000 A 
ATOM     25  C   UNL     1       2.207   6.175  20.116  0.00  0.00    +0.000 A 
ATOM     26  C   UNL     1       2.278   5.134  21.038  0.00  0.00    +0.000 A 
ATOM     27  C   UNL     1       2.143   3.821  20.610  0.00  0.00    +0.000 A 
BRANCH  25  28
ATOM     28  N   UNL     1       2.287   7.513  20.445  0.00  0.00    +0.000 N 
ATOM     29  C   UNL     1       1.133   8.330  20.764  0.00  0.00    +0.000 C 
ATOM     30  H   UNL     1       3.121   7.763  20.978  0.00  0.00    +0.000 HD
ENDBRANCH  25  28
ENDBRANCH  21  22
ENDBRANCH  20  21
ENDBRANCH  19  20
ENDBRANCH  18  19
ENDBRANCH  17  18
ENDBRANCH  16  17
ENDBRANCH   1  16
TORSDOF 15
ENDMDL
MODEL 6
REMARK VINA RESULT:      -5.7      3.134      3.622
REMARK  Name = 
REMARK  17 active torsions:
REMARK  status: ('A' for Active; 'I' for Inactive)
REMARK    1  A    between atoms: C_1  and  N_2
REMARK    2  A    between atoms: N_2  and  C_3
REMARK    3  A    between atoms: N_6  and  C_7
REMARK    4  A    between atoms: C_7  and  C_8
REMARK    5  A    between atoms: C_8  and  C_9
REMARK    6  A    between atoms: C_9  and  C_10
REMARK    7  A    between atoms: C_10  and  C_11
REMARK    8  A    between atoms: C_11  and  C_12
REMARK    9  A    between atoms: C_12  and  C_13
REMARK   10  A    between atoms: C_13  and  C_14
REMARK   11  A    between atoms: C_14  and  C_15
REMARK   12  A    between atoms: C_15  and  C_16
REMARK   13  A    between atoms: C_16  and  C_17
REMARK   14  A    between atoms: C_17  and  C_18
REMARK   15  A    between atoms: C_18  and  N_19
REMARK   16  A    between atoms: C_22  and  N_23
REMARK   17  A    between atoms: N_23  and  C_24
REMARK                            x       y       z     vdW  Elec       q    Type
REMARK                         _______ _______ _______ _____ _____    ______ ____
ROOT
ATOM      1  C   UNL     1       1.834   7.517  19.278  0.00  0.00    +0.000 C 
ENDROOT
BRANCH   1   2
ATOM      2  C   UNL     1       1.406   8.274  20.538  0.00  0.00    +0.000 C 
BRANCH   2   3
ATOM      3  C   UNL     1       0.891   9.679  20.208  0.00  0.00    +0.000 C 
BRANCH   3   4
ATOM      4  C   UNL     1       0.791   9.925  18.696  0.00  0.00    +0.000 C 
BRANCH   4   5
ATOM      5  C   UNL     1      -0.651  10.119  18.222  0.00  0.00    +0.000 C 
BRANCH   5   6
ATOM      6  C   UNL     1      -1.378  11.072  19.155  0.00  0.00    +0.000 C 
BRANCH   6  10
ATOM      7  C   UNL     1      -5.212  11.875  17.592  0.00  0.00    +0.000 A 
ATOM      8  C   UNL     1      -4.180  11.448  16.756  0.00  0.00    +0.000 A 
ATOM      9  C   UNL     1      -2.911  11.256  17.276  0.00  0.00    +0.000 A 
ATOM     10  N   UNL     1      -2.660  11.493  18.581  0.00  0.00    +0.000 N 
ATOM     11  C   UNL     1      -3.608  12.015  19.386  0.00  0.00    +0.000 A 
ATOM     12  C   UNL     1      -4.890  12.229  18.899  0.00  0.00    +0.000 A 
BRANCH   7  14
ATOM     13  C   UNL     1      -7.092  13.399  17.258  0.00  0.00    +0.000 C 
ATOM     14  N   UNL     1      -6.517  12.062  17.136  0.00  0.00    +0.000 N 
ATOM     15  H   UNL     1      -6.695  11.665  16.218  0.00  0.00    +0.000 HD
ENDBRANCH   7  14
ENDBRANCH   6  10
ENDBRANCH   5   6
ENDBRANCH   4   5
ENDBRANCH   3   4
ENDBRANCH   2   3
ENDBRANCH   1   2
BRANCH   1  16
ATOM     16  C   UNL     1       2.694   6.294  19.613  0.00  0.00    +0.000 C 
BRANCH  16  17
ATOM     17  C   UNL     1       2.101   5.480  20.768  0.00  0.00    +0.000 C 
BRANCH  17  18
ATOM     18  C   UNL     1       1.050   4.481  20.275  0.00  0.00    +0.000 C 
BRANCH  18  19
ATOM     19  C   UNL     1       1.356   3.958  18.865  0.00  0.00    +0.000 C 
BRANCH  19  20
ATOM     20  C   UNL     1       2.069   2.605  18.882  0.00  0.00    +0.000 C 
BRANCH  20  21
ATOM     21  C   UNL     1       3.005   2.495  17.689  0.00  0.00    +0.000 C 
BRANCH  21  22
ATOM     22  N   UNL     1       4.127   3.430  17.825  0.00  0.00    +0.000 N 
ATOM     23  C   UNL     1       4.752   3.537  19.014  0.00  0.00    +0.000 A 
ATOM     24  C   UNL     1       5.717   4.508  19.211  0.00  0.00    +0.000 A 
ATOM     25  C   UNL     1       6.077   5.364  18.171  0.00  0.00    +0.000 A 
ATOM     26  C   UNL     1       5.451   5.196  16.938  0.00  0.00    +0.000 A 
ATOM     27  C   UNL     1       4.467   4.228  16.789  0.00  0.00    +0.000 A 
BRANCH  25  28
ATOM     28  N   UNL     1       7.092   6.268  18.410  0.00  0.00    +0.000 N 
ATOM     29  C   UNL     1       7.525   7.261  17.448  0.00  0.00    +0.000 C 
ATOM     30  H   UNL     1       7.145   6.589  19.378  0.00  0.00    +0.000 HD
ENDBRANCH  25  28
ENDBRANCH  21  22
ENDBRANCH  20  21
ENDBRANCH  19  20
ENDBRANCH  18  19
ENDBRANCH  17  18
ENDBRANCH  16  17
ENDBRANCH   1  16
TORSDOF 15
ENDMDL
MODEL 7
REMARK VINA RESULT:      -5.7      2.408      3.496
REMARK  Name = 
REMARK  17 active torsions:
REMARK  status: ('A' for Active; 'I' for Inactive)
REMARK    1  A    between atoms: C_1  and  N_2
REMARK    2  A    between atoms: N_2  and  C_3
REMARK    3  A    between atoms: N_6  and  C_7
REMARK    4  A    between atoms: C_7  and  C_8
REMARK    5  A    between atoms: C_8  and  C_9
REMARK    6  A    between atoms: C_9  and  C_10
REMARK    7  A    between atoms: C_10  and  C_11
REMARK    8  A    between atoms: C_11  and  C_12
REMARK    9  A    between atoms: C_12  and  C_13
REMARK   10  A    between atoms: C_13  and  C_14
REMARK   11  A    between atoms: C_14  and  C_15
REMARK   12  A    between atoms: C_15  and  C_16
REMARK   13  A    between atoms: C_16  and  C_17
REMARK   14  A    between atoms: C_17  and  C_18
REMARK   15  A    between atoms: C_18  and  N_19
REMARK   16  A    between atoms: C_22  and  N_23
REMARK   17  A    between atoms: N_23  and  C_24
REMARK                            x       y       z     vdW  Elec       q    Type
REMARK                         _______ _______ _______ _____ _____    ______ ____
ROOT
ATOM      1  C   UNL     1       2.489   6.072  18.259  0.00  0.00    +0.000 C 
ENDROOT
BRANCH   1   2
ATOM      2  C   UNL     1       2.464   6.513  19.725  0.00  0.00    +0.000 C 
BRANCH   2   3
ATOM      3  C   UNL     1       1.988   7.961  19.873  0.00  0.00    +0.000 C 
BRANCH   3   4
ATOM      4  C   UNL     1       1.006   8.139  21.040  0.00  0.00    +0.000 C 
BRANCH   4   5
ATOM      5  C   UNL     1       0.637   9.604  21.286  0.00  0.00    +0.000 C 
BRANCH   5   6
ATOM      6  C   UNL     1       1.016  10.442  20.077  0.00  0.00    +0.000 C 
BRANCH   6  10
ATOM      7  C   UNL     1      -2.168  11.555  17.545  0.00  0.00    +0.000 A 
ATOM      8  C   UNL     1      -1.341  12.524  18.113  0.00  0.00    +0.000 A 
ATOM      9  C   UNL     1      -0.345  12.144  18.996  0.00  0.00    +0.000 A 
ATOM     10  N   UNL     1      -0.176  10.845  19.324  0.00  0.00    +0.000 N 
ATOM     11  C   UNL     1      -1.031   9.900  18.879  0.00  0.00    +0.000 A 
ATOM     12  C   UNL     1      -2.047  10.244  17.999  0.00  0.00    +0.000 A 
BRANCH   7  14
ATOM     13  C   UNL     1      -3.530  10.854  15.641  0.00  0.00    +0.000 C 
ATOM     14  N   UNL     1      -3.172  11.869  16.630  0.00  0.00    +0.000 N 
ATOM     15  H   UNL     1      -3.999  12.283  17.050  0.00  0.00    +0.000 HD
ENDBRANCH   7  14
ENDBRANCH   6  10
ENDBRANCH   5   6
ENDBRANCH   4   5
ENDBRANCH   3   4
ENDBRANCH   2   3
ENDBRANCH   1   2
BRANCH   1  16
ATOM     16  C   UNL     1       1.472   4.959  17.982  0.00  0.00    +0.000 C 
BRANCH  16  17
ATOM     17  C   UNL     1       1.252   4.070  19.210  0.00  0.00    +0.000 C 
BRANCH  17  18
ATOM     18  C   UNL     1       1.403   2.585  18.869  0.00  0.00    +0.000 C 
BRANCH  18  19
ATOM     19  C   UNL     1       2.545   2.326  17.877  0.00  0.00    +0.000 C 
BRANCH  19  20
ATOM     20  C   UNL     1       3.866   1.996  18.574  0.00  0.00    +0.000 C 
BRANCH  20  21
ATOM     21  C   UNL     1       4.536   3.274  19.052  0.00  0.00    +0.000 C 
BRANCH  21  22
ATOM     22  N   UNL     1       5.307   3.890  17.966  0.00  0.00    +0.000 N 
ATOM     23  C   UNL     1       4.949   3.648  16.689  0.00  0.00    +0.000 A 
ATOM     24  C   UNL     1       5.738   4.100  15.646  0.00  0.00    +0.000 A 
ATOM     25  C   UNL     1       6.894   4.836  15.905  0.00  0.00    +0.000 A 
ATOM     26  C   UNL     1       7.209   5.114  17.232  0.00  0.00    +0.000 A 
ATOM     27  C   UNL     1       6.407   4.620  18.251  0.00  0.00    +0.000 A 
BRANCH  25  28
ATOM     28  N   UNL     1       7.602   5.313  14.821  0.00  0.00    +0.000 N 
ATOM     29  C   UNL     1       7.333   4.921  13.452  0.00  0.00    +0.000 C 
ATOM     30  H   UNL     1       7.904   6.284  14.913  0.00  0.00    +0.000 HD
ENDBRANCH  25  28
ENDBRANCH  21  22
ENDBRANCH  20  21
ENDBRANCH  19  20
ENDBRANCH  18  19
ENDBRANCH  17  18
ENDBRANCH  16  17
ENDBRANCH   1  16
TORSDOF 15
ENDMDL
MODEL 8
REMARK VINA RESULT:      -5.6      2.203      3.745
REMARK  Name = 
REMARK  17 active torsions:
REMARK  status: ('A' for Active; 'I' for Inactive)
REMARK    1  A    between atoms: C_1  and  N_2
REMARK    2  A    between atoms: N_2  and  C_3
REMARK    3  A    between atoms: N_6  and  C_7
REMARK    4  A    between atoms: C_7  and  C_8
REMARK    5  A    between atoms: C_8  and  C_9
REMARK    6  A    between atoms: C_9  and  C_10
REMARK    7  A    between atoms: C_10  and  C_11
REMARK    8  A    between atoms: C_11  and  C_12
REMARK    9  A    between atoms: C_12  and  C_13
REMARK   10  A    between atoms: C_13  and  C_14
REMARK   11  A    between atoms: C_14  and  C_15
REMARK   12  A    between atoms: C_15  and  C_16
REMARK   13  A    between atoms: C_16  and  C_17
REMARK   14  A    between atoms: C_17  and  C_18
REMARK   15  A    between atoms: C_18  and  N_19
REMARK   16  A    between atoms: C_22  and  N_23
REMARK   17  A    between atoms: N_23  and  C_24
REMARK                            x       y       z     vdW  Elec       q    Type
REMARK                         _______ _______ _______ _____ _____    ______ ____
ROOT
ATOM      1  C   UNL     1       1.943   7.483  19.676  0.00  0.00    +0.000 C 
ENDROOT
BRANCH   1   2
ATOM      2  C   UNL     1       1.503   7.905  21.080  0.00  0.00    +0.000 C 
BRANCH   2   3
ATOM      3  C   UNL     1       0.014   8.263  21.123  0.00  0.00    +0.000 C 
BRANCH   3   4
ATOM      4  C   UNL     1      -0.297   9.356  22.156  0.00  0.00    +0.000 C 
BRANCH   4   5
ATOM      5  C   UNL     1       0.437  10.668  21.869  0.00  0.00    +0.000 C 
BRANCH   5   6
ATOM      6  C   UNL     1      -0.115  11.302  20.604  0.00  0.00    +0.000 C 
BRANCH   6  10
ATOM      7  C   UNL     1       2.516  13.738  18.382  0.00  0.00    +0.000 A 
ATOM      8  C   UNL     1       2.468  12.361  18.163  0.00  0.00    +0.000 A 
ATOM      9  C   UNL     1       1.649  11.570  18.950  0.00  0.00    +0.000 A 
ATOM     10  N   UNL     1       0.907  12.116  19.937  0.00  0.00    +0.000 N 
ATOM     11  C   UNL     1       1.019  13.425  20.245  0.00  0.00    +0.000 A 
ATOM     12  C   UNL     1       1.836  14.249  19.485  0.00  0.00    +0.000 A 
BRANCH   7  14
ATOM     13  C   UNL     1       4.704  14.749  17.982  0.00  0.00    +0.000 C 
ATOM     14  N   UNL     1       3.300  14.593  17.609  0.00  0.00    +0.000 N 
ATOM     15  H   UNL     1       3.196  14.456  16.607  0.00  0.00    +0.000 HD
ENDBRANCH   7  14
ENDBRANCH   6  10
ENDBRANCH   5   6
ENDBRANCH   4   5
ENDBRANCH   3   4
ENDBRANCH   2   3
ENDBRANCH   1   2
BRANCH   1  16
ATOM     16  C   UNL     1       2.170   5.970  19.581  0.00  0.00    +0.000 C 
BRANCH  16  17
ATOM     17  C   UNL     1       1.963   5.278  20.932  0.00  0.00    +0.000 C 
BRANCH  17  18
ATOM     18  C   UNL     1       1.242   3.936  20.777  0.00  0.00    +0.000 C 
BRANCH  18  19
ATOM     19  C   UNL     1       1.119   3.506  19.309  0.00  0.00    +0.000 C 
BRANCH  19  20
ATOM     20  C   UNL     1       1.862   2.202  19.014  0.00  0.00    +0.000 C 
BRANCH  20  21
ATOM     21  C   UNL     1       2.581   2.303  17.678  0.00  0.00    +0.000 C 
BRANCH  21  22
ATOM     22  N   UNL     1       3.717   3.227  17.772  0.00  0.00    +0.000 N 
ATOM     23  C   UNL     1       4.466   3.233  18.893  0.00  0.00    +0.000 A 
ATOM     24  C   UNL     1       5.454   4.186  19.066  0.00  0.00    +0.000 A 
ATOM     25  C   UNL     1       5.705   5.129  18.071  0.00  0.00    +0.000 A 
ATOM     26  C   UNL     1       4.951   5.065  16.903  0.00  0.00    +0.000 A 
ATOM     27  C   UNL     1       3.950   4.111  16.778  0.00  0.00    +0.000 A 
BRANCH  25  28
ATOM     28  N   UNL     1       6.747   6.011  18.276  0.00  0.00    +0.000 N 
ATOM     29  C   UNL     1       7.792   5.803  19.259  0.00  0.00    +0.000 C 
ATOM     30  H   UNL     1       7.073   6.477  17.429  0.00  0.00    +0.000 HD
ENDBRANCH  25  28
ENDBRANCH  21  22
ENDBRANCH  20  21
ENDBRANCH  19  20
ENDBRANCH  18  19
ENDBRANCH  17  18
ENDBRANCH  16  17
ENDBRANCH   1  16
TORSDOF 15
ENDMDL
MODEL 9
REMARK VINA RESULT:      -5.5      2.344     10.296
REMARK  Name = 
REMARK  17 active torsions:
REMARK  status: ('A' for Active; 'I' for Inactive)
REMARK    1  A    between atoms: C_1  and  N_2
REMARK    2  A    between atoms: N_2  and  C_3
REMARK    3  A    between atoms: N_6  and  C_7
REMARK    4  A    between atoms: C_7  and  C_8
REMARK    5  A    between atoms: C_8  and  C_9
REMARK    6  A    between atoms: C_9  and  C_10
REMARK    7  A    between atoms: C_10  and  C_11
REMARK    8  A    between atoms: C_11  and  C_12
REMARK    9  A    between atoms: C_12  and  C_13
REMARK   10  A    between atoms: C_13  and  C_14
REMARK   11  A    between atoms: C_14  and  C_15
REMARK   12  A    between atoms: C_15  and  C_16
REMARK   13  A    between atoms: C_16  and  C_17
REMARK   14  A    between atoms: C_17  and  C_18
REMARK   15  A    between atoms: C_18  and  N_19
REMARK   16  A    between atoms: C_22  and  N_23
REMARK   17  A    between atoms: N_23  and  C_24
REMARK                            x       y       z     vdW  Elec       q    Type
REMARK                         _______ _______ _______ _____ _____    ______ ____
ROOT
ATOM      1  C   UNL     1       2.767   6.606  19.591  0.00  0.00    +0.000 C 
ENDROOT
BRANCH   1   2
ATOM      2  C   UNL     1       1.682   5.946  20.445  0.00  0.00    +0.000 C 
BRANCH   2   3
ATOM      3  C   UNL     1       2.204   4.693  21.156  0.00  0.00    +0.000 C 
BRANCH   3   4
ATOM      4  C   UNL     1       1.296   3.474  20.935  0.00  0.00    +0.000 C 
BRANCH   4   5
ATOM      5  C   UNL     1       1.920   2.431  20.005  0.00  0.00    +0.000 C 
BRANCH   5   6
ATOM      6  C   UNL     1       3.434   2.551  20.036  0.00  0.00    +0.000 C 
BRANCH   6  10
ATOM      7  C   UNL     1       5.061   4.314  16.568  0.00  0.00    +0.000 A 
ATOM      8  C   UNL     1       5.708   4.438  17.798  0.00  0.00    +0.000 A 
ATOM      9  C   UNL     1       5.123   3.912  18.936  0.00  0.00    +0.000 A 
ATOM     10  N   UNL     1       3.925   3.292  18.871  0.00  0.00    +0.000 N 
ATOM     11  C   UNL     1       3.225   3.258  17.718  0.00  0.00    +0.000 A 
ATOM     12  C   UNL     1       3.774   3.783  16.557  0.00  0.00    +0.000 A 
BRANCH   7  14
ATOM     13  C   UNL     1       7.064   4.820  15.264  0.00  0.00    +0.000 C 
ATOM     14  N   UNL     1       5.608   4.799  15.381  0.00  0.00    +0.000 N 
ATOM     15  H   UNL     1       5.176   4.422  14.542  0.00  0.00    +0.000 HD
ENDBRANCH   7  14
ENDBRANCH   6  10
ENDBRANCH   5   6
ENDBRANCH   4   5
ENDBRANCH   3   4
ENDBRANCH   2   3
ENDBRANCH   1   2
BRANCH   1  16
ATOM     16  C   UNL     1       2.272   6.905  18.172  0.00  0.00    +0.000 C 
BRANCH  16  17
ATOM     17  C   UNL     1       2.284   8.407  17.870  0.00  0.00    +0.000 C 
BRANCH  17  18
ATOM     18  C   UNL     1       1.419   9.191  18.861  0.00  0.00    +0.000 C 
BRANCH  18  19
ATOM     19  C   UNL     1       0.537  10.237  18.166  0.00  0.00    +0.000 C 
BRANCH  19  20
ATOM     20  C   UNL     1      -0.957   9.978  18.374  0.00  0.00    +0.000 C 
BRANCH  20  21
ATOM     21  C   UNL     1      -1.773  11.068  17.697  0.00  0.00    +0.000 C 
BRANCH  21  22
ATOM     22  N   UNL     1      -2.769  11.617  18.624  0.00  0.00    +0.000 N 
ATOM     23  C   UNL     1      -4.073  11.577  18.285  0.00  0.00    +0.000 A 
ATOM     24  C   UNL     1      -5.018  12.211  19.072  0.00  0.00    +0.000 A 
ATOM     25  C   UNL     1      -4.635  12.870  20.239  0.00  0.00    +0.000 A 
ATOM     26  C   UNL     1      -3.288  12.850  20.591  0.00  0.00    +0.000 A 
ATOM     27  C   UNL     1      -2.366  12.226  19.760  0.00  0.00    +0.000 A 
BRANCH  25  28
ATOM     28  N   UNL     1      -5.632  13.426  21.015  0.00  0.00    +0.000 N 
ATOM     29  C   UNL     1      -5.441  14.596  21.849  0.00  0.00    +0.000 C 
ATOM     30  H   UNL     1      -6.563  13.371  20.600  0.00  0.00    +0.000 HD
ENDBRANCH  25  28
ENDBRANCH  21  22
ENDBRANCH  20  21
ENDBRANCH  19  20
ENDBRANCH  18  19
ENDBRANCH  17  18
ENDBRANCH  16  17
ENDBRANCH   1  16
TORSDOF 15
ENDMDL
