MODEL 1
REMARK VINA RESULT:      -7.8      0.000      0.000
REMARK  Name = 
REMARK  2 active torsions:
REMARK  status: ('A' for Active; 'I' for Inactive)
REMARK    1  A    between atoms: C_7  and  N_8
REMARK    2  A    between atoms: C_9  and  C_11
REMARK                            x       y       z     vdW  Elec       q    Type
REMARK                         _______ _______ _______ _____ _____    ______ ____
ROOT
ATOM      1  N   UNL     1      -2.013  12.170  23.469  0.00  0.00    +0.000 N 
ATOM      2  C   UNL     1      -1.187  11.324  22.698  0.00  0.00    +0.000 A 
ATOM      3  N   UNL     1      -0.400  10.407  23.318  0.00  0.00    +0.000 NA
ATOM      4  C   UNL     1       0.418   9.591  22.607  0.00  0.00    +0.000 A 
ATOM      5  C   UNL     1       0.462   9.692  21.213  0.00  0.00    +0.000 A 
ATOM      6  C   UNL     1       1.305   8.876  20.453  0.00  0.00    +0.000 A 
ATOM      7  C   UNL     1       1.345   8.989  19.041  0.00  0.00    +0.000 A 
ATOM      8  C   UNL     1       0.518   9.958  18.431  0.00  0.00    +0.000 A 
ATOM      9  C   UNL     1      -0.331  10.771  19.196  0.00  0.00    +0.000 A 
ATOM     10  C   UNL     1      -0.358  10.643  20.587  0.00  0.00    +0.000 A 
ATOM     11  N   UNL     1      -1.167  11.437  21.342  0.00  0.00    +0.000 NA
ATOM     12  H   UNL     1      -2.012  12.101  24.498  0.00  0.00    +0.000 HD
ATOM     13  H   UNL     1      -2.607  12.879  23.013  0.00  0.00    +0.000 HD
ENDROOT
BRANCH   7  14
ATOM     14  N   UNL     1       2.198   8.184  18.201  0.00  0.00    +0.000 N 
ATOM     15  C   UNL     1       2.665   6.924  18.492  0.00  0.00    +0.000 C 
ATOM     16  O   UNL     1       2.302   6.358  19.509  0.00  0.00    +0.000 OA
ATOM     17  H   UNL     1       2.453   8.603  17.298  0.00  0.00    +0.000 HD
BRANCH  15  18
ATOM     18  C   UNL     1       3.598   6.169  17.590  0.00  0.00    +0.000 A 
ATOM     19  C   UNL     1       4.577   6.787  16.779  0.00  0.00    +0.000 A 
ATOM     20  C   UNL     1       5.423   6.016  15.973  0.00  0.00    +0.000 A 
ATOM     21  C   UNL     1       5.309   4.623  15.957  0.00  0.00    +0.000 A 
ATOM     22 CL   UNL     1       6.371   3.660  14.945  0.00  0.00    +0.000 Cl
ATOM     23  C   UNL     1       4.350   3.997  16.749  0.00  0.00    +0.000 A 
ATOM     24  C   UNL     1       3.505   4.758  17.556  0.00  0.00    +0.000 A 
ENDBRANCH  15  18
ENDBRANCH   7  14
TORSDOF 2
ENDMDL
MODEL 2
REMARK VINA RESULT:      -7.7      4.011      8.587
REMARK  Name = 
REMARK  2 active torsions:
REMARK  status: ('A' for Active; 'I' for Inactive)
REMARK    1  A    between atoms: C_7  and  N_8
REMARK    2  A    between atoms: C_9  and  C_11
REMARK                            x       y       z     vdW  Elec       q    Type
REMARK                         _______ _______ _______ _____ _____    ______ ____
ROOT
ATOM      1  N   UNL     1       6.398   3.548  14.466  0.00  0.00    +0.000 N 
ATOM      2  C   UNL     1       5.699   4.473  15.270  0.00  0.00    +0.000 A 
ATOM      3  N   UNL     1       5.987   5.798  15.176  0.00  0.00    +0.000 NA
ATOM      4  C   UNL     1       5.346   6.711  15.948  0.00  0.00    +0.000 A 
ATOM      5  C   UNL     1       4.373   6.291  16.860  0.00  0.00    +0.000 A 
ATOM      6  C   UNL     1       3.704   7.204  17.680  0.00  0.00    +0.000 A 
ATOM      7  C   UNL     1       2.723   6.768  18.604  0.00  0.00    +0.000 A 
ATOM      8  C   UNL     1       2.454   5.384  18.679  0.00  0.00    +0.000 A 
ATOM      9  C   UNL     1       3.122   4.470  17.850  0.00  0.00    +0.000 A 
ATOM     10  C   UNL     1       4.084   4.920  16.944  0.00  0.00    +0.000 A 
ATOM     11  N   UNL     1       4.751   4.041  16.145  0.00  0.00    +0.000 NA
ATOM     12  H   UNL     1       7.132   3.873  13.819  0.00  0.00    +0.000 HD
ATOM     13  H   UNL     1       6.198   2.540  14.534  0.00  0.00    +0.000 HD
ENDROOT
BRANCH   7  14
ATOM     14  N   UNL     1       2.004   7.659  19.483  0.00  0.00    +0.000 N 
ATOM     15  C   UNL     1       1.348   8.808  19.111  0.00  0.00    +0.000 C 
ATOM     16  O   UNL     1       1.277   9.117  17.934  0.00  0.00    +0.000 OA
ATOM     17  H   UNL     1       1.977   7.378  20.471  0.00  0.00    +0.000 HD
BRANCH  15  18
ATOM     18  C   UNL     1       0.667   9.716  20.095  0.00  0.00    +0.000 A 
ATOM     19  C   UNL     1      -0.008  10.903  19.729  0.00  0.00    +0.000 A 
ATOM     20  C   UNL     1      -0.632  11.694  20.702  0.00  0.00    +0.000 A 
ATOM     21  C   UNL     1      -0.594  11.322  22.048  0.00  0.00    +0.000 A 
ATOM     22 CL   UNL     1      -1.378  12.316  23.263  0.00  0.00    +0.000 Cl
ATOM     23  C   UNL     1       0.068  10.156  22.426  0.00  0.00    +0.000 A 
ATOM     24  C   UNL     1       0.690   9.362  21.464  0.00  0.00    +0.000 A 
ENDBRANCH  15  18
ENDBRANCH   7  14
TORSDOF 2
ENDMDL
MODEL 3
REMARK VINA RESULT:      -7.6      7.019      9.279
REMARK  Name = 
REMARK  2 active torsions:
REMARK  status: ('A' for Active; 'I' for Inactive)
REMARK    1  A    between atoms: C_7  and  N_8
REMARK    2  A    between atoms: C_9  and  C_11
REMARK                            x       y       z     vdW  Elec       q    Type
REMARK                         _______ _______ _______ _____ _____    ______ ____
ROOT
ATOM      1  N   UNL     1       4.343   2.676  17.967  0.00  0.00    +0.000 N 
ATOM      2  C   UNL     1       4.910   3.953  17.764  0.00  0.00    +0.000 A 
ATOM      3  N   UNL     1       4.325   4.818  16.895  0.00  0.00    +0.000 NA
ATOM      4  C   UNL     1       4.855   6.045  16.664  0.00  0.00    +0.000 A 
ATOM      5  C   UNL     1       6.024   6.433  17.324  0.00  0.00    +0.000 A 
ATOM      6  C   UNL     1       6.604   7.685  17.098  0.00  0.00    +0.000 A 
ATOM      7  C   UNL     1       7.792   8.068  17.769  0.00  0.00    +0.000 A 
ATOM      8  C   UNL     1       8.375   7.142  18.660  0.00  0.00    +0.000 A 
ATOM      9  C   UNL     1       7.788   5.888  18.890  0.00  0.00    +0.000 A 
ATOM     10  C   UNL     1       6.616   5.531  18.220  0.00  0.00    +0.000 A 
ATOM     11  N   UNL     1       6.045   4.311  18.424  0.00  0.00    +0.000 NA
ATOM     12  H   UNL     1       3.495   2.396  17.450  0.00  0.00    +0.000 HD
ATOM     13  H   UNL     1       4.782   2.006  18.615  0.00  0.00    +0.000 HD
ENDROOT
BRANCH   7  14
ATOM     14  N   UNL     1       8.443   9.341  17.572  0.00  0.00    +0.000 N 
ATOM     15  C   UNL     1       9.004  10.122  18.554  0.00  0.00    +0.000 C 
ATOM     16  O   UNL     1       9.043   9.723  19.705  0.00  0.00    +0.000 OA
ATOM     17  H   UNL     1       8.499   9.664  16.598  0.00  0.00    +0.000 HD
BRANCH  15  18
ATOM     18  C   UNL     1       9.617  11.466  18.280  0.00  0.00    +0.000 A 
ATOM     19  C   UNL     1      10.827  11.646  17.573  0.00  0.00    +0.000 A 
ATOM     20  C   UNL     1      11.331  12.932  17.343  0.00  0.00    +0.000 A 
ATOM     21  C   UNL     1      10.645  14.056  17.811  0.00  0.00    +0.000 A 
ATOM     22 CL   UNL     1      11.278  15.666  17.520  0.00  0.00    +0.000 Cl
ATOM     23  C   UNL     1       9.450  13.896  18.509  0.00  0.00    +0.000 A 
ATOM     24  C   UNL     1       8.941  12.619  18.742  0.00  0.00    +0.000 A 
ENDBRANCH  15  18
ENDBRANCH   7  14
TORSDOF 2
ENDMDL
MODEL 4
REMARK VINA RESULT:      -7.6      3.994      8.546
REMARK  Name = 
REMARK  2 active torsions:
REMARK  status: ('A' for Active; 'I' for Inactive)
REMARK    1  A    between atoms: C_7  and  N_8
REMARK    2  A    between atoms: C_9  and  C_11
REMARK                            x       y       z     vdW  Elec       q    Type
REMARK                         _______ _______ _______ _____ _____    ______ ____
ROOT
ATOM      1  N   UNL     1       6.489   3.365  15.324  0.00  0.00    +0.000 N 
ATOM      2  C   UNL     1       5.777   4.415  15.943  0.00  0.00    +0.000 A 
ATOM      3  N   UNL     1       6.280   5.677  15.914  0.00  0.00    +0.000 NA
ATOM      4  C   UNL     1       5.630   6.705  16.515  0.00  0.00    +0.000 A 
ATOM      5  C   UNL     1       4.423   6.471  17.180  0.00  0.00    +0.000 A 
ATOM      6  C   UNL     1       3.735   7.505  17.821  0.00  0.00    +0.000 A 
ATOM      7  C   UNL     1       2.514   7.257  18.497  0.00  0.00    +0.000 A 
ATOM      8  C   UNL     1       2.024   5.933  18.511  0.00  0.00    +0.000 A 
ATOM      9  C   UNL     1       2.713   4.898  17.862  0.00  0.00    +0.000 A 
ATOM     10  C   UNL     1       3.914   5.164  17.199  0.00  0.00    +0.000 A 
ATOM     11  N   UNL     1       4.600   4.164  16.578  0.00  0.00    +0.000 NA
ATOM     12  H   UNL     1       7.391   3.551  14.862  0.00  0.00    +0.000 HD
ATOM     13  H   UNL     1       6.124   2.402  15.348  0.00  0.00    +0.000 HD
ENDROOT
BRANCH   7  14
ATOM     14  N   UNL     1       1.762   8.278  19.184  0.00  0.00    +0.000 N 
ATOM     15  C   UNL     1       1.343   8.232  20.493  0.00  0.00    +0.000 C 
ATOM     16  O   UNL     1       1.665   7.297  21.205  0.00  0.00    +0.000 OA
ATOM     17  H   UNL     1       1.547   9.117  18.631  0.00  0.00    +0.000 HD
BRANCH  15  18
ATOM     18  C   UNL     1       0.512   9.312  21.124  0.00  0.00    +0.000 A 
ATOM     19  C   UNL     1       0.078  10.470  20.439  0.00  0.00    +0.000 A 
ATOM     20  C   UNL     1      -0.706  11.429  21.091  0.00  0.00    +0.000 A 
ATOM     21  C   UNL     1      -1.071  11.256  22.428  0.00  0.00    +0.000 A 
ATOM     22 CL   UNL     1      -2.056  12.459  23.241  0.00  0.00    +0.000 Cl
ATOM     23  C   UNL     1      -0.653  10.121  23.118  0.00  0.00    +0.000 A 
ATOM     24  C   UNL     1       0.128   9.160  22.477  0.00  0.00    +0.000 A 
ENDBRANCH  15  18
ENDBRANCH   7  14
TORSDOF 2
ENDMDL
MODEL 5
REMARK VINA RESULT:      -7.6      4.020      8.653
REMARK  Name = 
REMARK  2 active torsions:
REMARK  status: ('A' for Active; 'I' for Inactive)
REMARK    1  A    between atoms: C_7  and  N_8
REMARK    2  A    between atoms: C_9  and  C_11
REMARK                            x       y       z     vdW  Elec       q    Type
REMARK                         _______ _______ _______ _____ _____    ______ ____
ROOT
ATOM      1  N   UNL     1       6.610   3.577  14.504  0.00  0.00    +0.000 N 
ATOM      2  C   UNL     1       5.864   4.453  15.322  0.00  0.00    +0.000 A 
ATOM      3  N   UNL     1       6.048   5.794  15.212  0.00  0.00    +0.000 NA
ATOM      4  C   UNL     1       5.361   6.663  15.996  0.00  0.00    +0.000 A 
ATOM      5  C   UNL     1       4.449   6.177  16.937  0.00  0.00    +0.000 A 
ATOM      6  C   UNL     1       3.735   7.044  17.771  0.00  0.00    +0.000 A 
ATOM      7  C   UNL     1       2.816   6.542  18.725  0.00  0.00    +0.000 A 
ATOM      8  C   UNL     1       2.655   5.142  18.815  0.00  0.00    +0.000 A 
ATOM      9  C   UNL     1       3.367   4.275  17.974  0.00  0.00    +0.000 A 
ATOM     10  C   UNL     1       4.267   4.789  17.038  0.00  0.00    +0.000 A 
ATOM     11  N   UNL     1       4.977   3.957  16.226  0.00  0.00    +0.000 NA
ATOM     12  H   UNL     1       7.299   3.951  13.834  0.00  0.00    +0.000 HD
ATOM     13  H   UNL     1       6.489   2.556  14.584  0.00  0.00    +0.000 HD
ENDROOT
BRANCH   7  14
ATOM     14  N   UNL     1       2.056   7.382  19.619  0.00  0.00    +0.000 N 
ATOM     15  C   UNL     1       1.605   8.652  19.347  0.00  0.00    +0.000 C 
ATOM     16  O   UNL     1       1.775   9.138  18.243  0.00  0.00    +0.000 OA
ATOM     17  H   UNL     1       1.826   6.965  20.529  0.00  0.00    +0.000 HD
BRANCH  15  18
ATOM     18  C   UNL     1       0.866   9.490  20.352  0.00  0.00    +0.000 A 
ATOM     19  C   UNL     1       0.582   9.065  21.670  0.00  0.00    +0.000 A 
ATOM     20  C   UNL     1      -0.100   9.907  22.556  0.00  0.00    +0.000 A 
ATOM     21  C   UNL     1      -0.511  11.179  22.150  0.00  0.00    +0.000 A 
ATOM     22 CL   UNL     1      -1.364  12.233  23.264  0.00  0.00    +0.000 Cl
ATOM     23  C   UNL     1      -0.239  11.614  20.855  0.00  0.00    +0.000 A 
ATOM     24  C   UNL     1       0.441  10.782  19.966  0.00  0.00    +0.000 A 
ENDBRANCH  15  18
ENDBRANCH   7  14
TORSDOF 2
ENDMDL
MODEL 6
REMARK VINA RESULT:      -7.5      4.563      8.495
REMARK  Name = 
REMARK  2 active torsions:
REMARK  status: ('A' for Active; 'I' for Inactive)
REMARK    1  A    between atoms: C_7  and  N_8
REMARK    2  A    between atoms: C_9  and  C_11
REMARK                            x       y       z     vdW  Elec       q    Type
REMARK                         _______ _______ _______ _____ _____    ______ ____
ROOT
ATOM      1  N   UNL     1       4.120   0.716  18.107  0.00  0.00    +0.000 N 
ATOM      2  C   UNL     1       3.448   1.787  18.734  0.00  0.00    +0.000 A 
ATOM      3  N   UNL     1       2.289   1.554  19.404  0.00  0.00    +0.000 NA
ATOM      4  C   UNL     1       1.609   2.564  20.002  0.00  0.00    +0.000 A 
ATOM      5  C   UNL     1       2.100   3.871  19.929  0.00  0.00    +0.000 A 
ATOM      6  C   UNL     1       1.417   4.937  20.523  0.00  0.00    +0.000 A 
ATOM      7  C   UNL     1       1.920   6.259  20.440  0.00  0.00    +0.000 A 
ATOM      8  C   UNL     1       3.123   6.465  19.730  0.00  0.00    +0.000 A 
ATOM      9  C   UNL     1       3.810   5.393  19.142  0.00  0.00    +0.000 A 
ATOM     10  C   UNL     1       3.299   4.097  19.236  0.00  0.00    +0.000 A 
ATOM     11  N   UNL     1       3.949   3.050  18.656  0.00  0.00    +0.000 NA
ATOM     12  H   UNL     1       3.729  -0.237  18.147  0.00  0.00    +0.000 HD
ATOM     13  H   UNL     1       4.993   0.880  17.586  0.00  0.00    +0.000 HD
ENDROOT
BRANCH   7  14
ATOM     14  N   UNL     1       1.258   7.402  21.022  0.00  0.00    +0.000 N 
ATOM     15  C   UNL     1       1.119   8.639  20.440  0.00  0.00    +0.000 C 
ATOM     16  O   UNL     1       1.513   8.827  19.302  0.00  0.00    +0.000 OA
ATOM     17  H   UNL     1       0.843   7.247  21.949  0.00  0.00    +0.000 HD
BRANCH  15  18
ATOM     18  C   UNL     1       0.465   9.800  21.133  0.00  0.00    +0.000 A 
ATOM     19  C   UNL     1       0.384  11.099  20.581  0.00  0.00    +0.000 A 
ATOM     20  C   UNL     1      -0.254  12.130  21.281  0.00  0.00    +0.000 A 
ATOM     21  C   UNL     1      -0.818  11.890  22.536  0.00  0.00    +0.000 A 
ATOM     22 CL   UNL     1      -1.618  13.184  23.410  0.00  0.00    +0.000 Cl
ATOM     23  C   UNL     1      -0.747  10.616  23.096  0.00  0.00    +0.000 A 
ATOM     24  C   UNL     1      -0.115   9.583  22.405  0.00  0.00    +0.000 A 
ENDBRANCH  15  18
ENDBRANCH   7  14
TORSDOF 2
ENDMDL
MODEL 7
REMARK VINA RESULT:      -7.5      4.305      7.911
REMARK  Name = 
REMARK  2 active torsions:
REMARK  status: ('A' for Active; 'I' for Inactive)
REMARK    1  A    between atoms: C_7  and  N_8
REMARK    2  A    between atoms: C_9  and  C_11
REMARK                            x       y       z     vdW  Elec       q    Type
REMARK                         _______ _______ _______ _____ _____    ______ ____
ROOT
ATOM      1  N   UNL     1       5.028   1.449  19.887  0.00  0.00    +0.000 N 
ATOM      2  C   UNL     1       4.587   2.782  19.736  0.00  0.00    +0.000 A 
ATOM      3  N   UNL     1       5.368   3.677  19.077  0.00  0.00    +0.000 NA
ATOM      4  C   UNL     1       4.982   4.970  18.930  0.00  0.00    +0.000 A 
ATOM      5  C   UNL     1       3.763   5.396  19.466  0.00  0.00    +0.000 A 
ATOM      6  C   UNL     1       3.343   6.724  19.345  0.00  0.00    +0.000 A 
ATOM      7  C   UNL     1       2.108   7.149  19.895  0.00  0.00    +0.000 A 
ATOM      8  C   UNL     1       1.325   6.192  20.578  0.00  0.00    +0.000 A 
ATOM      9  C   UNL     1       1.746   4.859  20.693  0.00  0.00    +0.000 A 
ATOM     10  C   UNL     1       2.966   4.460  20.142  0.00  0.00    +0.000 A 
ATOM     11  N   UNL     1       3.393   3.172  20.260  0.00  0.00    +0.000 NA
ATOM     12  H   UNL     1       5.942   1.158  19.510  0.00  0.00    +0.000 HD
ATOM     13  H   UNL     1       4.451   0.762  20.394  0.00  0.00    +0.000 HD
ENDROOT
BRANCH   7  14
ATOM     14  N   UNL     1       1.622   8.505  19.812  0.00  0.00    +0.000 N 
ATOM     15  C   UNL     1       1.405   9.217  18.656  0.00  0.00    +0.000 C 
ATOM     16  O   UNL     1       1.557   8.683  17.571  0.00  0.00    +0.000 OA
ATOM     17  H   UNL     1       1.406   8.953  20.711  0.00  0.00    +0.000 HD
BRANCH  15  18
ATOM     18  C   UNL     1       0.951  10.648  18.651  0.00  0.00    +0.000 A 
ATOM     19  C   UNL     1      -0.398  11.044  18.802  0.00  0.00    +0.000 A 
ATOM     20  C   UNL     1      -0.745  12.400  18.800  0.00  0.00    +0.000 A 
ATOM     21  C   UNL     1       0.236  13.382  18.648  0.00  0.00    +0.000 A 
ATOM     22 CL   UNL     1      -0.203  15.081  18.648  0.00  0.00    +0.000 Cl
ATOM     23  C   UNL     1       1.570  13.011  18.497  0.00  0.00    +0.000 A 
ATOM     24  C   UNL     1       1.925  11.662  18.499  0.00  0.00    +0.000 A 
ENDBRANCH  15  18
ENDBRANCH   7  14
TORSDOF 2
ENDMDL
MODEL 8
REMARK VINA RESULT:      -7.5      4.561      8.403
REMARK  Name = 
REMARK  2 active torsions:
REMARK  status: ('A' for Active; 'I' for Inactive)
REMARK    1  A    between atoms: C_7  and  N_8
REMARK    2  A    between atoms: C_9  and  C_11
REMARK                            x       y       z     vdW  Elec       q    Type
REMARK                         _______ _______ _______ _____ _____    ______ ____
ROOT
ATOM      1  N   UNL     1       4.870   1.570  19.729  0.00  0.00    +0.000 N 
ATOM      2  C   UNL     1       4.054   2.686  20.016  0.00  0.00    +0.000 A 
ATOM      3  N   UNL     1       3.112   2.596  20.991  0.00  0.00    +0.000 NA
ATOM      4  C   UNL     1       2.300   3.644  21.279  0.00  0.00    +0.000 A 
ATOM      5  C   UNL     1       2.425   4.838  20.563  0.00  0.00    +0.000 A 
ATOM      6  C   UNL     1       1.594   5.931  20.825  0.00  0.00    +0.000 A 
ATOM      7  C   UNL     1       1.725   7.136  20.091  0.00  0.00    +0.000 A 
ATOM      8  C   UNL     1       2.711   7.191  19.082  0.00  0.00    +0.000 A 
ATOM      9  C   UNL     1       3.547   6.095  18.824  0.00  0.00    +0.000 A 
ATOM     10  C   UNL     1       3.403   4.917  19.561  0.00  0.00    +0.000 A 
ATOM     11  N   UNL     1       4.199   3.840  19.310  0.00  0.00    +0.000 NA
ATOM     12  H   UNL     1       4.746   0.688  20.247  0.00  0.00    +0.000 HD
ATOM     13  H   UNL     1       5.581   1.620  18.984  0.00  0.00    +0.000 HD
ENDROOT
BRANCH   7  14
ATOM     14  N   UNL     1       0.894   8.296  20.307  0.00  0.00    +0.000 N 
ATOM     15  C   UNL     1       0.827   9.040  21.462  0.00  0.00    +0.000 C 
ATOM     16  O   UNL     1       1.563   8.782  22.399  0.00  0.00    +0.000 OA
ATOM     17  H   UNL     1       0.323   8.586  19.504  0.00  0.00    +0.000 HD
BRANCH  15  18
ATOM     18  C   UNL     1      -0.107  10.203  21.632  0.00  0.00    +0.000 A 
ATOM     19  C   UNL     1      -0.622  10.620  22.881  0.00  0.00    +0.000 A 
ATOM     20  C   UNL     1      -1.478  11.725  22.963  0.00  0.00    +0.000 A 
ATOM     21  C   UNL     1      -1.838  12.430  21.812  0.00  0.00    +0.000 A 
ATOM     22 CL   UNL     1      -2.911  13.814  21.919  0.00  0.00    +0.000 Cl
ATOM     23  C   UNL     1      -1.340  12.032  20.573  0.00  0.00    +0.000 A 
ATOM     24  C   UNL     1      -0.486  10.935  20.482  0.00  0.00    +0.000 A 
ENDBRANCH  15  18
ENDBRANCH   7  14
TORSDOF 2
ENDMDL
MODEL 9
REMARK VINA RESULT:      -7.4      0.425      1.134
REMARK  Name = 
REMARK  2 active torsions:
REMARK  status: ('A' for Active; 'I' for Inactive)
REMARK    1  A    between atoms: C_7  and  N_8
REMARK    2  A    between atoms: C_9  and  C_11
REMARK                            x       y       z     vdW  Elec       q    Type
REMARK                         _______ _______ _______ _____ _____    ______ ____
ROOT
ATOM      1  N   UNL     1      -1.695  12.179  23.451  0.00  0.00    +0.000 N 
ATOM      2  C   UNL     1      -0.994  11.259  22.641  0.00  0.00    +0.000 A 
ATOM      3  N   UNL     1      -0.654  10.044  23.143  0.00  0.00    +0.000 NA
ATOM      4  C   UNL     1       0.035   9.144  22.397  0.00  0.00    +0.000 A 
ATOM      5  C   UNL     1       0.409   9.467  21.090  0.00  0.00    +0.000 A 
ATOM      6  C   UNL     1       1.133   8.568  20.299  0.00  0.00    +0.000 A 
ATOM      7  C   UNL     1       1.512   8.906  18.977  0.00  0.00    +0.000 A 
ATOM      8  C   UNL     1       1.147  10.180  18.490  0.00  0.00    +0.000 A 
ATOM      9  C   UNL     1       0.416  11.078  19.282  0.00  0.00    +0.000 A 
ATOM     10  C   UNL     1       0.050  10.725  20.583  0.00  0.00    +0.000 A 
ATOM     11  N   UNL     1      -0.646  11.593  21.368  0.00  0.00    +0.000 NA
ATOM     12  H   UNL     1      -1.939  11.935  24.422  0.00  0.00    +0.000 HD
ATOM     13  H   UNL     1      -1.949  13.109  23.086  0.00  0.00    +0.000 HD
ENDROOT
BRANCH   7  14
ATOM     14  N   UNL     1       2.265   8.028  18.114  0.00  0.00    +0.000 N 
ATOM     15  C   UNL     1       2.982   6.924  18.511  0.00  0.00    +0.000 C 
ATOM     16  O   UNL     1       2.961   6.568  19.676  0.00  0.00    +0.000 OA
ATOM     17  H   UNL     1       2.232   8.257  17.113  0.00  0.00    +0.000 HD
BRANCH  15  18
ATOM     18  C   UNL     1       3.790   6.089  17.559  0.00  0.00    +0.000 A 
ATOM     19  C   UNL     1       3.783   4.675  17.557  0.00  0.00    +0.000 A 
ATOM     20  C   UNL     1       4.553   3.963  16.629  0.00  0.00    +0.000 A 
ATOM     21  C   UNL     1       5.340   4.639  15.694  0.00  0.00    +0.000 A 
ATOM     22 CL   UNL     1       6.303   3.743  14.533  0.00  0.00    +0.000 Cl
ATOM     23  C   UNL     1       5.359   6.032  15.683  0.00  0.00    +0.000 A 
ATOM     24  C   UNL     1       4.594   6.749  16.602  0.00  0.00    +0.000 A 
ENDBRANCH  15  18
ENDBRANCH   7  14
TORSDOF 2
ENDMDL
