MODEL 1
REMARK VINA RESULT:      -7.7      0.000      0.000
REMARK  Name = 
REMARK  5 active torsions:
REMARK  status: ('A' for Active; 'I' for Inactive)
REMARK    1  A    between atoms: C_1  and  C_2
REMARK    2  A    between atoms: C_2  and  C_3
REMARK    3  A    between atoms: C_2  and  C_4
REMARK    4  A    between atoms: N_8  and  C_9
REMARK    5  A    between atoms: N_17  and  C_18
REMARK                            x       y       z     vdW  Elec       q    Type
REMARK                         _______ _______ _______ _____ _____    ______ ____
ROOT
ATOM      1  C   UNL     1      -5.165  13.260  20.643  0.00  0.00    +0.000 C 
ATOM      2  O   UNL     1      -5.695  13.202  19.308  0.00  0.00    +0.000 OA
ATOM      3  C   UNL     1      -5.308  12.229  18.440  0.00  0.00    +0.000 C 
ATOM      4  O   UNL     1      -6.104  11.837  17.593  0.00  0.00    +0.000 OA
ATOM      5  N   UNL     1      -3.976  11.844  18.500  0.00  0.00    +0.000 N 
ATOM      6  C   UNL     1      -3.167  12.206  19.601  0.00  0.00    +0.000 A 
ATOM      7  N   UNL     1      -1.879  11.831  19.620  0.00  0.00    +0.000 NA
ATOM      8  C   UNL     1      -1.122  12.136  20.681  0.00  0.00    +0.000 A 
ATOM      9  N   UNL     1       0.175  11.631  20.789  0.00  0.00    +0.000 N 
ATOM     10  N   UNL     1      -1.559  12.888  21.693  0.00  0.00    +0.000 NA
ATOM     11  C   UNL     1      -2.853  13.253  21.652  0.00  0.00    +0.000 A 
ATOM     12  C   UNL     1      -3.725  12.898  20.645  0.00  0.00    +0.000 A 
ATOM     13  H   UNL     1       0.601  11.987  21.635  0.00  0.00    +0.000 HD
ENDROOT
BRANCH   9  14
ATOM     14  C   UNL     1       0.709  10.435  20.280  0.00  0.00    +0.000 A 
ATOM     15  C   UNL     1       1.201  10.314  18.971  0.00  0.00    +0.000 A 
ATOM     16  C   UNL     1       1.785   9.131  18.525  0.00  0.00    +0.000 A 
ATOM     17  F   UNL     1       2.234   9.063  17.264  0.00  0.00    +0.000 F 
ATOM     18  C   UNL     1       1.902   8.044  19.369  0.00  0.00    +0.000 A 
ATOM     19  F   UNL     1       2.466   6.908  18.934  0.00  0.00    +0.000 F 
ATOM     20  C   UNL     1       1.431   8.145  20.669  0.00  0.00    +0.000 A 
ATOM     21  F   UNL     1       1.538   7.103  21.503  0.00  0.00    +0.000 F 
ATOM     22  C   UNL     1       0.846   9.328  21.129  0.00  0.00    +0.000 A 
ENDBRANCH   9  14
BRANCH   5  23
ATOM     23  C   UNL     1      -3.332  11.248  17.316  0.00  0.00    +0.000 C 
ATOM     24  C   UNL     1      -3.181   9.725  17.304  0.00  0.00    +0.000 C 
ATOM     25  C   UNL     1      -2.904   9.406  15.836  0.00  0.00    +0.000 C 
ATOM     26  C   UNL     1      -3.609  10.489  15.019  0.00  0.00    +0.000 C 
ATOM     27  C   UNL     1      -4.097  11.535  16.015  0.00  0.00    +0.000 C 
ENDBRANCH   5  23
BRANCH   1  29
ATOM     28  C   UNL     1      -6.155  12.874  23.001  0.00  0.00    +0.000 C 
ATOM     29  C   UNL     1      -6.107  12.419  21.543  0.00  0.00    +0.000 C 
ATOM     30  C   UNL     1      -7.536  12.456  20.971  0.00  0.00    +0.000 C 
ENDBRANCH   1  29
TORSDOF 3
ENDMDL
MODEL 2
REMARK VINA RESULT:      -7.4      4.661      8.319
REMARK  Name = 
REMARK  5 active torsions:
REMARK  status: ('A' for Active; 'I' for Inactive)
REMARK    1  A    between atoms: C_1  and  C_2
REMARK    2  A    between atoms: C_2  and  C_3
REMARK    3  A    between atoms: C_2  and  C_4
REMARK    4  A    between atoms: N_8  and  C_9
REMARK    5  A    between atoms: N_17  and  C_18
REMARK                            x       y       z     vdW  Elec       q    Type
REMARK                         _______ _______ _______ _____ _____    ______ ____
ROOT
ATOM      1  C   UNL     1       3.570   5.676  18.517  0.00  0.00    +0.000 C 
ATOM      2  O   UNL     1       3.524   5.252  19.889  0.00  0.00    +0.000 OA
ATOM      3  C   UNL     1       2.453   5.540  20.679  0.00  0.00    +0.000 C 
ATOM      4  O   UNL     1       2.150   4.759  21.575  0.00  0.00    +0.000 OA
ATOM      5  N   UNL     1       1.861   6.779  20.485  0.00  0.00    +0.000 N 
ATOM      6  C   UNL     1       2.148   7.546  19.333  0.00  0.00    +0.000 A 
ATOM      7  N   UNL     1       1.569   8.747  19.184  0.00  0.00    +0.000 NA
ATOM      8  C   UNL     1       1.806   9.458  18.074  0.00  0.00    +0.000 A 
ATOM      9  N   UNL     1       1.103  10.639  17.830  0.00  0.00    +0.000 N 
ATOM     10  N   UNL     1       2.675   9.073  17.137  0.00  0.00    +0.000 NA
ATOM     11  C   UNL     1       3.243   7.865  17.308  0.00  0.00    +0.000 A 
ATOM     12  C   UNL     1       2.979   7.030  18.372  0.00  0.00    +0.000 A 
ATOM     13  H   UNL     1       1.432  11.050  16.966  0.00  0.00    +0.000 HD
ENDROOT
BRANCH   9  14
ATOM     14  C   UNL     1      -0.191  11.005  18.239  0.00  0.00    +0.000 A 
ATOM     15  C   UNL     1      -0.450  12.123  19.048  0.00  0.00    +0.000 A 
ATOM     16  C   UNL     1      -1.751  12.492  19.376  0.00  0.00    +0.000 A 
ATOM     17  F   UNL     1      -1.946  13.564  20.157  0.00  0.00    +0.000 F 
ATOM     18  C   UNL     1      -2.827  11.767  18.903  0.00  0.00    +0.000 A 
ATOM     19  F   UNL     1      -4.079  12.127  19.222  0.00  0.00    +0.000 F 
ATOM     20  C   UNL     1      -2.595  10.664  18.095  0.00  0.00    +0.000 A 
ATOM     21  F   UNL     1      -3.625   9.950  17.625  0.00  0.00    +0.000 F 
ATOM     22  C   UNL     1      -1.293  10.286  17.756  0.00  0.00    +0.000 A 
ENDBRANCH   9  14
BRANCH   5  23
ATOM     23  C   UNL     1       1.102   7.408  21.581  0.00  0.00    +0.000 C 
ATOM     24  C   UNL     1       1.675   8.701  22.165  0.00  0.00    +0.000 C 
ATOM     25  C   UNL     1       0.494   9.302  22.925  0.00  0.00    +0.000 C 
ATOM     26  C   UNL     1      -0.767   8.841  22.194  0.00  0.00    +0.000 C 
ATOM     27  C   UNL     1      -0.320   7.811  21.164  0.00  0.00    +0.000 C 
ENDBRANCH   5  23
BRANCH   1  29
ATOM     28  C   UNL     1       3.376   3.132  18.089  0.00  0.00    +0.000 C 
ATOM     29  C   UNL     1       2.946   4.537  17.669  0.00  0.00    +0.000 C 
ATOM     30  C   UNL     1       1.410   4.622  17.740  0.00  0.00    +0.000 C 
ENDBRANCH   1  29
TORSDOF 3
ENDMDL
MODEL 3
REMARK VINA RESULT:      -7.4      3.262      4.552
REMARK  Name = 
REMARK  5 active torsions:
REMARK  status: ('A' for Active; 'I' for Inactive)
REMARK    1  A    between atoms: C_1  and  C_2
REMARK    2  A    between atoms: C_2  and  C_3
REMARK    3  A    between atoms: C_2  and  C_4
REMARK    4  A    between atoms: N_8  and  C_9
REMARK    5  A    between atoms: N_17  and  C_18
REMARK                            x       y       z     vdW  Elec       q    Type
REMARK                         _______ _______ _______ _____ _____    ______ ____
ROOT
ATOM      1  C   UNL     1      -1.909  13.558  22.564  0.00  0.00    +0.000 C 
ATOM      2  O   UNL     1      -1.122  14.662  22.087  0.00  0.00    +0.000 OA
ATOM      3  C   UNL     1      -0.309  14.529  21.003  0.00  0.00    +0.000 C 
ATOM      4  O   UNL     1      -0.110  15.505  20.287  0.00  0.00    +0.000 OA
ATOM      5  N   UNL     1       0.343  13.312  20.868  0.00  0.00    +0.000 N 
ATOM      6  C   UNL     1      -0.061  12.187  21.622  0.00  0.00    +0.000 A 
ATOM      7  N   UNL     1       0.601  11.029  21.477  0.00  0.00    +0.000 NA
ATOM      8  C   UNL     1       0.194   9.950  22.159  0.00  0.00    +0.000 A 
ATOM      9  N   UNL     1       0.773   8.703  21.915  0.00  0.00    +0.000 N 
ATOM     10  N   UNL     1      -0.790   9.988  23.060  0.00  0.00    +0.000 NA
ATOM     11  C   UNL     1      -1.439  11.160  23.187  0.00  0.00    +0.000 A 
ATOM     12  C   UNL     1      -1.146  12.290  22.453  0.00  0.00    +0.000 A 
ATOM     13  H   UNL     1       0.363   8.019  22.537  0.00  0.00    +0.000 HD
ENDROOT
BRANCH   9  14
ATOM     14  C   UNL     1       1.346   8.204  20.732  0.00  0.00    +0.000 A 
ATOM     15  C   UNL     1       1.437   8.957  19.551  0.00  0.00    +0.000 A 
ATOM     16  C   UNL     1       2.073   8.452  18.420  0.00  0.00    +0.000 A 
ATOM     17  F   UNL     1       2.128   9.206  17.314  0.00  0.00    +0.000 F 
ATOM     18  C   UNL     1       2.640   7.192  18.436  0.00  0.00    +0.000 A 
ATOM     19  F   UNL     1       3.252   6.711  17.344  0.00  0.00    +0.000 F 
ATOM     20  C   UNL     1       2.570   6.436  19.596  0.00  0.00    +0.000 A 
ATOM     21  F   UNL     1       3.116   5.214  19.633  0.00  0.00    +0.000 F 
ATOM     22  C   UNL     1       1.937   6.933  20.739  0.00  0.00    +0.000 A 
ENDBRANCH   9  14
BRANCH   5  23
ATOM     23  C   UNL     1       1.602  13.237  20.107  0.00  0.00    +0.000 C 
ATOM     24  C   UNL     1       1.503  13.401  18.588  0.00  0.00    +0.000 C 
ATOM     25  C   UNL     1       2.941  13.705  18.169  0.00  0.00    +0.000 C 
ATOM     26  C   UNL     1       3.593  14.418  19.353  0.00  0.00    +0.000 C 
ATOM     27  C   UNL     1       2.609  14.325  20.512  0.00  0.00    +0.000 C 
ENDBRANCH   5  23
BRANCH   1  29
ATOM     28  C   UNL     1      -3.372  12.743  20.592  0.00  0.00    +0.000 C 
ATOM     29  C   UNL     1      -3.277  13.628  21.835  0.00  0.00    +0.000 C 
ATOM     30  C   UNL     1      -4.401  13.230  22.808  0.00  0.00    +0.000 C 
ENDBRANCH   1  29
TORSDOF 3
ENDMDL
MODEL 4
REMARK VINA RESULT:      -7.3      0.519      1.611
REMARK  Name = 
REMARK  5 active torsions:
REMARK  status: ('A' for Active; 'I' for Inactive)
REMARK    1  A    between atoms: C_1  and  C_2
REMARK    2  A    between atoms: C_2  and  C_3
REMARK    3  A    between atoms: C_2  and  C_4
REMARK    4  A    between atoms: N_8  and  C_9
REMARK    5  A    between atoms: N_17  and  C_18
REMARK                            x       y       z     vdW  Elec       q    Type
REMARK                         _______ _______ _______ _____ _____    ______ ____
ROOT
ATOM      1  C   UNL     1      -5.092  13.586  21.093  0.00  0.00    +0.000 C 
ATOM      2  O   UNL     1      -5.718  13.449  19.806  0.00  0.00    +0.000 OA
ATOM      3  C   UNL     1      -5.376  12.439  18.962  0.00  0.00    +0.000 C 
ATOM      4  O   UNL     1      -6.225  11.990  18.198  0.00  0.00    +0.000 OA
ATOM      5  N   UNL     1      -4.036  12.080  18.941  0.00  0.00    +0.000 N 
ATOM      6  C   UNL     1      -3.155  12.513  19.959  0.00  0.00    +0.000 A 
ATOM      7  N   UNL     1      -1.862  12.161  19.901  0.00  0.00    +0.000 NA
ATOM      8  C   UNL     1      -1.035  12.534  20.885  0.00  0.00    +0.000 A 
ATOM      9  N   UNL     1       0.277  12.057  20.922  0.00  0.00    +0.000 N 
ATOM     10  N   UNL     1      -1.411  13.331  21.888  0.00  0.00    +0.000 NA
ATOM     11  C   UNL     1      -2.712  13.671  21.925  0.00  0.00    +0.000 A 
ATOM     12  C   UNL     1      -3.649  13.249  21.005  0.00  0.00    +0.000 A 
ATOM     13  H   UNL     1       0.757  12.464  21.713  0.00  0.00    +0.000 HD
ENDROOT
BRANCH   9  14
ATOM     14  C   UNL     1       0.797  10.845  20.436  0.00  0.00    +0.000 A 
ATOM     15  C   UNL     1       0.850   9.673  21.207  0.00  0.00    +0.000 A 
ATOM     16  C   UNL     1       1.310   8.474  20.668  0.00  0.00    +0.000 A 
ATOM     17  F   UNL     1       1.347   7.384  21.446  0.00  0.00    +0.000 F 
ATOM     18  C   UNL     1       1.720   8.407  19.351  0.00  0.00    +0.000 A 
ATOM     19  F   UNL     1       2.161   7.250  18.837  0.00  0.00    +0.000 F 
ATOM     20  C   UNL     1       1.667   9.551  18.569  0.00  0.00    +0.000 A 
ATOM     21  F   UNL     1       2.057   9.507  17.289  0.00  0.00    +0.000 F 
ATOM     22  C   UNL     1       1.204  10.760  19.097  0.00  0.00    +0.000 A 
ENDBRANCH   9  14
BRANCH   5  23
ATOM     23  C   UNL     1      -3.469  11.434  17.745  0.00  0.00    +0.000 C 
ATOM     24  C   UNL     1      -3.331   9.910  17.782  0.00  0.00    +0.000 C 
ATOM     25  C   UNL     1      -3.145   9.534  16.313  0.00  0.00    +0.000 C 
ATOM     26  C   UNL     1      -3.890  10.592  15.500  0.00  0.00    +0.000 C 
ATOM     27  C   UNL     1      -4.308  11.679  16.482  0.00  0.00    +0.000 C 
ENDBRANCH   5  23
BRANCH   1  29
ATOM     28  C   UNL     1      -5.885  13.300  23.538  0.00  0.00    +0.000 C 
ATOM     29  C   UNL     1      -5.947  12.778  22.103  0.00  0.00    +0.000 C 
ATOM     30  C   UNL     1      -7.418  12.774  21.646  0.00  0.00    +0.000 C 
ENDBRANCH   1  29
TORSDOF 3
ENDMDL
MODEL 5
REMARK VINA RESULT:      -7.2      3.287      4.810
REMARK  Name = 
REMARK  5 active torsions:
REMARK  status: ('A' for Active; 'I' for Inactive)
REMARK    1  A    between atoms: C_1  and  C_2
REMARK    2  A    between atoms: C_2  and  C_3
REMARK    3  A    between atoms: C_2  and  C_4
REMARK    4  A    between atoms: N_8  and  C_9
REMARK    5  A    between atoms: N_17  and  C_18
REMARK                            x       y       z     vdW  Elec       q    Type
REMARK                         _______ _______ _______ _____ _____    ______ ____
ROOT
ATOM      1  C   UNL     1      -1.905  13.447  22.666  0.00  0.00    +0.000 C 
ATOM      2  O   UNL     1      -1.105  14.570  22.261  0.00  0.00    +0.000 OA
ATOM      3  C   UNL     1      -0.253  14.481  21.204  0.00  0.00    +0.000 C 
ATOM      4  O   UNL     1      -0.031  15.485  20.534  0.00  0.00    +0.000 OA
ATOM      5  N   UNL     1       0.409  13.273  21.046  0.00  0.00    +0.000 N 
ATOM      6  C   UNL     1      -0.018  12.118  21.740  0.00  0.00    +0.000 A 
ATOM      7  N   UNL     1       0.654  10.968  21.576  0.00  0.00    +0.000 NA
ATOM      8  C   UNL     1       0.226   9.863  22.199  0.00  0.00    +0.000 A 
ATOM      9  N   UNL     1       0.819   8.628  21.929  0.00  0.00    +0.000 N 
ATOM     10  N   UNL     1      -0.790   9.863  23.064  0.00  0.00    +0.000 NA
ATOM     11  C   UNL     1      -1.449  11.028  23.213  0.00  0.00    +0.000 A 
ATOM     12  C   UNL     1      -1.134  12.186  22.534  0.00  0.00    +0.000 A 
ATOM     13  H   UNL     1       0.389   7.919  22.508  0.00  0.00    +0.000 HD
ENDROOT
BRANCH   9  14
ATOM     14  C   UNL     1       1.437   8.177  20.750  0.00  0.00    +0.000 A 
ATOM     15  C   UNL     1       1.998   6.896  20.624  0.00  0.00    +0.000 A 
ATOM     16  C   UNL     1       2.542   6.461  19.418  0.00  0.00    +0.000 A 
ATOM     17  F   UNL     1       3.071   5.232  19.350  0.00  0.00    +0.000 F 
ATOM     18  C   UNL     1       2.535   7.283  18.308  0.00  0.00    +0.000 A 
ATOM     19  F   UNL     1       3.059   6.858  17.149  0.00  0.00    +0.000 F 
ATOM     20  C   UNL     1       1.978   8.548  18.408  0.00  0.00    +0.000 A 
ATOM     21  F   UNL     1       1.959   9.358  17.343  0.00  0.00    +0.000 F 
ATOM     22  C   UNL     1       1.425   8.995  19.612  0.00  0.00    +0.000 A 
ENDBRANCH   9  14
BRANCH   5  23
ATOM     23  C   UNL     1       1.696  13.230  20.330  0.00  0.00    +0.000 C 
ATOM     24  C   UNL     1       1.637  13.255  18.800  0.00  0.00    +0.000 C 
ATOM     25  C   UNL     1       3.061  13.633  18.395  0.00  0.00    +0.000 C 
ATOM     26  C   UNL     1       3.617  14.494  19.530  0.00  0.00    +0.000 C 
ATOM     27  C   UNL     1       2.603  14.424  20.665  0.00  0.00    +0.000 C 
ENDBRANCH   5  23
BRANCH   1  29
ATOM     28  C   UNL     1      -3.286  12.717  20.604  0.00  0.00    +0.000 C 
ATOM     29  C   UNL     1      -3.245  13.541  21.890  0.00  0.00    +0.000 C 
ATOM     30  C   UNL     1      -4.401  13.089  22.800  0.00  0.00    +0.000 C 
ENDBRANCH   1  29
TORSDOF 3
ENDMDL
MODEL 6
REMARK VINA RESULT:      -7.2      4.677      8.286
REMARK  Name = 
REMARK  5 active torsions:
REMARK  status: ('A' for Active; 'I' for Inactive)
REMARK    1  A    between atoms: C_1  and  C_2
REMARK    2  A    between atoms: C_2  and  C_3
REMARK    3  A    between atoms: C_2  and  C_4
REMARK    4  A    between atoms: N_8  and  C_9
REMARK    5  A    between atoms: N_17  and  C_18
REMARK                            x       y       z     vdW  Elec       q    Type
REMARK                         _______ _______ _______ _____ _____    ______ ____
ROOT
ATOM      1  C   UNL     1       3.583   5.641  18.527  0.00  0.00    +0.000 C 
ATOM      2  O   UNL     1       3.515   5.220  19.899  0.00  0.00    +0.000 OA
ATOM      3  C   UNL     1       2.442   5.527  20.676  0.00  0.00    +0.000 C 
ATOM      4  O   UNL     1       2.115   4.753  21.570  0.00  0.00    +0.000 OA
ATOM      5  N   UNL     1       1.873   6.776  20.475  0.00  0.00    +0.000 N 
ATOM      6  C   UNL     1       2.186   7.537  19.325  0.00  0.00    +0.000 A 
ATOM      7  N   UNL     1       1.629   8.748  19.169  0.00  0.00    +0.000 NA
ATOM      8  C   UNL     1       1.890   9.453  18.061  0.00  0.00    +0.000 A 
ATOM      9  N   UNL     1       1.211  10.646  17.809  0.00  0.00    +0.000 N 
ATOM     10  N   UNL     1       2.763   9.052  17.134  0.00  0.00    +0.000 NA
ATOM     11  C   UNL     1       3.308   7.835  17.312  0.00  0.00    +0.000 A 
ATOM     12  C   UNL     1       3.017   7.005  18.374  0.00  0.00    +0.000 A 
ATOM     13  H   UNL     1       1.556  11.050  16.948  0.00  0.00    +0.000 HD
ENDROOT
BRANCH   9  14
ATOM     14  C   UNL     1      -0.081  11.035  18.203  0.00  0.00    +0.000 A 
ATOM     15  C   UNL     1      -1.244  10.395  17.747  0.00  0.00    +0.000 A 
ATOM     16  C   UNL     1      -2.503  10.765  18.213  0.00  0.00    +0.000 A 
ATOM     17  F   UNL     1      -3.584  10.129  17.742  0.00  0.00    +0.000 F 
ATOM     18  C   UNL     1      -2.637  11.773  19.148  0.00  0.00    +0.000 A 
ATOM     19  F   UNL     1      -3.851  12.126  19.594  0.00  0.00    +0.000 F 
ATOM     20  C   UNL     1      -1.500  12.412  19.619  0.00  0.00    +0.000 A 
ATOM     21  F   UNL     1      -1.609  13.390  20.528  0.00  0.00    +0.000 F 
ATOM     22  C   UNL     1      -0.231  12.047  19.161  0.00  0.00    +0.000 A 
ENDBRANCH   9  14
BRANCH   5  23
ATOM     23  C   UNL     1       1.114   7.419  21.562  0.00  0.00    +0.000 C 
ATOM     24  C   UNL     1       1.706   8.700  22.156  0.00  0.00    +0.000 C 
ATOM     25  C   UNL     1       0.528   9.325  22.901  0.00  0.00    +0.000 C 
ATOM     26  C   UNL     1      -0.733   8.891  22.154  0.00  0.00    +0.000 C 
ATOM     27  C   UNL     1      -0.295   7.853  21.128  0.00  0.00    +0.000 C 
ENDBRANCH   5  23
BRANCH   1  29
ATOM     28  C   UNL     1       3.406   3.105  18.053  0.00  0.00    +0.000 C 
ATOM     29  C   UNL     1       2.949   4.513  17.673  0.00  0.00    +0.000 C 
ATOM     30  C   UNL     1       1.415   4.578  17.787  0.00  0.00    +0.000 C 
ENDBRANCH   1  29
TORSDOF 3
ENDMDL
MODEL 7
REMARK VINA RESULT:      -7.1      0.949      1.282
REMARK  Name = 
REMARK  5 active torsions:
REMARK  status: ('A' for Active; 'I' for Inactive)
REMARK    1  A    between atoms: C_1  and  C_2
REMARK    2  A    between atoms: C_2  and  C_3
REMARK    3  A    between atoms: C_2  and  C_4
REMARK    4  A    between atoms: N_8  and  C_9
REMARK    5  A    between atoms: N_17  and  C_18
REMARK                            x       y       z     vdW  Elec       q    Type
REMARK                         _______ _______ _______ _____ _____    ______ ____
ROOT
ATOM      1  C   UNL     1      -4.766  13.933  20.914  0.00  0.00    +0.000 C 
ATOM      2  O   UNL     1      -5.658  13.509  19.870  0.00  0.00    +0.000 OA
ATOM      3  C   UNL     1      -5.503  12.302  19.261  0.00  0.00    +0.000 C 
ATOM      4  O   UNL     1      -6.497  11.720  18.837  0.00  0.00    +0.000 OA
ATOM      5  N   UNL     1      -4.199  11.882  19.048  0.00  0.00    +0.000 N 
ATOM      6  C   UNL     1      -3.119  12.512  19.709  0.00  0.00    +0.000 A 
ATOM      7  N   UNL     1      -1.868  12.090  19.469  0.00  0.00    +0.000 NA
ATOM      8  C   UNL     1      -0.847  12.656  20.125  0.00  0.00    +0.000 A 
ATOM      9  N   UNL     1       0.443  12.137  20.002  0.00  0.00    +0.000 N 
ATOM     10  N   UNL     1      -0.999  13.698  20.945  0.00  0.00    +0.000 NA
ATOM     11  C   UNL     1      -2.262  14.103  21.170  0.00  0.00    +0.000 A 
ATOM     12  C   UNL     1      -3.375  13.511  20.611  0.00  0.00    +0.000 A 
ATOM     13  H   UNL     1       1.083  12.706  20.541  0.00  0.00    +0.000 HD
ENDROOT
BRANCH   9  14
ATOM     14  C   UNL     1       0.850  10.817  19.744  0.00  0.00    +0.000 A 
ATOM     15  C   UNL     1       1.377  10.407  18.509  0.00  0.00    +0.000 A 
ATOM     16  C   UNL     1       1.832   9.106  18.314  0.00  0.00    +0.000 A 
ATOM     17  F   UNL     1       2.320   8.761  17.115  0.00  0.00    +0.000 F 
ATOM     18  C   UNL     1       1.784   8.183  19.341  0.00  0.00    +0.000 A 
ATOM     19  F   UNL     1       2.224   6.932  19.148  0.00  0.00    +0.000 F 
ATOM     20  C   UNL     1       1.276   8.570  20.572  0.00  0.00    +0.000 A 
ATOM     21  F   UNL     1       1.224   7.691  21.581  0.00  0.00    +0.000 F 
ATOM     22  C   UNL     1       0.819   9.874  20.781  0.00  0.00    +0.000 A 
ENDBRANCH   9  14
BRANCH   5  23
ATOM     23  C   UNL     1      -3.904  10.927  17.965  0.00  0.00    +0.000 C 
ATOM     24  C   UNL     1      -3.837  11.493  16.544  0.00  0.00    +0.000 C 
ATOM     25  C   UNL     1      -3.113  10.399  15.760  0.00  0.00    +0.000 C 
ATOM     26  C   UNL     1      -2.187   9.698  16.753  0.00  0.00    +0.000 C 
ATOM     27  C   UNL     1      -2.541  10.239  18.133  0.00  0.00    +0.000 C 
ENDBRANCH   5  23
BRANCH   1  29
ATOM     28  C   UNL     1      -4.367  12.812  23.211  0.00  0.00    +0.000 C 
ATOM     29  C   UNL     1      -5.375  13.450  22.256  0.00  0.00    +0.000 C 
ATOM     30  C   UNL     1      -6.048  14.635  22.974  0.00  0.00    +0.000 C 
ENDBRANCH   1  29
TORSDOF 3
ENDMDL
MODEL 8
REMARK VINA RESULT:      -7.1      0.846      1.915
REMARK  Name = 
REMARK  5 active torsions:
REMARK  status: ('A' for Active; 'I' for Inactive)
REMARK    1  A    between atoms: C_1  and  C_2
REMARK    2  A    between atoms: C_2  and  C_3
REMARK    3  A    between atoms: C_2  and  C_4
REMARK    4  A    between atoms: N_8  and  C_9
REMARK    5  A    between atoms: N_17  and  C_18
REMARK                            x       y       z     vdW  Elec       q    Type
REMARK                         _______ _______ _______ _____ _____    ______ ____
ROOT
ATOM      1  C   UNL     1      -5.031  13.792  20.620  0.00  0.00    +0.000 C 
ATOM      2  O   UNL     1      -5.820  13.312  19.519  0.00  0.00    +0.000 OA
ATOM      3  C   UNL     1      -5.559  12.109  18.939  0.00  0.00    +0.000 C 
ATOM      4  O   UNL     1      -6.487  11.472  18.451  0.00  0.00    +0.000 OA
ATOM      5  N   UNL     1      -4.222  11.756  18.829  0.00  0.00    +0.000 N 
ATOM      6  C   UNL     1      -3.229  12.448  19.559  0.00  0.00    +0.000 A 
ATOM      7  N   UNL     1      -1.943  12.090  19.418  0.00  0.00    +0.000 NA
ATOM      8  C   UNL     1      -1.005  12.715  20.140  0.00  0.00    +0.000 A 
ATOM      9  N   UNL     1       0.316  12.263  20.120  0.00  0.00    +0.000 N 
ATOM     10  N   UNL     1      -1.270  13.755  20.932  0.00  0.00    +0.000 NA
ATOM     11  C   UNL     1      -2.566  14.096  21.058  0.00  0.00    +0.000 A 
ATOM     12  C   UNL     1      -3.603  13.441  20.426  0.00  0.00    +0.000 A 
ATOM     13  H   UNL     1       0.884  12.869  20.697  0.00  0.00    +0.000 HD
ENDROOT
BRANCH   9  14
ATOM     14  C   UNL     1       0.809  10.963  19.911  0.00  0.00    +0.000 A 
ATOM     15  C   UNL     1       0.760   9.961  20.893  0.00  0.00    +0.000 A 
ATOM     16  C   UNL     1       1.197   8.666  20.626  0.00  0.00    +0.000 A 
ATOM     17  F   UNL     1       1.135   7.746  21.598  0.00  0.00    +0.000 F 
ATOM     18  C   UNL     1       1.685   8.333  19.377  0.00  0.00    +0.000 A 
ATOM     19  F   UNL     1       2.104   7.085  19.125  0.00  0.00    +0.000 F 
ATOM     20  C   UNL     1       1.734   9.306  18.390  0.00  0.00    +0.000 A 
ATOM     21  F   UNL     1       2.201   9.002  17.173  0.00  0.00    +0.000 F 
ATOM     22  C   UNL     1       1.295  10.608  18.645  0.00  0.00    +0.000 A 
ENDBRANCH   9  14
BRANCH   5  23
ATOM     23  C   UNL     1      -3.799  10.808  17.784  0.00  0.00    +0.000 C 
ATOM     24  C   UNL     1      -3.619  11.370  16.372  0.00  0.00    +0.000 C 
ATOM     25  C   UNL     1      -2.792  10.297  15.665  0.00  0.00    +0.000 C 
ATOM     26  C   UNL     1      -1.939   9.630  16.744  0.00  0.00    +0.000 C 
ATOM     27  C   UNL     1      -2.436  10.164  18.081  0.00  0.00    +0.000 C 
ENDBRANCH   5  23
BRANCH   1  29
ATOM     28  C   UNL     1      -4.741  12.795  22.989  0.00  0.00    +0.000 C 
ATOM     29  C   UNL     1      -5.713  13.292  21.920  0.00  0.00    +0.000 C 
ATOM     30  C   UNL     1      -6.569  14.421  22.522  0.00  0.00    +0.000 C 
ENDBRANCH   1  29
TORSDOF 3
ENDMDL
MODEL 9
REMARK VINA RESULT:      -6.8      1.099      1.330
REMARK  Name = 
REMARK  5 active torsions:
REMARK  status: ('A' for Active; 'I' for Inactive)
REMARK    1  A    between atoms: C_1  and  C_2
REMARK    2  A    between atoms: C_2  and  C_3
REMARK    3  A    between atoms: C_2  and  C_4
REMARK    4  A    between atoms: N_8  and  C_9
REMARK    5  A    between atoms: N_17  and  C_18
REMARK                            x       y       z     vdW  Elec       q    Type
REMARK                         _______ _______ _______ _____ _____    ______ ____
ROOT
ATOM      1  C   UNL     1      -4.466  13.605  21.931  0.00  0.00    +0.000 C 
ATOM      2  O   UNL     1      -5.238  13.650  20.719  0.00  0.00    +0.000 OA
ATOM      3  C   UNL     1      -5.099  12.694  19.761  0.00  0.00    +0.000 C 
ATOM      4  O   UNL     1      -6.068  12.405  19.067  0.00  0.00    +0.000 OA
ATOM      5  N   UNL     1      -3.816  12.210  19.556  0.00  0.00    +0.000 N 
ATOM      6  C   UNL     1      -2.790  12.457  20.497  0.00  0.00    +0.000 A 
ATOM      7  N   UNL     1      -1.556  11.986  20.260  0.00  0.00    +0.000 NA
ATOM      8  C   UNL     1      -0.592  12.183  21.169  0.00  0.00    +0.000 A 
ATOM      9  N   UNL     1       0.656  11.578  21.014  0.00  0.00    +0.000 N 
ATOM     10  N   UNL     1      -0.771  12.916  22.270  0.00  0.00    +0.000 NA
ATOM     11  C   UNL     1      -2.016  13.377  22.486  0.00  0.00    +0.000 A 
ATOM     12  C   UNL     1      -3.086  13.137  21.650  0.00  0.00    +0.000 A 
ATOM     13  H   UNL     1       1.260  11.860  21.775  0.00  0.00    +0.000 HD
ENDROOT
BRANCH   9  14
ATOM     14  C   UNL     1       0.987  10.371  20.374  0.00  0.00    +0.000 A 
ATOM     15  C   UNL     1       1.324  10.295  19.013  0.00  0.00    +0.000 A 
ATOM     16  C   UNL     1       1.712   9.092  18.430  0.00  0.00    +0.000 A 
ATOM     17  F   UNL     1       2.018   9.070  17.126  0.00  0.00    +0.000 F 
ATOM     18  C   UNL     1       1.782   7.937  19.185  0.00  0.00    +0.000 A 
ATOM     19  F   UNL     1       2.157   6.780  18.619  0.00  0.00    +0.000 F 
ATOM     20  C   UNL     1       1.462   7.991  20.533  0.00  0.00    +0.000 A 
ATOM     21  F   UNL     1       1.527   6.883  21.282  0.00  0.00    +0.000 F 
ATOM     22  C   UNL     1       1.075   9.194  21.130  0.00  0.00    +0.000 A 
ENDBRANCH   9  14
BRANCH   5  23
ATOM     23  C   UNL     1      -3.453  11.625  18.253  0.00  0.00    +0.000 C 
ATOM     24  C   UNL     1      -1.969  11.641  17.877  0.00  0.00    +0.000 C 
ATOM     25  C   UNL     1      -1.878  10.620  16.743  0.00  0.00    +0.000 C 
ATOM     26  C   UNL     1      -2.978   9.591  17.001  0.00  0.00    +0.000 C 
ATOM     27  C   UNL     1      -3.826  10.139  18.143  0.00  0.00    +0.000 C 
ENDBRANCH   5  23
BRANCH   1  29
ATOM     28  C   UNL     1      -4.709  12.800  24.377  0.00  0.00    +0.000 C 
ATOM     29  C   UNL     1      -5.291  12.794  22.964  0.00  0.00    +0.000 C 
ATOM     30  C   UNL     1      -6.728  13.344  23.024  0.00  0.00    +0.000 C 
ENDBRANCH   1  29
TORSDOF 3
ENDMDL
