MODEL 1
REMARK VINA RESULT:      -8.2      0.000      0.000
REMARK  Name = 
REMARK  4 active torsions:
REMARK  status: ('A' for Active; 'I' for Inactive)
REMARK    1  A    between atoms: N_3  and  C_4
REMARK    2  A    between atoms: C_4  and  C_5
REMARK    3  A    between atoms: N_11  and  C_12
REMARK    4  A    between atoms: C_14  and  C_15
REMARK                            x       y       z     vdW  Elec       q    Type
REMARK                         _______ _______ _______ _____ _____    ______ ____
ROOT
ATOM      1  O   UNL     1       8.077   7.050  18.623  0.00  0.00    +0.000 OA
ATOM      2  C   UNL     1       7.591   7.826  17.812  0.00  0.00    +0.000 C 
ATOM      3  N   UNL     1       7.996   9.136  17.721  0.00  0.00    +0.000 N 
ATOM      4  N   UNL     1       6.626   7.518  16.885  0.00  0.00    +0.000 N 
ATOM      5  H   UNL     1       7.327   9.798  17.356  0.00  0.00    +0.000 HD
ATOM      6  H   UNL     1       6.400   8.222  16.189  0.00  0.00    +0.000 HD
ENDROOT
BRANCH   4   7
ATOM      7  C   UNL     1       5.993   6.305  16.696  0.00  0.00    +0.000 A 
ATOM      8  C   UNL     1       4.836   5.923  17.258  0.00  0.00    +0.000 A 
ATOM      9  C   UNL     1       4.265   4.601  17.044  0.00  0.00    +0.000 A 
ATOM     10  C   UNL     1       4.907   3.748  16.229  0.00  0.00    +0.000 A 
ATOM     11  N   UNL     1       6.075   4.112  15.606  0.00  0.00    +0.000 N 
ATOM     12  C   UNL     1       6.682   5.336  15.766  0.00  0.00    +0.000 A 
ATOM     13  O   UNL     1       7.726   5.639  15.196  0.00  0.00    +0.000 OA
ATOM     14  H   UNL     1       6.548   3.463  14.987  0.00  0.00    +0.000 HD
BRANCH   9  15
ATOM     15  C   UNL     1       2.996   4.232  17.760  0.00  0.00    +0.000 C 
ATOM     16  F   UNL     1       3.168   4.007  19.087  0.00  0.00    +0.000 F 
ATOM     17  F   UNL     1       2.059   5.209  17.647  0.00  0.00    +0.000 F 
ATOM     18  F   UNL     1       2.446   3.104  17.241  0.00  0.00    +0.000 F 
ENDBRANCH   9  15
ENDBRANCH   4   7
BRANCH   3  19
ATOM     19  C   UNL     1       8.974   9.647  18.658  0.00  0.00    +0.000 C 
BRANCH  19  20
ATOM     20  C   UNL     1       9.508  10.973  18.210  0.00  0.00    +0.000 A 
ATOM     21  C   UNL     1      10.881  11.176  18.030  0.00  0.00    +0.000 A 
ATOM     22  C   UNL     1      11.347  12.422  17.627  0.00  0.00    +0.000 A 
ATOM     23  C   UNL     1      10.422  13.431  17.423  0.00  0.00    +0.000 A 
ATOM     24  N   UNL     1       9.091  13.277  17.594  0.00  0.00    +0.000 NA
ATOM     25  C   UNL     1       8.666  12.056  17.988  0.00  0.00    +0.000 A 
ENDBRANCH  19  20
ENDBRANCH   3  19
TORSDOF 4
ENDMDL
MODEL 2
REMARK VINA RESULT:      -8.1      0.692      1.034
REMARK  Name = 
REMARK  4 active torsions:
REMARK  status: ('A' for Active; 'I' for Inactive)
REMARK    1  A    between atoms: N_3  and  C_4
REMARK    2  A    between atoms: C_4  and  C_5
REMARK    3  A    between atoms: N_11  and  C_12
REMARK    4  A    between atoms: C_14  and  C_15
REMARK                            x       y       z     vdW  Elec       q    Type
REMARK                         _______ _______ _______ _____ _____    ______ ____
ROOT
ATOM      1  O   UNL     1       8.104   6.937  18.711  0.00  0.00    +0.000 OA
ATOM      2  C   UNL     1       7.652   7.758  17.925  0.00  0.00    +0.000 C 
ATOM      3  N   UNL     1       8.109   9.053  17.878  0.00  0.00    +0.000 N 
ATOM      4  N   UNL     1       6.679   7.520  16.986  0.00  0.00    +0.000 N 
ATOM      5  H   UNL     1       7.468   9.753  17.534  0.00  0.00    +0.000 HD
ATOM      6  H   UNL     1       6.484   8.255  16.312  0.00  0.00    +0.000 HD
ENDROOT
BRANCH   4   7
ATOM      7  C   UNL     1       6.000   6.340  16.754  0.00  0.00    +0.000 A 
ATOM      8  C   UNL     1       4.823   5.988  17.296  0.00  0.00    +0.000 A 
ATOM      9  C   UNL     1       4.202   4.697  17.037  0.00  0.00    +0.000 A 
ATOM     10  C   UNL     1       4.816   3.844  16.201  0.00  0.00    +0.000 A 
ATOM     11  N   UNL     1       6.003   4.180  15.598  0.00  0.00    +0.000 N 
ATOM     12  C   UNL     1       6.658   5.372  15.801  0.00  0.00    +0.000 A 
ATOM     13  O   UNL     1       7.717   5.650  15.247  0.00  0.00    +0.000 OA
ATOM     14  H   UNL     1       6.455   3.531  14.963  0.00  0.00    +0.000 HD
BRANCH   9  15
ATOM     15  C   UNL     1       2.912   4.358  17.732  0.00  0.00    +0.000 C 
ATOM     16  F   UNL     1       3.077   3.966  19.020  0.00  0.00    +0.000 F 
ATOM     17  F   UNL     1       2.064   5.419  17.752  0.00  0.00    +0.000 F 
ATOM     18  F   UNL     1       2.260   3.350  17.098  0.00  0.00    +0.000 F 
ENDBRANCH   9  15
ENDBRANCH   4   7
BRANCH   3  19
ATOM     19  C   UNL     1       9.103   9.494  18.834  0.00  0.00    +0.000 C 
BRANCH  19  20
ATOM     20  C   UNL     1       9.520  10.908  18.565  0.00  0.00    +0.000 A 
ATOM     21  C   UNL     1       8.696  11.781  17.847  0.00  0.00    +0.000 A 
ATOM     22  C   UNL     1       9.118  13.082  17.601  0.00  0.00    +0.000 A 
ATOM     23  C   UNL     1      10.357  13.468  18.079  0.00  0.00    +0.000 A 
ATOM     24  N   UNL     1      11.185  12.653  18.769  0.00  0.00    +0.000 NA
ATOM     25  C   UNL     1      10.750  11.392  18.992  0.00  0.00    +0.000 A 
ENDBRANCH  19  20
ENDBRANCH   3  19
TORSDOF 4
ENDMDL
MODEL 3
REMARK VINA RESULT:      -7.8      0.915      1.309
REMARK  Name = 
REMARK  4 active torsions:
REMARK  status: ('A' for Active; 'I' for Inactive)
REMARK    1  A    between atoms: N_3  and  C_4
REMARK    2  A    between atoms: C_4  and  C_5
REMARK    3  A    between atoms: N_11  and  C_12
REMARK    4  A    between atoms: C_14  and  C_15
REMARK                            x       y       z     vdW  Elec       q    Type
REMARK                         _______ _______ _______ _____ _____    ______ ____
ROOT
ATOM      1  O   UNL     1       8.151   6.952  18.706  0.00  0.00    +0.000 OA
ATOM      2  C   UNL     1       7.687   7.788  17.944  0.00  0.00    +0.000 C 
ATOM      3  N   UNL     1       8.164   9.075  17.892  0.00  0.00    +0.000 N 
ATOM      4  N   UNL     1       6.677   7.575  17.038  0.00  0.00    +0.000 N 
ATOM      5  H   UNL     1       7.524   9.789  17.577  0.00  0.00    +0.000 HD
ATOM      6  H   UNL     1       6.471   8.320  16.378  0.00  0.00    +0.000 HD
ENDROOT
BRANCH   4   7
ATOM      7  C   UNL     1       5.969   6.410  16.820  0.00  0.00    +0.000 A 
ATOM      8  C   UNL     1       4.773   6.104  17.346  0.00  0.00    +0.000 A 
ATOM      9  C   UNL     1       4.119   4.825  17.105  0.00  0.00    +0.000 A 
ATOM     10  C   UNL     1       4.725   3.936  16.301  0.00  0.00    +0.000 A 
ATOM     11  N   UNL     1       5.932   4.223  15.714  0.00  0.00    +0.000 N 
ATOM     12  C   UNL     1       6.617   5.401  15.902  0.00  0.00    +0.000 A 
ATOM     13  O   UNL     1       7.694   5.636  15.364  0.00  0.00    +0.000 OA
ATOM     14  H   UNL     1       6.377   3.547  15.104  0.00  0.00    +0.000 HD
BRANCH   9  15
ATOM     15  C   UNL     1       2.807   4.540  17.782  0.00  0.00    +0.000 C 
ATOM     16  F   UNL     1       2.018   5.635  17.919  0.00  0.00    +0.000 F 
ATOM     17  F   UNL     1       2.083   3.619  17.095  0.00  0.00    +0.000 F 
ATOM     18  F   UNL     1       2.995   4.035  19.029  0.00  0.00    +0.000 F 
ENDBRANCH   9  15
ENDBRANCH   4   7
BRANCH   3  19
ATOM     19  C   UNL     1       9.199   9.489  18.816  0.00  0.00    +0.000 C 
BRANCH  19  20
ATOM     20  C   UNL     1       9.207  10.978  18.984  0.00  0.00    +0.000 A 
ATOM     21  C   UNL     1       9.441  11.563  20.234  0.00  0.00    +0.000 A 
ATOM     22  C   UNL     1       9.428  12.947  20.361  0.00  0.00    +0.000 A 
ATOM     23  C   UNL     1       9.175  13.704  19.231  0.00  0.00    +0.000 A 
ATOM     24  N   UNL     1       8.937  13.177  18.011  0.00  0.00    +0.000 NA
ATOM     25  C   UNL     1       8.953  11.829  17.916  0.00  0.00    +0.000 A 
ENDBRANCH  19  20
ENDBRANCH   3  19
TORSDOF 4
ENDMDL
MODEL 4
REMARK VINA RESULT:      -7.5      1.636      1.937
REMARK  Name = 
REMARK  4 active torsions:
REMARK  status: ('A' for Active; 'I' for Inactive)
REMARK    1  A    between atoms: N_3  and  C_4
REMARK    2  A    between atoms: C_4  and  C_5
REMARK    3  A    between atoms: N_11  and  C_12
REMARK    4  A    between atoms: C_14  and  C_15
REMARK                            x       y       z     vdW  Elec       q    Type
REMARK                         _______ _______ _______ _____ _____    ______ ____
ROOT
ATOM      1  O   UNL     1       6.713   8.429  16.744  0.00  0.00    +0.000 OA
ATOM      2  C   UNL     1       7.364   7.949  17.662  0.00  0.00    +0.000 C 
ATOM      3  N   UNL     1       8.378   8.641  18.279  0.00  0.00    +0.000 N 
ATOM      4  N   UNL     1       7.174   6.708  18.217  0.00  0.00    +0.000 N 
ATOM      5  H   UNL     1       9.107   8.095  18.712  0.00  0.00    +0.000 HD
ATOM      6  H   UNL     1       7.699   6.481  19.056  0.00  0.00    +0.000 HD
ENDROOT
BRANCH   4   7
ATOM      7  C   UNL     1       6.250   5.749  17.847  0.00  0.00    +0.000 A 
ATOM      8  C   UNL     1       4.929   5.797  18.077  0.00  0.00    +0.000 A 
ATOM      9  C   UNL     1       4.032   4.715  17.699  0.00  0.00    +0.000 A 
ATOM     10  C   UNL     1       4.546   3.645  17.069  0.00  0.00    +0.000 A 
ATOM     11  N   UNL     1       5.887   3.572  16.783  0.00  0.00    +0.000 N 
ATOM     12  C   UNL     1       6.798   4.546  17.118  0.00  0.00    +0.000 A 
ATOM     13  O   UNL     1       7.992   4.459  16.849  0.00  0.00    +0.000 OA
ATOM     14  H   UNL     1       6.263   2.763  16.302  0.00  0.00    +0.000 HD
BRANCH   9  15
ATOM     15  C   UNL     1       2.574   4.822  18.048  0.00  0.00    +0.000 C 
ATOM     16  F   UNL     1       1.774   4.034  17.286  0.00  0.00    +0.000 F 
ATOM     17  F   UNL     1       2.345   4.477  19.342  0.00  0.00    +0.000 F 
ATOM     18  F   UNL     1       2.123   6.095  17.899  0.00  0.00    +0.000 F 
ENDBRANCH   9  15
ENDBRANCH   4   7
BRANCH   3  19
ATOM     19  C   UNL     1       8.749   9.951  17.788  0.00  0.00    +0.000 C 
BRANCH  19  20
ATOM     20  C   UNL     1       9.555  10.700  18.805  0.00  0.00    +0.000 A 
ATOM     21  C   UNL     1      10.761  11.319  18.458  0.00  0.00    +0.000 A 
ATOM     22  C   UNL     1      11.493  11.994  19.427  0.00  0.00    +0.000 A 
ATOM     23  C   UNL     1      10.997  12.025  20.718  0.00  0.00    +0.000 A 
ATOM     24  N   UNL     1       9.842  11.433  21.094  0.00  0.00    +0.000 NA
ATOM     25  C   UNL     1       9.151  10.781  20.131  0.00  0.00    +0.000 A 
ENDBRANCH  19  20
ENDBRANCH   3  19
TORSDOF 4
ENDMDL
MODEL 5
REMARK VINA RESULT:      -7.5      2.604      3.215
REMARK  Name = 
REMARK  4 active torsions:
REMARK  status: ('A' for Active; 'I' for Inactive)
REMARK    1  A    between atoms: N_3  and  C_4
REMARK    2  A    between atoms: C_4  and  C_5
REMARK    3  A    between atoms: N_11  and  C_12
REMARK    4  A    between atoms: C_14  and  C_15
REMARK                            x       y       z     vdW  Elec       q    Type
REMARK                         _______ _______ _______ _____ _____    ______ ____
ROOT
ATOM      1  O   UNL     1       6.843   8.763  17.098  0.00  0.00    +0.000 OA
ATOM      2  C   UNL     1       7.723   8.275  17.793  0.00  0.00    +0.000 C 
ATOM      3  N   UNL     1       8.622   9.050  18.485  0.00  0.00    +0.000 N 
ATOM      4  N   UNL     1       7.927   6.934  18.006  0.00  0.00    +0.000 N 
ATOM      5  H   UNL     1       9.520   8.637  18.691  0.00  0.00    +0.000 HD
ATOM      6  H   UNL     1       8.614   6.666  18.705  0.00  0.00    +0.000 HD
ENDROOT
BRANCH   4   7
ATOM      7  C   UNL     1       7.218   5.876  17.472  0.00  0.00    +0.000 A 
ATOM      8  C   UNL     1       7.111   5.577  16.167  0.00  0.00    +0.000 A 
ATOM      9  C   UNL     1       6.296   4.471  15.686  0.00  0.00    +0.000 A 
ATOM     10  C   UNL     1       5.656   3.706  16.584  0.00  0.00    +0.000 A 
ATOM     11  N   UNL     1       5.766   3.956  17.930  0.00  0.00    +0.000 N 
ATOM     12  C   UNL     1       6.505   4.986  18.461  0.00  0.00    +0.000 A 
ATOM     13  O   UNL     1       6.591   5.187  19.669  0.00  0.00    +0.000 OA
ATOM     14  H   UNL     1       5.284   3.368  18.600  0.00  0.00    +0.000 HD
BRANCH   9  15
ATOM     15  C   UNL     1       6.183   4.243  14.204  0.00  0.00    +0.000 C 
ATOM     16  F   UNL     1       7.005   5.034  13.469  0.00  0.00    +0.000 F 
ATOM     17  F   UNL     1       6.479   2.959  13.874  0.00  0.00    +0.000 F 
ATOM     18  F   UNL     1       4.920   4.476  13.763  0.00  0.00    +0.000 F 
ENDBRANCH   9  15
ENDBRANCH   4   7
BRANCH   3  19
ATOM     19  C   UNL     1       8.585  10.490  18.337  0.00  0.00    +0.000 C 
BRANCH  19  20
ATOM     20  C   UNL     1       9.901  11.104  18.705  0.00  0.00    +0.000 A 
ATOM     21  C   UNL     1      10.242  11.336  20.042  0.00  0.00    +0.000 A 
ATOM     22  C   UNL     1      11.464  11.921  20.350  0.00  0.00    +0.000 A 
ATOM     23  C   UNL     1      12.308  12.261  19.307  0.00  0.00    +0.000 A 
ATOM     24  N   UNL     1      12.012  12.060  18.005  0.00  0.00    +0.000 NA
ATOM     25  C   UNL     1      10.816  11.492  17.733  0.00  0.00    +0.000 A 
ENDBRANCH  19  20
ENDBRANCH   3  19
TORSDOF 4
ENDMDL
MODEL 6
REMARK VINA RESULT:      -7.5      5.397      7.861
REMARK  Name = 
REMARK  4 active torsions:
REMARK  status: ('A' for Active; 'I' for Inactive)
REMARK    1  A    between atoms: N_3  and  C_4
REMARK    2  A    between atoms: C_4  and  C_5
REMARK    3  A    between atoms: N_11  and  C_12
REMARK    4  A    between atoms: C_14  and  C_15
REMARK                            x       y       z     vdW  Elec       q    Type
REMARK                         _______ _______ _______ _____ _____    ______ ____
ROOT
ATOM      1  O   UNL     1       4.378   5.720  16.931  0.00  0.00    +0.000 OA
ATOM      2  C   UNL     1       5.045   4.792  17.367  0.00  0.00    +0.000 C 
ATOM      3  N   UNL     1       4.909   4.337  18.656  0.00  0.00    +0.000 N 
ATOM      4  N   UNL     1       5.975   4.070  16.661  0.00  0.00    +0.000 N 
ATOM      5  H   UNL     1       5.711   3.885  19.070  0.00  0.00    +0.000 HD
ATOM      6  H   UNL     1       6.368   3.244  17.104  0.00  0.00    +0.000 HD
ENDROOT
BRANCH   4   7
ATOM      7  C   UNL     1       6.367   4.252  15.349  0.00  0.00    +0.000 A 
ATOM      8  C   UNL     1       5.951   3.532  14.294  0.00  0.00    +0.000 A 
ATOM      9  C   UNL     1       6.457   3.758  12.949  0.00  0.00    +0.000 A 
ATOM     10  C   UNL     1       7.349   4.743  12.754  0.00  0.00    +0.000 A 
ATOM     11  N   UNL     1       7.774   5.526  13.800  0.00  0.00    +0.000 N 
ATOM     12  C   UNL     1       7.353   5.367  15.099  0.00  0.00    +0.000 A 
ATOM     13  O   UNL     1       7.746   6.082  16.016  0.00  0.00    +0.000 OA
ATOM     14  H   UNL     1       8.443   6.271  13.641  0.00  0.00    +0.000 HD
BRANCH   9  15
ATOM     15  C   UNL     1       5.984   2.867  11.834  0.00  0.00    +0.000 C 
ATOM     16  F   UNL     1       5.570   1.645  12.255  0.00  0.00    +0.000 F 
ATOM     17  F   UNL     1       4.942   3.422  11.162  0.00  0.00    +0.000 F 
ATOM     18  F   UNL     1       6.966   2.654  10.921  0.00  0.00    +0.000 F 
ENDBRANCH   9  15
ENDBRANCH   4   7
BRANCH   3  19
ATOM     19  C   UNL     1       4.006   5.016  19.561  0.00  0.00    +0.000 C 
BRANCH  19  20
ATOM     20  C   UNL     1       2.770   4.205  19.800  0.00  0.00    +0.000 A 
ATOM     21  C   UNL     1       2.411   3.797  21.090  0.00  0.00    +0.000 A 
ATOM     22  C   UNL     1       1.266   3.032  21.278  0.00  0.00    +0.000 A 
ATOM     23  C   UNL     1       0.516   2.694  20.166  0.00  0.00    +0.000 A 
ATOM     24  N   UNL     1       0.833   3.061  18.905  0.00  0.00    +0.000 NA
ATOM     25  C   UNL     1       1.954   3.802  18.751  0.00  0.00    +0.000 A 
ENDBRANCH  19  20
ENDBRANCH   3  19
TORSDOF 4
ENDMDL
MODEL 7
REMARK VINA RESULT:      -7.5      2.603      3.172
REMARK  Name = 
REMARK  4 active torsions:
REMARK  status: ('A' for Active; 'I' for Inactive)
REMARK    1  A    between atoms: N_3  and  C_4
REMARK    2  A    between atoms: C_4  and  C_5
REMARK    3  A    between atoms: N_11  and  C_12
REMARK    4  A    between atoms: C_14  and  C_15
REMARK                            x       y       z     vdW  Elec       q    Type
REMARK                         _______ _______ _______ _____ _____    ______ ____
ROOT
ATOM      1  O   UNL     1       6.747   8.740  17.075  0.00  0.00    +0.000 OA
ATOM      2  C   UNL     1       7.658   8.251  17.729  0.00  0.00    +0.000 C 
ATOM      3  N   UNL     1       8.578   9.026  18.392  0.00  0.00    +0.000 N 
ATOM      4  N   UNL     1       7.879   6.910  17.920  0.00  0.00    +0.000 N 
ATOM      5  H   UNL     1       9.487   8.618  18.557  0.00  0.00    +0.000 HD
ATOM      6  H   UNL     1       8.596   6.641  18.587  0.00  0.00    +0.000 HD
ENDROOT
BRANCH   4   7
ATOM      7  C   UNL     1       7.157   5.852  17.403  0.00  0.00    +0.000 A 
ATOM      8  C   UNL     1       7.040   5.536  16.104  0.00  0.00    +0.000 A 
ATOM      9  C   UNL     1       6.212   4.432  15.641  0.00  0.00    +0.000 A 
ATOM     10  C   UNL     1       5.568   3.687  16.553  0.00  0.00    +0.000 A 
ATOM     11  N   UNL     1       5.687   3.954  17.895  0.00  0.00    +0.000 N 
ATOM     12  C   UNL     1       6.439   4.984  18.408  0.00  0.00    +0.000 A 
ATOM     13  O   UNL     1       6.533   5.201  19.613  0.00  0.00    +0.000 OA
ATOM     14  H   UNL     1       5.201   3.381  18.575  0.00  0.00    +0.000 HD
BRANCH   9  15
ATOM     15  C   UNL     1       6.090   4.184  14.163  0.00  0.00    +0.000 C 
ATOM     16  F   UNL     1       6.942   4.930  13.416  0.00  0.00    +0.000 F 
ATOM     17  F   UNL     1       6.335   2.884  13.855  0.00  0.00    +0.000 F 
ATOM     18  F   UNL     1       4.836   4.460  13.718  0.00  0.00    +0.000 F 
ENDBRANCH   9  15
ENDBRANCH   4   7
BRANCH   3  19
ATOM     19  C   UNL     1       8.525  10.467  18.260  0.00  0.00    +0.000 C 
BRANCH  19  20
ATOM     20  C   UNL     1       9.799  11.099  18.732  0.00  0.00    +0.000 A 
ATOM     21  C   UNL     1      10.787  11.498  17.826  0.00  0.00    +0.000 A 
ATOM     22  C   UNL     1      11.964  12.068  18.296  0.00  0.00    +0.000 A 
ATOM     23  C   UNL     1      12.118  12.218  19.663  0.00  0.00    +0.000 A 
ATOM     24  N   UNL     1      11.191  11.839  20.569  0.00  0.00    +0.000 NA
ATOM     25  C   UNL     1      10.057  11.284  20.084  0.00  0.00    +0.000 A 
ENDBRANCH  19  20
ENDBRANCH   3  19
TORSDOF 4
ENDMDL
MODEL 8
REMARK VINA RESULT:      -7.5      2.848      3.504
REMARK  Name = 
REMARK  4 active torsions:
REMARK  status: ('A' for Active; 'I' for Inactive)
REMARK    1  A    between atoms: N_3  and  C_4
REMARK    2  A    between atoms: C_4  and  C_5
REMARK    3  A    between atoms: N_11  and  C_12
REMARK    4  A    between atoms: C_14  and  C_15
REMARK                            x       y       z     vdW  Elec       q    Type
REMARK                         _______ _______ _______ _____ _____    ______ ____
ROOT
ATOM      1  O   UNL     1       7.803   9.307  17.494  0.00  0.00    +0.000 OA
ATOM      2  C   UNL     1       8.459   8.827  18.407  0.00  0.00    +0.000 C 
ATOM      3  N   UNL     1       9.337   9.578  19.149  0.00  0.00    +0.000 N 
ATOM      4  N   UNL     1       8.405   7.523  18.836  0.00  0.00    +0.000 N 
ATOM      5  H   UNL     1      10.108   9.089  19.581  0.00  0.00    +0.000 HD
ATOM      6  H   UNL     1       8.909   7.285  19.685  0.00  0.00    +0.000 HD
ENDROOT
BRANCH   4   7
ATOM      7  C   UNL     1       7.638   6.496  18.321  0.00  0.00    +0.000 A 
ATOM      8  C   UNL     1       7.173   6.412  17.065  0.00  0.00    +0.000 A 
ATOM      9  C   UNL     1       6.325   5.316  16.620  0.00  0.00    +0.000 A 
ATOM     10  C   UNL     1       6.024   4.341  17.493  0.00  0.00    +0.000 A 
ATOM     11  N   UNL     1       6.508   4.370  18.778  0.00  0.00    +0.000 N 
ATOM     12  C   UNL     1       7.303   5.375  19.276  0.00  0.00    +0.000 A 
ATOM     13  O   UNL     1       7.726   5.378  20.428  0.00  0.00    +0.000 OA
ATOM     14  H   UNL     1       6.280   3.626  19.427  0.00  0.00    +0.000 HD
BRANCH   9  15
ATOM     15  C   UNL     1       5.798   5.329  15.212  0.00  0.00    +0.000 C 
ATOM     16  F   UNL     1       6.771   5.270  14.268  0.00  0.00    +0.000 F 
ATOM     17  F   UNL     1       4.966   4.281  14.982  0.00  0.00    +0.000 F 
ATOM     18  F   UNL     1       5.082   6.456  14.963  0.00  0.00    +0.000 F 
ENDBRANCH   9  15
ENDBRANCH   4   7
BRANCH   3  19
ATOM     19  C   UNL     1       9.559  10.966  18.802  0.00  0.00    +0.000 C 
BRANCH  19  20
ATOM     20  C   UNL     1       9.241  11.868  19.955  0.00  0.00    +0.000 A 
ATOM     21  C   UNL     1       9.144  11.369  21.259  0.00  0.00    +0.000 A 
ATOM     22  C   UNL     1       8.834  12.228  22.306  0.00  0.00    +0.000 A 
ATOM     23  C   UNL     1       8.624  13.564  22.014  0.00  0.00    +0.000 A 
ATOM     24  N   UNL     1       8.701  14.083  20.769  0.00  0.00    +0.000 NA
ATOM     25  C   UNL     1       9.002  13.224  19.769  0.00  0.00    +0.000 A 
ENDBRANCH  19  20
ENDBRANCH   3  19
TORSDOF 4
ENDMDL
MODEL 9
REMARK VINA RESULT:      -7.4      5.688      7.716
REMARK  Name = 
REMARK  4 active torsions:
REMARK  status: ('A' for Active; 'I' for Inactive)
REMARK    1  A    between atoms: N_3  and  C_4
REMARK    2  A    between atoms: C_4  and  C_5
REMARK    3  A    between atoms: N_11  and  C_12
REMARK    4  A    between atoms: C_14  and  C_15
REMARK                            x       y       z     vdW  Elec       q    Type
REMARK                         _______ _______ _______ _____ _____    ______ ____
ROOT
ATOM      1  O   UNL     1       4.580   5.554  16.848  0.00  0.00    +0.000 OA
ATOM      2  C   UNL     1       5.237   4.556  17.109  0.00  0.00    +0.000 C 
ATOM      3  N   UNL     1       5.324   4.051  18.383  0.00  0.00    +0.000 N 
ATOM      4  N   UNL     1       5.940   3.798  16.204  0.00  0.00    +0.000 N 
ATOM      5  H   UNL     1       6.150   3.517  18.609  0.00  0.00    +0.000 HD
ATOM      6  H   UNL     1       6.340   2.924  16.532  0.00  0.00    +0.000 HD
ENDROOT
BRANCH   4   7
ATOM      7  C   UNL     1       6.074   4.013  14.846  0.00  0.00    +0.000 A 
ATOM      8  C   UNL     1       5.279   3.514  13.887  0.00  0.00    +0.000 A 
ATOM      9  C   UNL     1       5.525   3.748  12.471  0.00  0.00    +0.000 A 
ATOM     10  C   UNL     1       6.568   4.516  12.119  0.00  0.00    +0.000 A 
ATOM     11  N   UNL     1       7.386   5.074  13.070  0.00  0.00    +0.000 N 
ATOM     12  C   UNL     1       7.227   4.891  14.424  0.00  0.00    +0.000 A 
ATOM     13  O   UNL     1       7.970   5.403  15.255  0.00  0.00    +0.000 OA
ATOM     14  H   UNL     1       8.168   5.658  12.794  0.00  0.00    +0.000 HD
BRANCH   9  15
ATOM     15  C   UNL     1       4.619   3.103  11.459  0.00  0.00    +0.000 C 
ATOM     16  F   UNL     1       4.412   3.863  10.355  0.00  0.00    +0.000 F 
ATOM     17  F   UNL     1       5.120   1.916  11.028  0.00  0.00    +0.000 F 
ATOM     18  F   UNL     1       3.396   2.840  11.988  0.00  0.00    +0.000 F 
ENDBRANCH   9  15
ENDBRANCH   4   7
BRANCH   3  19
ATOM     19  C   UNL     1       4.684   4.754  19.475  0.00  0.00    +0.000 C 
BRANCH  19  20
ATOM     20  C   UNL     1       3.342   4.164  19.784  0.00  0.00    +0.000 A 
ATOM     21  C   UNL     1       2.290   4.962  20.246  0.00  0.00    +0.000 A 
ATOM     22  C   UNL     1       1.061   4.383  20.539  0.00  0.00    +0.000 A 
ATOM     23  C   UNL     1       0.925   3.017  20.364  0.00  0.00    +0.000 A 
ATOM     24  N   UNL     1       1.918   2.212  19.928  0.00  0.00    +0.000 NA
ATOM     25  C   UNL     1       3.103   2.802  19.653  0.00  0.00    +0.000 A 
ENDBRANCH  19  20
ENDBRANCH   3  19
TORSDOF 4
ENDMDL
