MODEL 1
REMARK VINA RESULT:      -7.2      0.000      0.000
REMARK  Name = 
REMARK  11 active torsions:
REMARK  status: ('A' for Active; 'I' for Inactive)
REMARK    1  A    between atoms: C_2  and  C_21
REMARK    2  A    between atoms: N_3  and  C_4
REMARK    3  A    between atoms: C_4  and  C_5
REMARK    4  A    between atoms: C_5  and  C_6
REMARK    5  A    between atoms: C_6  and  C_7
REMARK    6  A    between atoms: C_7  and  N_8
REMARK    7  A    between atoms: N_8  and  C_9
REMARK    8  A    between atoms: C_9  and  C_10
REMARK    9  A    between atoms: C_10  and  C_11
REMARK   10  A    between atoms: C_11  and  N_12
REMARK   11  A    between atoms: C_13  and  C_15
REMARK                            x       y       z     vdW  Elec       q    Type
REMARK                         _______ _______ _______ _____ _____    ______ ____
ROOT
ATOM      1  N   UNL     1       2.504   5.784  20.599  0.00  0.00    +0.000 NA
ATOM      2  H   UNL     1       2.666   6.035  21.604  0.00  0.00    +0.000 HD
ENDROOT
BRANCH   1   3
ATOM      3  C   UNL     1       2.174   7.008  19.865  0.00  0.00    +0.000 C 
BRANCH   3   4
ATOM      4  C   UNL     1       2.587   6.887  18.395  0.00  0.00    +0.000 C 
BRANCH   4   5
ATOM      5  C   UNL     1       2.505   8.232  17.658  0.00  0.00    +0.000 C 
BRANCH   5   6
ATOM      6  C   UNL     1       1.747   9.312  18.451  0.00  0.00    +0.000 C 
BRANCH   6   9
ATOM      7  O   UNL     1      -0.027  11.212  19.287  0.00  0.00    +0.000 OA
ATOM      8  C   UNL     1      -0.412  10.486  18.378  0.00  0.00    +0.000 C 
ATOM      9  N   UNL     1       0.421   9.513  17.904  0.00  0.00    +0.000 N 
ATOM     10  H   UNL     1       0.126   8.899  17.136  0.00  0.00    +0.000 HD
BRANCH   8  11
ATOM     11  C   UNL     1      -1.782  10.705  17.811  0.00  0.00    +0.000 A 
ATOM     12  C   UNL     1      -2.119  10.130  16.567  0.00  0.00    +0.000 A 
ATOM     13  C   UNL     1      -3.396  10.303  16.022  0.00  0.00    +0.000 A 
ATOM     14  C   UNL     1      -4.353  11.052  16.704  0.00  0.00    +0.000 A 
ATOM     15  C   UNL     1      -4.037  11.634  17.930  0.00  0.00    +0.000 A 
ATOM     16  C   UNL     1      -2.767  11.466  18.483  0.00  0.00    +0.000 A 
ENDBRANCH   8  11
ENDBRANCH   6   9
ENDBRANCH   5   6
ENDBRANCH   4   5
ENDBRANCH   3   4
ENDBRANCH   1   3
BRANCH   1  17
ATOM     17  C   UNL     1       1.370   4.859  20.527  0.00  0.00    +0.000 C 
BRANCH  17  18
ATOM     18  C   UNL     1       1.780   3.480  21.025  0.00  0.00    +0.000 C 
BRANCH  18  19
ATOM     19  C   UNL     1       2.193   2.579  19.855  0.00  0.00    +0.000 C 
BRANCH  19  20
ATOM     20  N   UNL     1       2.962   3.336  18.887  0.00  0.00    +0.000 N 
ATOM     21  C   UNL     1       4.323   3.400  18.937  0.00  0.00    +0.000 C 
ATOM     22  O   UNL     1       4.920   2.808  19.826  0.00  0.00    +0.000 OA
ATOM     23  H   UNL     1       2.442   3.824  18.151  0.00  0.00    +0.000 HD
BRANCH  21  24
ATOM     24  C   UNL     1       5.115   4.175  17.925  0.00  0.00    +0.000 A 
ATOM     25  C   UNL     1       4.836   4.123  16.539  0.00  0.00    +0.000 A 
ATOM     26  C   UNL     1       5.600   4.855  15.629  0.00  0.00    +0.000 A 
ATOM     27  C   UNL     1       6.653   5.649  16.075  0.00  0.00    +0.000 A 
ATOM     28  C   UNL     1       6.946   5.716  17.436  0.00  0.00    +0.000 A 
ATOM     29  C   UNL     1       6.186   4.987  18.356  0.00  0.00    +0.000 A 
ENDBRANCH  21  24
ENDBRANCH  19  20
ENDBRANCH  18  19
ENDBRANCH  17  18
ENDBRANCH   1  17
TORSDOF 11
ENDMDL
MODEL 2
REMARK VINA RESULT:      -7.2      0.841      1.280
REMARK  Name = 
REMARK  11 active torsions:
REMARK  status: ('A' for Active; 'I' for Inactive)
REMARK    1  A    between atoms: C_2  and  C_21
REMARK    2  A    between atoms: N_3  and  C_4
REMARK    3  A    between atoms: C_4  and  C_5
REMARK    4  A    between atoms: C_5  and  C_6
REMARK    5  A    between atoms: C_6  and  C_7
REMARK    6  A    between atoms: C_7  and  N_8
REMARK    7  A    between atoms: N_8  and  C_9
REMARK    8  A    between atoms: C_9  and  C_10
REMARK    9  A    between atoms: C_10  and  C_11
REMARK   10  A    between atoms: C_11  and  N_12
REMARK   11  A    between atoms: C_13  and  C_15
REMARK                            x       y       z     vdW  Elec       q    Type
REMARK                         _______ _______ _______ _____ _____    ______ ____
ROOT
ATOM      1  N   UNL     1       2.570   5.647  20.429  0.00  0.00    +0.000 NA
ATOM      2  H   UNL     1       2.200   5.719  21.407  0.00  0.00    +0.000 HD
ENDROOT
BRANCH   1   3
ATOM      3  C   UNL     1       2.346   6.927  19.754  0.00  0.00    +0.000 C 
BRANCH   3   4
ATOM      4  C   UNL     1       3.083   6.971  18.413  0.00  0.00    +0.000 C 
BRANCH   4   5
ATOM      5  C   UNL     1       2.558   8.087  17.498  0.00  0.00    +0.000 C 
BRANCH   5   6
ATOM      6  C   UNL     1       1.996   9.291  18.274  0.00  0.00    +0.000 C 
BRANCH   6   9
ATOM      7  O   UNL     1      -0.229   9.896  19.737  0.00  0.00    +0.000 OA
ATOM      8  C   UNL     1      -0.348   9.992  18.522  0.00  0.00    +0.000 C 
ATOM      9  N   UNL     1       0.723   9.708  17.723  0.00  0.00    +0.000 N 
ATOM     10  H   UNL     1       0.652   9.791  16.702  0.00  0.00    +0.000 HD
BRANCH   8  11
ATOM     11  C   UNL     1      -1.665  10.431  17.958  0.00  0.00    +0.000 A 
ATOM     12  C   UNL     1      -2.080   9.944  16.700  0.00  0.00    +0.000 A 
ATOM     13  C   UNL     1      -3.313  10.323  16.158  0.00  0.00    +0.000 A 
ATOM     14  C   UNL     1      -4.147  11.194  16.856  0.00  0.00    +0.000 A 
ATOM     15  C   UNL     1      -3.752  11.692  18.096  0.00  0.00    +0.000 A 
ATOM     16  C   UNL     1      -2.525  11.318  18.646  0.00  0.00    +0.000 A 
ENDBRANCH   8  11
ENDBRANCH   6   9
ENDBRANCH   5   6
ENDBRANCH   4   5
ENDBRANCH   3   4
ENDBRANCH   1   3
BRANCH   1  17
ATOM     17  C   UNL     1       1.827   4.596  19.726  0.00  0.00    +0.000 C 
BRANCH  17  18
ATOM     18  C   UNL     1       2.081   3.244  20.378  0.00  0.00    +0.000 C 
BRANCH  18  19
ATOM     19  C   UNL     1       3.568   2.877  20.313  0.00  0.00    +0.000 C 
BRANCH  19  20
ATOM     20  N   UNL     1       4.090   3.140  18.987  0.00  0.00    +0.000 N 
ATOM     21  C   UNL     1       5.097   4.032  18.771  0.00  0.00    +0.000 C 
ATOM     22  O   UNL     1       5.576   4.639  19.720  0.00  0.00    +0.000 OA
ATOM     23  H   UNL     1       3.675   2.621  18.206  0.00  0.00    +0.000 HD
BRANCH  21  24
ATOM     24  C   UNL     1       5.644   4.290  17.397  0.00  0.00    +0.000 A 
ATOM     25  C   UNL     1       6.985   4.678  17.174  0.00  0.00    +0.000 A 
ATOM     26  C   UNL     1       7.455   4.914  15.880  0.00  0.00    +0.000 A 
ATOM     27  C   UNL     1       6.604   4.771  14.788  0.00  0.00    +0.000 A 
ATOM     28  C   UNL     1       5.277   4.389  14.984  0.00  0.00    +0.000 A 
ATOM     29  C   UNL     1       4.798   4.149  16.276  0.00  0.00    +0.000 A 
ENDBRANCH  21  24
ENDBRANCH  19  20
ENDBRANCH  18  19
ENDBRANCH  17  18
ENDBRANCH   1  17
TORSDOF 11
ENDMDL
MODEL 3
REMARK VINA RESULT:      -7.0      1.423      2.017
REMARK  Name = 
REMARK  11 active torsions:
REMARK  status: ('A' for Active; 'I' for Inactive)
REMARK    1  A    between atoms: C_2  and  C_21
REMARK    2  A    between atoms: N_3  and  C_4
REMARK    3  A    between atoms: C_4  and  C_5
REMARK    4  A    between atoms: C_5  and  C_6
REMARK    5  A    between atoms: C_6  and  C_7
REMARK    6  A    between atoms: C_7  and  N_8
REMARK    7  A    between atoms: N_8  and  C_9
REMARK    8  A    between atoms: C_9  and  C_10
REMARK    9  A    between atoms: C_10  and  C_11
REMARK   10  A    between atoms: C_11  and  N_12
REMARK   11  A    between atoms: C_13  and  C_15
REMARK                            x       y       z     vdW  Elec       q    Type
REMARK                         _______ _______ _______ _____ _____    ______ ____
ROOT
ATOM      1  N   UNL     1       2.759   4.337  20.505  0.00  0.00    +0.000 NA
ATOM      2  H   UNL     1       2.395   4.475  21.478  0.00  0.00    +0.000 HD
ENDROOT
BRANCH   1   3
ATOM      3  C   UNL     1       1.955   5.151  19.591  0.00  0.00    +0.000 C 
BRANCH   3   4
ATOM      4  C   UNL     1       2.501   6.580  19.514  0.00  0.00    +0.000 C 
BRANCH   4   5
ATOM      5  C   UNL     1       2.690   7.051  18.065  0.00  0.00    +0.000 C 
BRANCH   5   6
ATOM      6  C   UNL     1       2.558   8.576  17.902  0.00  0.00    +0.000 C 
BRANCH   6   9
ATOM      7  O   UNL     1       1.361  10.668  19.186  0.00  0.00    +0.000 OA
ATOM      8  C   UNL     1       0.640  10.019  18.437  0.00  0.00    +0.000 C 
ATOM      9  N   UNL     1       1.168   8.959  17.757  0.00  0.00    +0.000 N 
ATOM     10  H   UNL     1       0.589   8.406  17.115  0.00  0.00    +0.000 HD
BRANCH   8  11
ATOM     11  C   UNL     1      -0.795  10.425  18.285  0.00  0.00    +0.000 A 
ATOM     12  C   UNL     1      -1.570   9.862  17.249  0.00  0.00    +0.000 A 
ATOM     13  C   UNL     1      -2.916  10.209  17.094  0.00  0.00    +0.000 A 
ATOM     14  C   UNL     1      -3.509  11.123  17.964  0.00  0.00    +0.000 A 
ATOM     15  C   UNL     1      -2.758  11.696  18.989  0.00  0.00    +0.000 A 
ATOM     16  C   UNL     1      -1.414  11.355  19.152  0.00  0.00    +0.000 A 
ENDBRANCH   8  11
ENDBRANCH   6   9
ENDBRANCH   5   6
ENDBRANCH   4   5
ENDBRANCH   3   4
ENDBRANCH   1   3
BRANCH   1  17
ATOM     17  C   UNL     1       2.610   2.923  20.149  0.00  0.00    +0.000 C 
BRANCH  17  18
ATOM     18  C   UNL     1       2.400   2.776  18.648  0.00  0.00    +0.000 C 
BRANCH  18  19
ATOM     19  C   UNL     1       3.718   2.434  17.944  0.00  0.00    +0.000 C 
BRANCH  19  20
ATOM     20  N   UNL     1       4.727   3.425  18.261  0.00  0.00    +0.000 N 
ATOM     21  C   UNL     1       5.107   4.381  17.368  0.00  0.00    +0.000 C 
ATOM     22  O   UNL     1       4.588   4.407  16.259  0.00  0.00    +0.000 OA
ATOM     23  H   UNL     1       5.148   3.385  19.195  0.00  0.00    +0.000 HD
BRANCH  21  24
ATOM     24  C   UNL     1       6.142   5.413  17.706  0.00  0.00    +0.000 A 
ATOM     25  C   UNL     1       6.271   6.624  16.988  0.00  0.00    +0.000 A 
ATOM     26  C   UNL     1       7.251   7.558  17.330  0.00  0.00    +0.000 A 
ATOM     27  C   UNL     1       8.119   7.307  18.390  0.00  0.00    +0.000 A 
ATOM     28  C   UNL     1       8.010   6.119  19.113  0.00  0.00    +0.000 A 
ATOM     29  C   UNL     1       7.031   5.179  18.777  0.00  0.00    +0.000 A 
ENDBRANCH  21  24
ENDBRANCH  19  20
ENDBRANCH  18  19
ENDBRANCH  17  18
ENDBRANCH   1  17
TORSDOF 11
ENDMDL
MODEL 4
REMARK VINA RESULT:      -7.0      1.150      8.869
REMARK  Name = 
REMARK  11 active torsions:
REMARK  status: ('A' for Active; 'I' for Inactive)
REMARK    1  A    between atoms: C_2  and  C_21
REMARK    2  A    between atoms: N_3  and  C_4
REMARK    3  A    between atoms: C_4  and  C_5
REMARK    4  A    between atoms: C_5  and  C_6
REMARK    5  A    between atoms: C_6  and  C_7
REMARK    6  A    between atoms: C_7  and  N_8
REMARK    7  A    between atoms: N_8  and  C_9
REMARK    8  A    between atoms: C_9  and  C_10
REMARK    9  A    between atoms: C_10  and  C_11
REMARK   10  A    between atoms: C_11  and  N_12
REMARK   11  A    between atoms: C_13  and  C_15
REMARK                            x       y       z     vdW  Elec       q    Type
REMARK                         _______ _______ _______ _____ _____    ______ ____
ROOT
ATOM      1  N   UNL     1       2.252   6.095  19.372  0.00  0.00    +0.000 NA
ATOM      2  H   UNL     1       1.664   5.743  18.578  0.00  0.00    +0.000 HD
ENDROOT
BRANCH   1   3
ATOM      3  C   UNL     1       1.767   5.484  20.612  0.00  0.00    +0.000 C 
BRANCH   3   4
ATOM      4  C   UNL     1       1.265   4.060  20.355  0.00  0.00    +0.000 C 
BRANCH   4   5
ATOM      5  C   UNL     1       1.681   3.539  18.972  0.00  0.00    +0.000 C 
BRANCH   5   6
ATOM      6  C   UNL     1       3.054   2.842  18.976  0.00  0.00    +0.000 C 
BRANCH   6   9
ATOM      7  O   UNL     1       4.464   3.815  16.850  0.00  0.00    +0.000 OA
ATOM      8  C   UNL     1       4.785   4.253  17.948  0.00  0.00    +0.000 C 
ATOM      9  N   UNL     1       4.123   3.816  19.059  0.00  0.00    +0.000 N 
ATOM     10  H   UNL     1       4.365   4.175  19.990  0.00  0.00    +0.000 HD
BRANCH   8  11
ATOM     11  C   UNL     1       5.887   5.267  18.027  0.00  0.00    +0.000 A 
ATOM     12  C   UNL     1       5.862   6.387  17.168  0.00  0.00    +0.000 A 
ATOM     13  C   UNL     1       6.867   7.358  17.232  0.00  0.00    +0.000 A 
ATOM     14  C   UNL     1       7.911   7.227  18.146  0.00  0.00    +0.000 A 
ATOM     15  C   UNL     1       7.957   6.124  18.997  0.00  0.00    +0.000 A 
ATOM     16  C   UNL     1       6.958   5.151  18.942  0.00  0.00    +0.000 A 
ENDBRANCH   8  11
ENDBRANCH   6   9
ENDBRANCH   5   6
ENDBRANCH   4   5
ENDBRANCH   3   4
ENDBRANCH   1   3
BRANCH   1  17
ATOM     17  C   UNL     1       2.094   7.550  19.458  0.00  0.00    +0.000 C 
BRANCH  17  18
ATOM     18  C   UNL     1       2.215   8.177  18.076  0.00  0.00    +0.000 C 
BRANCH  18  19
ATOM     19  C   UNL     1       1.935   9.683  18.135  0.00  0.00    +0.000 C 
BRANCH  19  20
ATOM     20  N   UNL     1       0.637   9.973  17.559  0.00  0.00    +0.000 N 
ATOM     21  C   UNL     1      -0.462  10.197  18.333  0.00  0.00    +0.000 C 
ATOM     22  O   UNL     1      -0.359  10.148  19.552  0.00  0.00    +0.000 OA
ATOM     23  H   UNL     1       0.573  10.010  16.536  0.00  0.00    +0.000 HD
BRANCH  21  24
ATOM     24  C   UNL     1      -1.801  10.510  17.733  0.00  0.00    +0.000 A 
ATOM     25  C   UNL     1      -2.205  10.012  16.472  0.00  0.00    +0.000 A 
ATOM     26  C   UNL     1      -3.458  10.330  15.945  0.00  0.00    +0.000 A 
ATOM     27  C   UNL     1      -4.332  11.147  16.658  0.00  0.00    +0.000 A 
ATOM     28  C   UNL     1      -3.956  11.649  17.904  0.00  0.00    +0.000 A 
ATOM     29  C   UNL     1      -2.703  11.335  18.440  0.00  0.00    +0.000 A 
ENDBRANCH  21  24
ENDBRANCH  19  20
ENDBRANCH  18  19
ENDBRANCH  17  18
ENDBRANCH   1  17
TORSDOF 11
ENDMDL
MODEL 5
REMARK VINA RESULT:      -7.0      2.220      8.654
REMARK  Name = 
REMARK  11 active torsions:
REMARK  status: ('A' for Active; 'I' for Inactive)
REMARK    1  A    between atoms: C_2  and  C_21
REMARK    2  A    between atoms: N_3  and  C_4
REMARK    3  A    between atoms: C_4  and  C_5
REMARK    4  A    between atoms: C_5  and  C_6
REMARK    5  A    between atoms: C_6  and  C_7
REMARK    6  A    between atoms: C_7  and  N_8
REMARK    7  A    between atoms: N_8  and  C_9
REMARK    8  A    between atoms: C_9  and  C_10
REMARK    9  A    between atoms: C_10  and  C_11
REMARK   10  A    between atoms: C_11  and  N_12
REMARK   11  A    between atoms: C_13  and  C_15
REMARK                            x       y       z     vdW  Elec       q    Type
REMARK                         _______ _______ _______ _____ _____    ______ ____
ROOT
ATOM      1  N   UNL     1       1.798   6.181  20.697  0.00  0.00    +0.000 NA
ATOM      2  H   UNL     1       2.196   6.024  21.654  0.00  0.00    +0.000 HD
ENDROOT
BRANCH   1   3
ATOM      3  C   UNL     1       1.058   4.981  20.301  0.00  0.00    +0.000 C 
BRANCH   3   4
ATOM      4  C   UNL     1       1.833   3.716  20.681  0.00  0.00    +0.000 C 
BRANCH   4   5
ATOM      5  C   UNL     1       1.497   2.532  19.763  0.00  0.00    +0.000 C 
BRANCH   5   6
ATOM      6  C   UNL     1       2.728   1.959  19.038  0.00  0.00    +0.000 C 
BRANCH   6   9
ATOM      7  O   UNL     1       5.187   2.767  19.909  0.00  0.00    +0.000 OA
ATOM      8  C   UNL     1       4.739   3.371  18.942  0.00  0.00    +0.000 C 
ATOM      9  N   UNL     1       3.515   3.022  18.447  0.00  0.00    +0.000 N 
ATOM     10  H   UNL     1       3.123   3.505  17.631  0.00  0.00    +0.000 HD
BRANCH   8  11
ATOM     11  C   UNL     1       5.562   4.464  18.330  0.00  0.00    +0.000 A 
ATOM     12  C   UNL     1       6.519   5.137  19.119  0.00  0.00    +0.000 A 
ATOM     13  C   UNL     1       7.314   6.149  18.569  0.00  0.00    +0.000 A 
ATOM     14  C   UNL     1       7.166   6.508  17.231  0.00  0.00    +0.000 A 
ATOM     15  C   UNL     1       6.220   5.860  16.437  0.00  0.00    +0.000 A 
ATOM     16  C   UNL     1       5.424   4.848  16.976  0.00  0.00    +0.000 A 
ENDBRANCH   8  11
ENDBRANCH   6   9
ENDBRANCH   5   6
ENDBRANCH   4   5
ENDBRANCH   3   4
ENDBRANCH   1   3
BRANCH   1  17
ATOM     17  C   UNL     1       2.907   6.393  19.761  0.00  0.00    +0.000 C 
BRANCH  17  18
ATOM     18  C   UNL     1       2.373   6.725  18.375  0.00  0.00    +0.000 C 
BRANCH  18  19
ATOM     19  C   UNL     1       2.136   8.232  18.228  0.00  0.00    +0.000 C 
BRANCH  19  20
ATOM     20  N   UNL     1       1.556   8.768  19.444  0.00  0.00    +0.000 N 
ATOM     21  C   UNL     1       0.534   9.670  19.420  0.00  0.00    +0.000 C 
ATOM     22  O   UNL     1       0.092  10.049  18.343  0.00  0.00    +0.000 OA
ATOM     23  H   UNL     1       1.941   8.438  20.335  0.00  0.00    +0.000 HD
BRANCH  21  24
ATOM     24  C   UNL     1      -0.072  10.212  20.681  0.00  0.00    +0.000 A 
ATOM     25  C   UNL     1      -0.049   9.499  21.903  0.00  0.00    +0.000 A 
ATOM     26  C   UNL     1      -0.629  10.035  23.054  0.00  0.00    +0.000 A 
ATOM     27  C   UNL     1      -1.242  11.285  23.014  0.00  0.00    +0.000 A 
ATOM     28  C   UNL     1      -1.276  12.006  21.820  0.00  0.00    +0.000 A 
ATOM     29  C   UNL     1      -0.697  11.477  20.662  0.00  0.00    +0.000 A 
ENDBRANCH  21  24
ENDBRANCH  19  20
ENDBRANCH  18  19
ENDBRANCH  17  18
ENDBRANCH   1  17
TORSDOF 11
ENDMDL
MODEL 6
REMARK VINA RESULT:      -6.9      3.093      4.813
REMARK  Name = 
REMARK  11 active torsions:
REMARK  status: ('A' for Active; 'I' for Inactive)
REMARK    1  A    between atoms: C_2  and  C_21
REMARK    2  A    between atoms: N_3  and  C_4
REMARK    3  A    between atoms: C_4  and  C_5
REMARK    4  A    between atoms: C_5  and  C_6
REMARK    5  A    between atoms: C_6  and  C_7
REMARK    6  A    between atoms: C_7  and  N_8
REMARK    7  A    between atoms: N_8  and  C_9
REMARK    8  A    between atoms: C_9  and  C_10
REMARK    9  A    between atoms: C_10  and  C_11
REMARK   10  A    between atoms: C_11  and  N_12
REMARK   11  A    between atoms: C_13  and  C_15
REMARK                            x       y       z     vdW  Elec       q    Type
REMARK                         _______ _______ _______ _____ _____    ______ ____
ROOT
ATOM      1  N   UNL     1       6.196   6.294  16.298  0.00  0.00    +0.000 NA
ATOM      2  H   UNL     1       6.685   6.432  15.381  0.00  0.00    +0.000 HD
ENDROOT
BRANCH   1   3
ATOM      3  C   UNL     1       4.899   6.970  16.236  0.00  0.00    +0.000 C 
BRANCH   3   4
ATOM      4  C   UNL     1       4.306   7.137  17.639  0.00  0.00    +0.000 C 
BRANCH   4   5
ATOM      5  C   UNL     1       3.085   8.069  17.646  0.00  0.00    +0.000 C 
BRANCH   5   6
ATOM      6  C   UNL     1       1.996   7.632  18.642  0.00  0.00    +0.000 C 
BRANCH   6   9
ATOM      7  O   UNL     1       1.309   7.826  21.278  0.00  0.00    +0.000 OA
ATOM      8  C   UNL     1       1.056   8.806  20.587  0.00  0.00    +0.000 C 
ATOM      9  N   UNL     1       1.373   8.785  19.259  0.00  0.00    +0.000 N 
ATOM     10  H   UNL     1       1.182   9.597  18.662  0.00  0.00    +0.000 HD
BRANCH   8  11
ATOM     11  C   UNL     1       0.419   9.999  21.234  0.00  0.00    +0.000 A 
ATOM     12  C   UNL     1      -0.403   9.818  22.367  0.00  0.00    +0.000 A 
ATOM     13  C   UNL     1      -0.996  10.914  23.002  0.00  0.00    +0.000 A 
ATOM     14  C   UNL     1      -0.783  12.204  22.517  0.00  0.00    +0.000 A 
ATOM     15  C   UNL     1       0.019  12.402  21.395  0.00  0.00    +0.000 A 
ATOM     16  C   UNL     1       0.616  11.315  20.756  0.00  0.00    +0.000 A 
ENDBRANCH   8  11
ENDBRANCH   6   9
ENDBRANCH   5   6
ENDBRANCH   4   5
ENDBRANCH   3   4
ENDBRANCH   1   3
BRANCH   1  17
ATOM     17  C   UNL     1       7.008   6.906  17.355  0.00  0.00    +0.000 C 
BRANCH  17  18
ATOM     18  C   UNL     1       7.664   5.829  18.207  0.00  0.00    +0.000 C 
BRANCH  18  19
ATOM     19  C   UNL     1       7.055   4.453  17.913  0.00  0.00    +0.000 C 
BRANCH  19  20
ATOM     20  N   UNL     1       5.893   4.231  18.750  0.00  0.00    +0.000 N 
ATOM     21  C   UNL     1       4.710   3.785  18.241  0.00  0.00    +0.000 C 
ATOM     22  O   UNL     1       4.616   3.570  17.039  0.00  0.00    +0.000 OA
ATOM     23  H   UNL     1       5.993   4.417  19.753  0.00  0.00    +0.000 HD
BRANCH  21  24
ATOM     24  C   UNL     1       3.514   3.544  19.114  0.00  0.00    +0.000 A 
ATOM     25  C   UNL     1       2.703   2.391  18.991  0.00  0.00    +0.000 A 
ATOM     26  C   UNL     1       1.595   2.205  19.820  0.00  0.00    +0.000 A 
ATOM     27  C   UNL     1       1.271   3.158  20.782  0.00  0.00    +0.000 A 
ATOM     28  C   UNL     1       2.056   4.302  20.922  0.00  0.00    +0.000 A 
ATOM     29  C   UNL     1       3.168   4.496  20.097  0.00  0.00    +0.000 A 
ENDBRANCH  21  24
ENDBRANCH  19  20
ENDBRANCH  18  19
ENDBRANCH  17  18
ENDBRANCH   1  17
TORSDOF 11
ENDMDL
MODEL 7
REMARK VINA RESULT:      -6.8      1.566      3.932
REMARK  Name = 
REMARK  11 active torsions:
REMARK  status: ('A' for Active; 'I' for Inactive)
REMARK    1  A    between atoms: C_2  and  C_21
REMARK    2  A    between atoms: N_3  and  C_4
REMARK    3  A    between atoms: C_4  and  C_5
REMARK    4  A    between atoms: C_5  and  C_6
REMARK    5  A    between atoms: C_6  and  C_7
REMARK    6  A    between atoms: C_7  and  N_8
REMARK    7  A    between atoms: N_8  and  C_9
REMARK    8  A    between atoms: C_9  and  C_10
REMARK    9  A    between atoms: C_10  and  C_11
REMARK   10  A    between atoms: C_11  and  N_12
REMARK   11  A    between atoms: C_13  and  C_15
REMARK                            x       y       z     vdW  Elec       q    Type
REMARK                         _______ _______ _______ _____ _____    ______ ____
ROOT
ATOM      1  N   UNL     1       5.521   6.468  17.700  0.00  0.00    +0.000 NA
ATOM      2  H   UNL     1       5.278   5.819  18.486  0.00  0.00    +0.000 HD
ENDROOT
BRANCH   1   3
ATOM      3  C   UNL     1       4.277   6.926  17.078  0.00  0.00    +0.000 C 
BRANCH   3   4
ATOM      4  C   UNL     1       3.364   7.588  18.114  0.00  0.00    +0.000 C 
BRANCH   4   5
ATOM      5  C   UNL     1       2.523   8.721  17.506  0.00  0.00    +0.000 C 
BRANCH   5   6
ATOM      6  C   UNL     1       1.502   9.313  18.495  0.00  0.00    +0.000 C 
BRANCH   6   9
ATOM      7  O   UNL     1      -0.571  10.725  19.574  0.00  0.00    +0.000 OA
ATOM      8  C   UNL     1      -0.748  10.302  18.438  0.00  0.00    +0.000 C 
ATOM      9  N   UNL     1       0.245   9.588  17.830  0.00  0.00    +0.000 N 
ATOM     10  H   UNL     1       0.125   9.232  16.875  0.00  0.00    +0.000 HD
BRANCH   8  11
ATOM     11  C   UNL     1      -2.048  10.597  17.752  0.00  0.00    +0.000 A 
ATOM     12  C   UNL     1      -3.017  11.386  18.411  0.00  0.00    +0.000 A 
ATOM     13  C   UNL     1      -4.231  11.693  17.788  0.00  0.00    +0.000 A 
ATOM     14  C   UNL     1      -4.502  11.217  16.507  0.00  0.00    +0.000 A 
ATOM     15  C   UNL     1      -3.562  10.431  15.843  0.00  0.00    +0.000 A 
ATOM     16  C   UNL     1      -2.346  10.121  16.455  0.00  0.00    +0.000 A 
ENDBRANCH   8  11
ENDBRANCH   6   9
ENDBRANCH   5   6
ENDBRANCH   4   5
ENDBRANCH   3   4
ENDBRANCH   1   3
BRANCH   1  17
ATOM     17  C   UNL     1       6.308   5.725  16.711  0.00  0.00    +0.000 C 
BRANCH  17  18
ATOM     18  C   UNL     1       5.388   4.999  15.739  0.00  0.00    +0.000 C 
BRANCH  18  19
ATOM     19  C   UNL     1       5.262   3.517  16.110  0.00  0.00    +0.000 C 
BRANCH  19  20
ATOM     20  N   UNL     1       4.662   3.380  17.423  0.00  0.00    +0.000 N 
ATOM     21  C   UNL     1       3.313   3.299  17.596  0.00  0.00    +0.000 C 
ATOM     22  O   UNL     1       2.578   3.350  16.619  0.00  0.00    +0.000 OA
ATOM     23  H   UNL     1       5.296   3.339  18.228  0.00  0.00    +0.000 HD
BRANCH  21  24
ATOM     24  C   UNL     1       2.698   3.143  18.956  0.00  0.00    +0.000 A 
ATOM     25  C   UNL     1       3.463   2.833  20.105  0.00  0.00    +0.000 A 
ATOM     26  C   UNL     1       2.852   2.692  21.353  0.00  0.00    +0.000 A 
ATOM     27  C   UNL     1       1.475   2.854  21.483  0.00  0.00    +0.000 A 
ATOM     28  C   UNL     1       0.702   3.160  20.363  0.00  0.00    +0.000 A 
ATOM     29  C   UNL     1       1.304   3.305  19.110  0.00  0.00    +0.000 A 
ENDBRANCH  21  24
ENDBRANCH  19  20
ENDBRANCH  18  19
ENDBRANCH  17  18
ENDBRANCH   1  17
TORSDOF 11
ENDMDL
MODEL 8
REMARK VINA RESULT:      -6.8      1.311      1.660
REMARK  Name = 
REMARK  11 active torsions:
REMARK  status: ('A' for Active; 'I' for Inactive)
REMARK    1  A    between atoms: C_2  and  C_21
REMARK    2  A    between atoms: N_3  and  C_4
REMARK    3  A    between atoms: C_4  and  C_5
REMARK    4  A    between atoms: C_5  and  C_6
REMARK    5  A    between atoms: C_6  and  C_7
REMARK    6  A    between atoms: C_7  and  N_8
REMARK    7  A    between atoms: N_8  and  C_9
REMARK    8  A    between atoms: C_9  and  C_10
REMARK    9  A    between atoms: C_10  and  C_11
REMARK   10  A    between atoms: C_11  and  N_12
REMARK   11  A    between atoms: C_13  and  C_15
REMARK                            x       y       z     vdW  Elec       q    Type
REMARK                         _______ _______ _______ _____ _____    ______ ____
ROOT
ATOM      1  N   UNL     1       1.196   4.403  19.974  0.00  0.00    +0.000 NA
ATOM      2  H   UNL     1       1.445   4.167  18.983  0.00  0.00    +0.000 HD
ENDROOT
BRANCH   1   3
ATOM      3  C   UNL     1       2.180   5.360  20.483  0.00  0.00    +0.000 C 
BRANCH   3   4
ATOM      4  C   UNL     1       2.014   6.722  19.802  0.00  0.00    +0.000 C 
BRANCH   4   5
ATOM      5  C   UNL     1       2.941   6.881  18.588  0.00  0.00    +0.000 C 
BRANCH   5   6
ATOM      6  C   UNL     1       2.753   8.221  17.854  0.00  0.00    +0.000 C 
BRANCH   6   9
ATOM      7  O   UNL     1       1.948  10.781  18.357  0.00  0.00    +0.000 OA
ATOM      8  C   UNL     1       1.051   9.962  18.194  0.00  0.00    +0.000 C 
ATOM      9  N   UNL     1       1.375   8.661  17.935  0.00  0.00    +0.000 N 
ATOM     10  H   UNL     1       0.643   7.958  17.784  0.00  0.00    +0.000 HD
BRANCH   8  11
ATOM     11  C   UNL     1      -0.372  10.427  18.271  0.00  0.00    +0.000 A 
ATOM     12  C   UNL     1      -1.328   9.886  17.384  0.00  0.00    +0.000 A 
ATOM     13  C   UNL     1      -2.667  10.287  17.445  0.00  0.00    +0.000 A 
ATOM     14  C   UNL     1      -3.073  11.233  18.384  0.00  0.00    +0.000 A 
ATOM     15  C   UNL     1      -2.142  11.785  19.263  0.00  0.00    +0.000 A 
ATOM     16  C   UNL     1      -0.805  11.389  19.211  0.00  0.00    +0.000 A 
ENDBRANCH   8  11
ENDBRANCH   6   9
ENDBRANCH   5   6
ENDBRANCH   4   5
ENDBRANCH   3   4
ENDBRANCH   1   3
BRANCH   1  17
ATOM     17  C   UNL     1       1.260   3.176  20.774  0.00  0.00    +0.000 C 
BRANCH  17  18
ATOM     18  C   UNL     1       2.638   2.540  20.658  0.00  0.00    +0.000 C 
BRANCH  18  19
ATOM     19  C   UNL     1       2.819   1.875  19.288  0.00  0.00    +0.000 C 
BRANCH  19  20
ATOM     20  N   UNL     1       3.955   2.452  18.598  0.00  0.00    +0.000 N 
ATOM     21  C   UNL     1       3.806   3.386  17.617  0.00  0.00    +0.000 C 
ATOM     22  O   UNL     1       2.681   3.750  17.300  0.00  0.00    +0.000 OA
ATOM     23  H   UNL     1       4.889   2.134  18.879  0.00  0.00    +0.000 HD
BRANCH  21  24
ATOM     24  C   UNL     1       4.986   3.991  16.914  0.00  0.00    +0.000 A 
ATOM     25  C   UNL     1       5.074   4.067  15.505  0.00  0.00    +0.000 A 
ATOM     26  C   UNL     1       6.191   4.633  14.888  0.00  0.00    +0.000 A 
ATOM     27  C   UNL     1       7.240   5.131  15.657  0.00  0.00    +0.000 A 
ATOM     28  C   UNL     1       7.175   5.067  17.048  0.00  0.00    +0.000 A 
ATOM     29  C   UNL     1       6.059   4.503  17.675  0.00  0.00    +0.000 A 
ENDBRANCH  21  24
ENDBRANCH  19  20
ENDBRANCH  18  19
ENDBRANCH  17  18
ENDBRANCH   1  17
TORSDOF 11
ENDMDL
MODEL 9
REMARK VINA RESULT:      -6.8      1.274      8.972
REMARK  Name = 
REMARK  11 active torsions:
REMARK  status: ('A' for Active; 'I' for Inactive)
REMARK    1  A    between atoms: C_2  and  C_21
REMARK    2  A    between atoms: N_3  and  C_4
REMARK    3  A    between atoms: C_4  and  C_5
REMARK    4  A    between atoms: C_5  and  C_6
REMARK    5  A    between atoms: C_6  and  C_7
REMARK    6  A    between atoms: C_7  and  N_8
REMARK    7  A    between atoms: N_8  and  C_9
REMARK    8  A    between atoms: C_9  and  C_10
REMARK    9  A    between atoms: C_10  and  C_11
REMARK   10  A    between atoms: C_11  and  N_12
REMARK   11  A    between atoms: C_13  and  C_15
REMARK                            x       y       z     vdW  Elec       q    Type
REMARK                         _______ _______ _______ _____ _____    ______ ____
ROOT
ATOM      1  N   UNL     1       2.529   6.353  20.389  0.00  0.00    +0.000 NA
ATOM      2  H   UNL     1       3.010   5.952  19.549  0.00  0.00    +0.000 HD
ENDROOT
BRANCH   1   3
ATOM      3  C   UNL     1       1.443   5.450  20.775  0.00  0.00    +0.000 C 
BRANCH   3   4
ATOM      4  C   UNL     1       1.932   3.999  20.815  0.00  0.00    +0.000 C 
BRANCH   4   5
ATOM      5  C   UNL     1       1.030   3.060  20.002  0.00  0.00    +0.000 C 
BRANCH   5   6
ATOM      6  C   UNL     1       1.139   3.280  18.482  0.00  0.00    +0.000 C 
BRANCH   6   9
ATOM      7  O   UNL     1       3.385   1.930  17.716  0.00  0.00    +0.000 OA
ATOM      8  C   UNL     1       3.489   3.149  17.770  0.00  0.00    +0.000 C 
ATOM      9  N   UNL     1       2.407   3.894  18.143  0.00  0.00    +0.000 N 
ATOM     10  H   UNL     1       2.464   4.918  18.186  0.00  0.00    +0.000 HD
BRANCH   8  11
ATOM     11  C   UNL     1       4.801   3.778  17.410  0.00  0.00    +0.000 A 
ATOM     12  C   UNL     1       5.616   4.316  18.429  0.00  0.00    +0.000 A 
ATOM     13  C   UNL     1       6.853   4.893  18.124  0.00  0.00    +0.000 A 
ATOM     14  C   UNL     1       7.295   4.947  16.803  0.00  0.00    +0.000 A 
ATOM     15  C   UNL     1       6.501   4.428  15.782  0.00  0.00    +0.000 A 
ATOM     16  C   UNL     1       5.266   3.849  16.076  0.00  0.00    +0.000 A 
ENDBRANCH   8  11
ENDBRANCH   6   9
ENDBRANCH   5   6
ENDBRANCH   4   5
ENDBRANCH   3   4
ENDBRANCH   1   3
BRANCH   1  17
ATOM     17  C   UNL     1       1.964   7.656  20.024  0.00  0.00    +0.000 C 
BRANCH  17  18
ATOM     18  C   UNL     1       1.216   8.258  21.206  0.00  0.00    +0.000 C 
BRANCH  18  19
ATOM     19  C   UNL     1       0.847   9.720  20.931  0.00  0.00    +0.000 C 
BRANCH  19  20
ATOM     20  N   UNL     1      -0.354   9.790  20.123  0.00  0.00    +0.000 N 
ATOM     21  C   UNL     1      -0.461  10.635  19.059  0.00  0.00    +0.000 C 
ATOM     22  O   UNL     1       0.480  11.365  18.775  0.00  0.00    +0.000 OA
ATOM     23  H   UNL     1      -1.130   9.170  20.378  0.00  0.00    +0.000 HD
BRANCH  21  24
ATOM     24  C   UNL     1      -1.701  10.694  18.217  0.00  0.00    +0.000 A 
ATOM     25  C   UNL     1      -2.806  11.513  18.548  0.00  0.00    +0.000 A 
ATOM     26  C   UNL     1      -3.945  11.536  17.741  0.00  0.00    +0.000 A 
ATOM     27  C   UNL     1      -4.009  10.749  16.594  0.00  0.00    +0.000 A 
ATOM     28  C   UNL     1      -2.932   9.933  16.248  0.00  0.00    +0.000 A 
ATOM     29  C   UNL     1      -1.786   9.904  17.050  0.00  0.00    +0.000 A 
ENDBRANCH  21  24
ENDBRANCH  19  20
ENDBRANCH  18  19
ENDBRANCH  17  18
ENDBRANCH   1  17
TORSDOF 11
ENDMDL
