MODEL 1
REMARK VINA RESULT:      -6.8      0.000      0.000
REMARK  Name = 
REMARK  7 active torsions:
REMARK  status: ('A' for Active; 'I' for Inactive)
REMARK    1  A    between atoms: C_1  and  C_2
REMARK    2  A    between atoms: C_2  and  C_3
REMARK    3  A    between atoms: C_3  and  C_4
REMARK    4  A    between atoms: C_4  and  N_5
REMARK    5  A    between atoms: N_8  and  N_9
REMARK    6  A    between atoms: C_10  and  C_11
REMARK    7  A    between atoms: C_16  and  C_17
REMARK                            x       y       z     vdW  Elec       q    Type
REMARK                         _______ _______ _______ _____ _____    ______ ____
ROOT
ATOM      1  N   UNL     1       2.932   2.378  18.857  0.00  0.00    +0.000 N 
ATOM      2  C   UNL     1       3.332   3.103  17.765  0.00  0.00    +0.000 C 
ATOM      3  O   UNL     1       2.551   3.412  16.870  0.00  0.00    +0.000 OA
ATOM      4  N   UNL     1       4.665   3.483  17.817  0.00  0.00    +0.000 N 
ATOM      5  H   UNL     1       3.599   2.110  19.566  0.00  0.00    +0.000 HD
ATOM      6  H   UNL     1       5.300   2.892  18.344  0.00  0.00    +0.000 HD
ENDROOT
BRANCH   4   7
ATOM      7  N   UNL     1       5.282   4.231  16.833  0.00  0.00    +0.000 NA
ATOM      8  C   UNL     1       5.876   3.567  15.891  0.00  0.00    +0.000 C 
BRANCH   8   9
ATOM      9  C   UNL     1       6.588   4.267  14.841  0.00  0.00    +0.000 A 
ATOM     10  N   UNL     1       7.516   5.174  15.167  0.00  0.00    +0.000 NA
ATOM     11  O   UNL     1       8.048   5.653  13.975  0.00  0.00    +0.000 OA
ATOM     12  N   UNL     1       7.375   4.967  12.905  0.00  0.00    +0.000 N 
ATOM     13  O   UNL     1       7.740   5.251  11.743  0.00  0.00    +0.000 OA
ATOM     14  C   UNL     1       6.485   4.138  13.441  0.00  0.00    +0.000 A 
ATOM     15  C   UNL     1       5.631   3.290  12.601  0.00  0.00    +0.000 C 
ENDBRANCH   8   9
ENDBRANCH   4   7
BRANCH   1  16
ATOM     16  C   UNL     1       1.541   2.002  19.010  0.00  0.00    +0.000 C 
BRANCH  16  17
ATOM     17  C   UNL     1       0.716   3.042  19.769  0.00  0.00    +0.000 C 
BRANCH  17  19
ATOM     18  C   UNL     1       1.709   5.135  20.776  0.00  0.00    +0.000 C 
ATOM     19  C   UNL     1       1.489   3.640  20.945  0.00  0.00    +0.000 C 
ENDBRANCH  17  19
ENDBRANCH  16  17
ENDBRANCH   1  16
TORSDOF 5
ENDMDL
MODEL 2
REMARK VINA RESULT:      -6.5      1.227      1.717
REMARK  Name = 
REMARK  7 active torsions:
REMARK  status: ('A' for Active; 'I' for Inactive)
REMARK    1  A    between atoms: C_1  and  C_2
REMARK    2  A    between atoms: C_2  and  C_3
REMARK    3  A    between atoms: C_3  and  C_4
REMARK    4  A    between atoms: C_4  and  N_5
REMARK    5  A    between atoms: N_8  and  N_9
REMARK    6  A    between atoms: C_10  and  C_11
REMARK    7  A    between atoms: C_16  and  C_17
REMARK                            x       y       z     vdW  Elec       q    Type
REMARK                         _______ _______ _______ _____ _____    ______ ____
ROOT
ATOM      1  N   UNL     1       3.573   4.052  19.955  0.00  0.00    +0.000 N 
ATOM      2  C   UNL     1       4.224   4.691  18.931  0.00  0.00    +0.000 C 
ATOM      3  O   UNL     1       3.920   5.826  18.577  0.00  0.00    +0.000 OA
ATOM      4  N   UNL     1       5.269   3.950  18.400  0.00  0.00    +0.000 N 
ATOM      5  H   UNL     1       3.822   3.108  20.209  0.00  0.00    +0.000 HD
ATOM      6  H   UNL     1       5.206   2.940  18.462  0.00  0.00    +0.000 HD
ENDROOT
BRANCH   4   7
ATOM      7  N   UNL     1       6.074   4.399  17.370  0.00  0.00    +0.000 NA
ATOM      8  C   UNL     1       5.669   4.136  16.166  0.00  0.00    +0.000 C 
BRANCH   8   9
ATOM      9  C   UNL     1       6.471   4.529  15.024  0.00  0.00    +0.000 A 
ATOM     10  N   UNL     1       7.527   5.330  15.206  0.00  0.00    +0.000 NA
ATOM     11  O   UNL     1       8.116   5.509  13.959  0.00  0.00    +0.000 OA
ATOM     12  N   UNL     1       7.339   4.756  13.012  0.00  0.00    +0.000 N 
ATOM     13  O   UNL     1       7.734   4.776  11.824  0.00  0.00    +0.000 OA
ATOM     14  C   UNL     1       6.338   4.176  13.666  0.00  0.00    +0.000 A 
ATOM     15  C   UNL     1       5.361   3.332  12.969  0.00  0.00    +0.000 C 
ENDBRANCH   8   9
ENDBRANCH   4   7
BRANCH   1  16
ATOM     16  C   UNL     1       2.531   4.737  20.692  0.00  0.00    +0.000 C 
BRANCH  16  17
ATOM     17  C   UNL     1       1.249   3.916  20.828  0.00  0.00    +0.000 C 
BRANCH  17  19
ATOM     18  C   UNL     1       0.709   2.388  18.891  0.00  0.00    +0.000 C 
ATOM     19  C   UNL     1       1.401   2.514  20.239  0.00  0.00    +0.000 C 
ENDBRANCH  17  19
ENDBRANCH  16  17
ENDBRANCH   1  16
TORSDOF 5
ENDMDL
MODEL 3
REMARK VINA RESULT:      -6.4      2.386      7.632
REMARK  Name = 
REMARK  7 active torsions:
REMARK  status: ('A' for Active; 'I' for Inactive)
REMARK    1  A    between atoms: C_1  and  C_2
REMARK    2  A    between atoms: C_2  and  C_3
REMARK    3  A    between atoms: C_3  and  C_4
REMARK    4  A    between atoms: C_4  and  N_5
REMARK    5  A    between atoms: N_8  and  N_9
REMARK    6  A    between atoms: C_10  and  C_11
REMARK    7  A    between atoms: C_16  and  C_17
REMARK                            x       y       z     vdW  Elec       q    Type
REMARK                         _______ _______ _______ _____ _____    ______ ____
ROOT
ATOM      1  N   UNL     1       5.590   4.407  14.287  0.00  0.00    +0.000 N 
ATOM      2  C   UNL     1       5.534   4.223  15.644  0.00  0.00    +0.000 C 
ATOM      3  O   UNL     1       6.545   4.035  16.316  0.00  0.00    +0.000 OA
ATOM      4  N   UNL     1       4.251   4.329  16.160  0.00  0.00    +0.000 N 
ATOM      5  H   UNL     1       4.743   4.532  13.753  0.00  0.00    +0.000 HD
ATOM      6  H   UNL     1       3.479   4.097  15.544  0.00  0.00    +0.000 HD
ENDROOT
BRANCH   4   7
ATOM      7  N   UNL     1       3.957   4.194  17.503  0.00  0.00    +0.000 NA
ATOM      8  C   UNL     1       3.933   2.984  17.969  0.00  0.00    +0.000 C 
BRANCH   8   9
ATOM      9  C   UNL     1       3.590   2.742  19.356  0.00  0.00    +0.000 A 
ATOM     10  N   UNL     1       4.499   2.197  20.174  0.00  0.00    +0.000 NA
ATOM     11  O   UNL     1       3.911   2.114  21.431  0.00  0.00    +0.000 OA
ATOM     12  N   UNL     1       2.581   2.648  21.313  0.00  0.00    +0.000 N 
ATOM     13  O   UNL     1       1.897   2.679  22.360  0.00  0.00    +0.000 OA
ATOM     14  C   UNL     1       2.393   3.015  20.050  0.00  0.00    +0.000 A 
ATOM     15  C   UNL     1       1.123   3.602  19.608  0.00  0.00    +0.000 C 
ENDBRANCH   8   9
ENDBRANCH   4   7
BRANCH   1  16
ATOM     16  C   UNL     1       6.871   4.441  13.611  0.00  0.00    +0.000 C 
BRANCH  16  17
ATOM     17  C   UNL     1       6.828   3.840  12.206  0.00  0.00    +0.000 C 
BRANCH  17  19
ATOM     18  C   UNL     1       5.770   1.703  11.372  0.00  0.00    +0.000 C 
ATOM     19  C   UNL     1       5.522   3.089  11.944  0.00  0.00    +0.000 C 
ENDBRANCH  17  19
ENDBRANCH  16  17
ENDBRANCH   1  16
TORSDOF 5
ENDMDL
MODEL 4
REMARK VINA RESULT:      -6.2      2.314      7.193
REMARK  Name = 
REMARK  7 active torsions:
REMARK  status: ('A' for Active; 'I' for Inactive)
REMARK    1  A    between atoms: C_1  and  C_2
REMARK    2  A    between atoms: C_2  and  C_3
REMARK    3  A    between atoms: C_3  and  C_4
REMARK    4  A    between atoms: C_4  and  N_5
REMARK    5  A    between atoms: N_8  and  N_9
REMARK    6  A    between atoms: C_10  and  C_11
REMARK    7  A    between atoms: C_16  and  C_17
REMARK                            x       y       z     vdW  Elec       q    Type
REMARK                         _______ _______ _______ _____ _____    ______ ____
ROOT
ATOM      1  N   UNL     1       6.548   3.261  13.728  0.00  0.00    +0.000 N 
ATOM      2  C   UNL     1       5.890   4.016  14.665  0.00  0.00    +0.000 C 
ATOM      3  O   UNL     1       5.215   4.993  14.354  0.00  0.00    +0.000 OA
ATOM      4  N   UNL     1       6.026   3.528  15.956  0.00  0.00    +0.000 N 
ATOM      5  H   UNL     1       7.120   2.480  14.011  0.00  0.00    +0.000 HD
ATOM      6  H   UNL     1       6.864   2.998  16.170  0.00  0.00    +0.000 HD
ENDROOT
BRANCH   4   7
ATOM      7  N   UNL     1       5.438   4.117  17.059  0.00  0.00    +0.000 NA
ATOM      8  C   UNL     1       4.293   3.632  17.429  0.00  0.00    +0.000 C 
BRANCH   8   9
ATOM      9  C   UNL     1       3.580   4.216  18.548  0.00  0.00    +0.000 A 
ATOM     10  N   UNL     1       4.187   5.135  19.307  0.00  0.00    +0.000 NA
ATOM     11  O   UNL     1       3.266   5.535  20.269  0.00  0.00    +0.000 OA
ATOM     12  N   UNL     1       2.059   4.790  20.035  0.00  0.00    +0.000 N 
ATOM     13  O   UNL     1       1.096   5.033  20.796  0.00  0.00    +0.000 OA
ATOM     14  C   UNL     1       2.264   3.986  18.997  0.00  0.00    +0.000 A 
ATOM     15  C   UNL     1       1.210   3.089  18.508  0.00  0.00    +0.000 C 
ENDBRANCH   8   9
ENDBRANCH   4   7
BRANCH   1  16
ATOM     16  C   UNL     1       6.411   3.572  12.320  0.00  0.00    +0.000 C 
BRANCH  16  17
ATOM     17  C   UNL     1       5.305   2.774  11.630  0.00  0.00    +0.000 C 
BRANCH  17  19
ATOM     18  C   UNL     1       3.236   3.099  10.217  0.00  0.00    +0.000 C 
ATOM     19  C   UNL     1       4.054   3.619  11.389  0.00  0.00    +0.000 C 
ENDBRANCH  17  19
ENDBRANCH  16  17
ENDBRANCH   1  16
TORSDOF 5
ENDMDL
MODEL 5
REMARK VINA RESULT:      -6.0      2.898      7.221
REMARK  Name = 
REMARK  7 active torsions:
REMARK  status: ('A' for Active; 'I' for Inactive)
REMARK    1  A    between atoms: C_1  and  C_2
REMARK    2  A    between atoms: C_2  and  C_3
REMARK    3  A    between atoms: C_3  and  C_4
REMARK    4  A    between atoms: C_4  and  N_5
REMARK    5  A    between atoms: N_8  and  N_9
REMARK    6  A    between atoms: C_10  and  C_11
REMARK    7  A    between atoms: C_16  and  C_17
REMARK                            x       y       z     vdW  Elec       q    Type
REMARK                         _______ _______ _______ _____ _____    ______ ____
ROOT
ATOM      1  N   UNL     1       6.312   3.556  14.343  0.00  0.00    +0.000 N 
ATOM      2  C   UNL     1       5.739   4.442  15.218  0.00  0.00    +0.000 C 
ATOM      3  O   UNL     1       5.307   5.530  14.850  0.00  0.00    +0.000 OA
ATOM      4  N   UNL     1       5.654   3.956  16.514  0.00  0.00    +0.000 N 
ATOM      5  H   UNL     1       6.686   2.679  14.674  0.00  0.00    +0.000 HD
ATOM      6  H   UNL     1       6.344   3.270  16.803  0.00  0.00    +0.000 HD
ENDROOT
BRANCH   4   7
ATOM      7  N   UNL     1       5.099   4.668  17.560  0.00  0.00    +0.000 NA
ATOM      8  C   UNL     1       3.818   4.548  17.723  0.00  0.00    +0.000 C 
BRANCH   8   9
ATOM      9  C   UNL     1       3.142   5.293  18.766  0.00  0.00    +0.000 A 
ATOM     10  N   UNL     1       2.845   4.686  19.922  0.00  0.00    +0.000 NA
ATOM     11  O   UNL     1       2.238   5.638  20.733  0.00  0.00    +0.000 OA
ATOM     12  N   UNL     1       2.191   6.865  19.984  0.00  0.00    +0.000 N 
ATOM     13  O   UNL     1       1.694   7.855  20.564  0.00  0.00    +0.000 OA
ATOM     14  C   UNL     1       2.731   6.641  18.790  0.00  0.00    +0.000 A 
ATOM     15  C   UNL     1       2.830   7.708  17.787  0.00  0.00    +0.000 C 
ENDBRANCH   8   9
ENDBRANCH   4   7
BRANCH   1  16
ATOM     16  C   UNL     1       6.371   3.867  12.930  0.00  0.00    +0.000 C 
BRANCH  16  17
ATOM     17  C   UNL     1       5.456   2.985  12.079  0.00  0.00    +0.000 C 
BRANCH  17  19
ATOM     18  C   UNL     1       3.287   2.929  10.787  0.00  0.00    +0.000 C 
ATOM     19  C   UNL     1       4.402   3.804  11.335  0.00  0.00    +0.000 C 
ENDBRANCH  17  19
ENDBRANCH  16  17
ENDBRANCH   1  16
TORSDOF 5
ENDMDL
MODEL 6
REMARK VINA RESULT:      -6.0      1.296      1.434
REMARK  Name = 
REMARK  7 active torsions:
REMARK  status: ('A' for Active; 'I' for Inactive)
REMARK    1  A    between atoms: C_1  and  C_2
REMARK    2  A    between atoms: C_2  and  C_3
REMARK    3  A    between atoms: C_3  and  C_4
REMARK    4  A    between atoms: C_4  and  N_5
REMARK    5  A    between atoms: N_8  and  N_9
REMARK    6  A    between atoms: C_10  and  C_11
REMARK    7  A    between atoms: C_16  and  C_17
REMARK                            x       y       z     vdW  Elec       q    Type
REMARK                         _______ _______ _______ _____ _____    ______ ____
ROOT
ATOM      1  N   UNL     1       3.364   3.051  19.461  0.00  0.00    +0.000 N 
ATOM      2  C   UNL     1       4.394   3.683  18.814  0.00  0.00    +0.000 C 
ATOM      3  O   UNL     1       5.462   3.921  19.372  0.00  0.00    +0.000 OA
ATOM      4  N   UNL     1       4.119   3.961  17.484  0.00  0.00    +0.000 N 
ATOM      5  H   UNL     1       2.486   2.893  18.991  0.00  0.00    +0.000 HD
ATOM      6  H   UNL     1       3.147   4.094  17.225  0.00  0.00    +0.000 HD
ENDROOT
BRANCH   4   7
ATOM      7  N   UNL     1       5.015   4.580  16.633  0.00  0.00    +0.000 NA
ATOM      8  C   UNL     1       5.333   3.928  15.559  0.00  0.00    +0.000 C 
BRANCH   8   9
ATOM      9  C   UNL     1       6.300   4.478  14.630  0.00  0.00    +0.000 A 
ATOM     10  N   UNL     1       7.248   5.308  15.081  0.00  0.00    +0.000 NA
ATOM     11  O   UNL     1       8.040   5.647  13.990  0.00  0.00    +0.000 OA
ATOM     12  N   UNL     1       7.502   4.960  12.847  0.00  0.00    +0.000 N 
ATOM     13  O   UNL     1       8.103   5.125  11.762  0.00  0.00    +0.000 OA
ATOM     14  C   UNL     1       6.441   4.264  13.243  0.00  0.00    +0.000 A 
ATOM     15  C   UNL     1       5.667   3.450  12.299  0.00  0.00    +0.000 C 
ENDBRANCH   8   9
ENDBRANCH   4   7
BRANCH   1  16
ATOM     16  C   UNL     1       3.537   2.591  20.823  0.00  0.00    +0.000 C 
BRANCH  16  17
ATOM     17  C   UNL     1       2.266   2.710  21.666  0.00  0.00    +0.000 C 
BRANCH  17  19
ATOM     18  C   UNL     1       1.260   4.765  20.596  0.00  0.00    +0.000 C 
ATOM     19  C   UNL     1       1.096   3.277  20.862  0.00  0.00    +0.000 C 
ENDBRANCH  17  19
ENDBRANCH  16  17
ENDBRANCH   1  16
TORSDOF 5
ENDMDL
MODEL 7
REMARK VINA RESULT:      -6.0      2.416      7.373
REMARK  Name = 
REMARK  7 active torsions:
REMARK  status: ('A' for Active; 'I' for Inactive)
REMARK    1  A    between atoms: C_1  and  C_2
REMARK    2  A    between atoms: C_2  and  C_3
REMARK    3  A    between atoms: C_3  and  C_4
REMARK    4  A    between atoms: C_4  and  N_5
REMARK    5  A    between atoms: N_8  and  N_9
REMARK    6  A    between atoms: C_10  and  C_11
REMARK    7  A    between atoms: C_16  and  C_17
REMARK                            x       y       z     vdW  Elec       q    Type
REMARK                         _______ _______ _______ _____ _____    ______ ____
ROOT
ATOM      1  N   UNL     1       6.491   3.436  13.884  0.00  0.00    +0.000 N 
ATOM      2  C   UNL     1       5.793   4.041  14.896  0.00  0.00    +0.000 C 
ATOM      3  O   UNL     1       5.044   4.993  14.689  0.00  0.00    +0.000 OA
ATOM      4  N   UNL     1       5.979   3.437  16.130  0.00  0.00    +0.000 N 
ATOM      5  H   UNL     1       7.123   2.674  14.082  0.00  0.00    +0.000 HD
ATOM      6  H   UNL     1       6.856   2.951  16.285  0.00  0.00    +0.000 HD
ENDROOT
BRANCH   4   7
ATOM      7  N   UNL     1       5.364   3.867  17.290  0.00  0.00    +0.000 NA
ATOM      8  C   UNL     1       4.245   3.287  17.597  0.00  0.00    +0.000 C 
BRANCH   8   9
ATOM      9  C   UNL     1       3.506   3.703  18.772  0.00  0.00    +0.000 A 
ATOM     10  N   UNL     1       2.664   4.741  18.686  0.00  0.00    +0.000 NA
ATOM     11  O   UNL     1       2.079   4.889  19.939  0.00  0.00    +0.000 OA
ATOM     12  N   UNL     1       2.628   3.865  20.787  0.00  0.00    +0.000 N 
ATOM     13  O   UNL     1       2.199   3.824  21.961  0.00  0.00    +0.000 OA
ATOM     14  C   UNL     1       3.499   3.160  20.073  0.00  0.00    +0.000 A 
ATOM     15  C   UNL     1       4.234   2.035  20.662  0.00  0.00    +0.000 C 
ENDBRANCH   8   9
ENDBRANCH   4   7
BRANCH   1  16
ATOM     16  C   UNL     1       6.315   3.876  12.515  0.00  0.00    +0.000 C 
BRANCH  16  17
ATOM     17  C   UNL     1       5.483   2.909  11.672  0.00  0.00    +0.000 C 
BRANCH  17  19
ATOM     18  C   UNL     1       3.608   3.749  10.202  0.00  0.00    +0.000 C 
ATOM     19  C   UNL     1       4.013   3.327  11.605  0.00  0.00    +0.000 C 
ENDBRANCH  17  19
ENDBRANCH  16  17
ENDBRANCH   1  16
TORSDOF 5
ENDMDL
MODEL 8
REMARK VINA RESULT:      -6.0      1.019      1.120
REMARK  Name = 
REMARK  7 active torsions:
REMARK  status: ('A' for Active; 'I' for Inactive)
REMARK    1  A    between atoms: C_1  and  C_2
REMARK    2  A    between atoms: C_2  and  C_3
REMARK    3  A    between atoms: C_3  and  C_4
REMARK    4  A    between atoms: C_4  and  N_5
REMARK    5  A    between atoms: N_8  and  N_9
REMARK    6  A    between atoms: C_10  and  C_11
REMARK    7  A    between atoms: C_16  and  C_17
REMARK                            x       y       z     vdW  Elec       q    Type
REMARK                         _______ _______ _______ _____ _____    ______ ____
ROOT
ATOM      1  N   UNL     1       2.065   1.836  18.649  0.00  0.00    +0.000 N 
ATOM      2  C   UNL     1       2.753   2.493  17.662  0.00  0.00    +0.000 C 
ATOM      3  O   UNL     1       2.216   3.335  16.948  0.00  0.00    +0.000 OA
ATOM      4  N   UNL     1       4.094   2.146  17.605  0.00  0.00    +0.000 N 
ATOM      5  H   UNL     1       2.519   1.126  19.204  0.00  0.00    +0.000 HD
ATOM      6  H   UNL     1       4.353   1.221  17.929  0.00  0.00    +0.000 HD
ENDROOT
BRANCH   4   7
ATOM      7  N   UNL     1       4.984   2.692  16.699  0.00  0.00    +0.000 NA
ATOM      8  C   UNL     1       5.305   3.935  16.886  0.00  0.00    +0.000 C 
BRANCH   8   9
ATOM      9  C   UNL     1       6.197   4.605  15.961  0.00  0.00    +0.000 A 
ATOM     10  N   UNL     1       7.136   5.433  16.435  0.00  0.00    +0.000 NA
ATOM     11  O   UNL     1       7.853   5.899  15.338  0.00  0.00    +0.000 OA
ATOM     12  N   UNL     1       7.279   5.291  14.168  0.00  0.00    +0.000 N 
ATOM     13  O   UNL     1       7.812   5.576  13.072  0.00  0.00    +0.000 OA
ATOM     14  C   UNL     1       6.269   4.519  14.555  0.00  0.00    +0.000 A 
ATOM     15  C   UNL     1       5.476   3.757  13.584  0.00  0.00    +0.000 C 
ENDBRANCH   8   9
ENDBRANCH   4   7
BRANCH   1  16
ATOM     16  C   UNL     1       0.680   2.169  18.914  0.00  0.00    +0.000 C 
BRANCH  16  17
ATOM     17  C   UNL     1       0.515   3.321  19.907  0.00  0.00    +0.000 C 
BRANCH  17  19
ATOM     18  C   UNL     1       2.250   4.624  21.200  0.00  0.00    +0.000 C 
ATOM     19  C   UNL     1       1.569   3.278  21.014  0.00  0.00    +0.000 C 
ENDBRANCH  17  19
ENDBRANCH  16  17
ENDBRANCH   1  16
TORSDOF 5
ENDMDL
MODEL 9
REMARK VINA RESULT:      -6.0      4.403      7.686
REMARK  Name = 
REMARK  7 active torsions:
REMARK  status: ('A' for Active; 'I' for Inactive)
REMARK    1  A    between atoms: C_1  and  C_2
REMARK    2  A    between atoms: C_2  and  C_3
REMARK    3  A    between atoms: C_3  and  C_4
REMARK    4  A    between atoms: C_4  and  N_5
REMARK    5  A    between atoms: N_8  and  N_9
REMARK    6  A    between atoms: C_10  and  C_11
REMARK    7  A    between atoms: C_16  and  C_17
REMARK                            x       y       z     vdW  Elec       q    Type
REMARK                         _______ _______ _______ _____ _____    ______ ____
ROOT
ATOM      1  N   UNL     1       7.400   8.162  17.380  0.00  0.00    +0.000 N 
ATOM      2  C   UNL     1       6.788   6.965  17.649  0.00  0.00    +0.000 C 
ATOM      3  O   UNL     1       7.189   6.216  18.536  0.00  0.00    +0.000 OA
ATOM      4  N   UNL     1       5.667   6.733  16.866  0.00  0.00    +0.000 N 
ATOM      5  H   UNL     1       7.070   8.747  16.627  0.00  0.00    +0.000 HD
ATOM      6  H   UNL     1       5.637   7.170  15.950  0.00  0.00    +0.000 HD
ENDROOT
BRANCH   4   7
ATOM      7  N   UNL     1       4.885   5.599  16.972  0.00  0.00    +0.000 NA
ATOM      8  C   UNL     1       3.785   5.720  17.649  0.00  0.00    +0.000 C 
BRANCH   8   9
ATOM      9  C   UNL     1       2.923   4.573  17.852  0.00  0.00    +0.000 A 
ATOM     10  N   UNL     1       2.889   3.604  16.930  0.00  0.00    +0.000 NA
ATOM     11  O   UNL     1       2.013   2.632  17.399  0.00  0.00    +0.000 OA
ATOM     12  N   UNL     1       1.521   3.084  18.672  0.00  0.00    +0.000 N 
ATOM     13  O   UNL     1       0.727   2.321  19.267  0.00  0.00    +0.000 OA
ATOM     14  C   UNL     1       2.069   4.266  18.931  0.00  0.00    +0.000 A 
ATOM     15  C   UNL     1       1.762   4.995  20.168  0.00  0.00    +0.000 C 
ENDBRANCH   8   9
ENDBRANCH   4   7
BRANCH   1  16
ATOM     16  C   UNL     1       8.517   8.604  18.189  0.00  0.00    +0.000 C 
BRANCH  16  17
ATOM     17  C   UNL     1       8.668  10.125  18.229  0.00  0.00    +0.000 C 
BRANCH  17  19
ATOM     18  C   UNL     1      10.714  11.363  19.044  0.00  0.00    +0.000 C 
ATOM     19  C   UNL     1       9.469  10.590  19.446  0.00  0.00    +0.000 C 
ENDBRANCH  17  19
ENDBRANCH  16  17
ENDBRANCH   1  16
TORSDOF 5
ENDMDL
