MODEL 1
REMARK VINA RESULT:      -8.8      0.000      0.000
REMARK  Name = 
REMARK  10 active torsions:
REMARK  status: ('A' for Active; 'I' for Inactive)
REMARK    1  A    between atoms: C_1  and  C_2
REMARK    2  A    between atoms: C_3  and  C_4
REMARK    3  A    between atoms: N_6  and  C_7
REMARK    4  A    between atoms: C_11  and  C_12
REMARK    5  A    between atoms: C_18  and  C_19
REMARK    6  A    between atoms: C_19  and  C_20
REMARK    7  A    between atoms: C_19  and  C_21
REMARK    8  A    between atoms: C_19  and  C_22
REMARK    9  A    between atoms: N_23  and  C_24
REMARK   10  A    between atoms: C_27  and  N_28
REMARK                            x       y       z     vdW  Elec       q    Type
REMARK                         _______ _______ _______ _____ _____    ______ ____
ROOT
ATOM      1  C   UNL     1       1.356   5.118  17.805  0.00  0.00    +0.000 C 
ATOM      2  C   UNL     1       2.785   5.549  17.940  0.00  0.00    +0.000 A 
ATOM      3  C   UNL     1       3.174   6.860  18.195  0.00  0.00    +0.000 A 
ATOM      4  C   UNL     1       4.541   6.926  17.844  0.00  0.00    +0.000 A 
ATOM      5  C   UNL     1       4.997   5.653  17.485  0.00  0.00    +0.000 A 
ATOM      6  N   UNL     1       3.942   4.769  17.845  0.00  0.00    +0.000 N 
ENDROOT
BRANCH   6   7
ATOM      7  C   UNL     1       4.066   3.317  18.099  0.00  0.00    +0.000 C 
ATOM      8  C   UNL     1       4.455   2.972  19.558  0.00  0.00    +0.000 C 
ATOM      9  C   UNL     1       3.328   3.129  20.561  0.00  0.00    +0.000 C 
ATOM     10  C   UNL     1       2.168   2.205  20.229  0.00  0.00    +0.000 C 
ATOM     11  C   UNL     1       1.722   2.403  18.782  0.00  0.00    +0.000 C 
ATOM     12  C   UNL     1       2.883   2.361  17.774  0.00  0.00    +0.000 C 
BRANCH  10  13
ATOM     13  N   UNL     1       1.060   2.479  21.143  0.00  0.00    +0.000 NA
ATOM     14  H   UNL     1       1.260   3.335  21.665  0.00  0.00    +0.000 HD
ATOM     15  H   UNL     1       1.012   1.744  21.850  0.00  0.00    +0.000 HD
ENDBRANCH  10  13
ENDBRANCH   6   7
BRANCH   3  16
ATOM     16  C   UNL     1       2.252   7.884  18.694  0.00  0.00    +0.000 C 
ATOM     17  O   UNL     1       1.938   7.868  19.885  0.00  0.00    +0.000 OA
ATOM     18  N   UNL     1       1.738   8.770  17.759  0.00  0.00    +0.000 N 
ATOM     19  H   UNL     1       1.915   8.559  16.785  0.00  0.00    +0.000 HD
BRANCH  18  20
ATOM     20  C   UNL     1       0.848   9.836  18.058  0.00  0.00    +0.000 A 
ATOM     21  C   UNL     1       1.264  11.039  18.643  0.00  0.00    +0.000 A 
ATOM     22  C   UNL     1       0.366  12.067  18.938  0.00  0.00    +0.000 A 
ATOM     23  C   UNL     1      -0.980  11.915  18.640  0.00  0.00    +0.000 A 
ATOM     24  C   UNL     1      -1.441  10.735  18.043  0.00  0.00    +0.000 A 
ATOM     25  C   UNL     1      -0.516   9.700  17.753  0.00  0.00    +0.000 A 
BRANCH  24  26
ATOM     26  C   UNL     1      -2.906  10.574  17.724  0.00  0.00    +0.000 C 
ATOM     27  F   UNL     1      -3.232  10.942  16.452  0.00  0.00    +0.000 F 
ATOM     28  F   UNL     1      -3.327   9.286  17.854  0.00  0.00    +0.000 F 
ATOM     29  F   UNL     1      -3.704  11.315  18.540  0.00  0.00    +0.000 F 
ENDBRANCH  24  26
ENDBRANCH  18  20
ENDBRANCH   3  16
BRANCH   5  30
ATOM     30  C   UNL     1       6.351   5.328  16.781  0.00  0.00    +0.000 C 
ATOM     31  C   UNL     1       7.173   6.631  16.551  0.00  0.00    +0.000 C 
ATOM     32  C   UNL     1       7.308   4.416  17.558  0.00  0.00    +0.000 C 
ATOM     33  C   UNL     1       6.100   4.708  15.395  0.00  0.00    +0.000 C 
ENDBRANCH   5  30
TORSDOF 6
ENDMDL
MODEL 2
REMARK VINA RESULT:      -8.8      0.245      1.002
REMARK  Name = 
REMARK  10 active torsions:
REMARK  status: ('A' for Active; 'I' for Inactive)
REMARK    1  A    between atoms: C_1  and  C_2
REMARK    2  A    between atoms: C_3  and  C_4
REMARK    3  A    between atoms: N_6  and  C_7
REMARK    4  A    between atoms: C_11  and  C_12
REMARK    5  A    between atoms: C_18  and  C_19
REMARK    6  A    between atoms: C_19  and  C_20
REMARK    7  A    between atoms: C_19  and  C_21
REMARK    8  A    between atoms: C_19  and  C_22
REMARK    9  A    between atoms: N_23  and  C_24
REMARK   10  A    between atoms: C_27  and  N_28
REMARK                            x       y       z     vdW  Elec       q    Type
REMARK                         _______ _______ _______ _____ _____    ______ ____
ROOT
ATOM      1  C   UNL     1       1.346   5.052  17.838  0.00  0.00    +0.000 C 
ATOM      2  C   UNL     1       2.792   5.434  17.926  0.00  0.00    +0.000 A 
ATOM      3  C   UNL     1       3.234   6.735  18.147  0.00  0.00    +0.000 A 
ATOM      4  C   UNL     1       4.592   6.746  17.759  0.00  0.00    +0.000 A 
ATOM      5  C   UNL     1       4.993   5.452  17.412  0.00  0.00    +0.000 A 
ATOM      6  N   UNL     1       3.918   4.612  17.816  0.00  0.00    +0.000 N 
ENDROOT
BRANCH   6   7
ATOM      7  C   UNL     1       3.998   3.161  18.093  0.00  0.00    +0.000 C 
ATOM      8  C   UNL     1       4.383   2.827  19.555  0.00  0.00    +0.000 C 
ATOM      9  C   UNL     1       3.267   3.036  20.560  0.00  0.00    +0.000 C 
ATOM     10  C   UNL     1       2.077   2.144  20.249  0.00  0.00    +0.000 C 
ATOM     11  C   UNL     1       1.629   2.332  18.801  0.00  0.00    +0.000 C 
ATOM     12  C   UNL     1       2.784   2.237  17.788  0.00  0.00    +0.000 C 
BRANCH  10  13
ATOM     13  N   UNL     1       0.982   2.467  21.164  0.00  0.00    +0.000 NA
ATOM     14  H   UNL     1       1.341   3.052  21.921  0.00  0.00    +0.000 HD
ATOM     15  H   UNL     1       0.658   1.614  21.620  0.00  0.00    +0.000 HD
ENDBRANCH  10  13
ENDBRANCH   6   7
BRANCH   3  16
ATOM     16  C   UNL     1       2.363   7.799  18.653  0.00  0.00    +0.000 C 
ATOM     17  O   UNL     1       2.085   7.819  19.852  0.00  0.00    +0.000 OA
ATOM     18  N   UNL     1       1.849   8.683  17.715  0.00  0.00    +0.000 N 
ATOM     19  H   UNL     1       1.988   8.446  16.741  0.00  0.00    +0.000 HD
BRANCH  18  20
ATOM     20  C   UNL     1       1.005   9.784  18.017  0.00  0.00    +0.000 A 
ATOM     21  C   UNL     1       1.480  10.987  18.556  0.00  0.00    +0.000 A 
ATOM     22  C   UNL     1       0.626  12.051  18.856  0.00  0.00    +0.000 A 
ATOM     23  C   UNL     1      -0.735  11.936  18.611  0.00  0.00    +0.000 A 
ATOM     24  C   UNL     1      -1.253  10.757  18.061  0.00  0.00    +0.000 A 
ATOM     25  C   UNL     1      -0.373   9.685  17.765  0.00  0.00    +0.000 A 
BRANCH  24  26
ATOM     26  C   UNL     1      -2.733  10.636  17.798  0.00  0.00    +0.000 C 
ATOM     27  F   UNL     1      -3.207   9.362  17.914  0.00  0.00    +0.000 F 
ATOM     28  F   UNL     1      -3.477  11.384  18.658  0.00  0.00    +0.000 F 
ATOM     29  F   UNL     1      -3.078  11.046  16.547  0.00  0.00    +0.000 F 
ENDBRANCH  24  26
ENDBRANCH  18  20
ENDBRANCH   3  16
BRANCH   5  30
ATOM     30  C   UNL     1       6.316   5.067  16.678  0.00  0.00    +0.000 C 
ATOM     31  C   UNL     1       7.338   4.453  17.680  0.00  0.00    +0.000 C 
ATOM     32  C   UNL     1       6.187   4.005  15.579  0.00  0.00    +0.000 C 
ATOM     33  C   UNL     1       6.978   6.319  16.075  0.00  0.00    +0.000 C 
ENDBRANCH   5  30
TORSDOF 6
ENDMDL
MODEL 3
REMARK VINA RESULT:      -8.6      2.519      2.804
REMARK  Name = 
REMARK  10 active torsions:
REMARK  status: ('A' for Active; 'I' for Inactive)
REMARK    1  A    between atoms: C_1  and  C_2
REMARK    2  A    between atoms: C_3  and  C_4
REMARK    3  A    between atoms: N_6  and  C_7
REMARK    4  A    between atoms: C_11  and  C_12
REMARK    5  A    between atoms: C_18  and  C_19
REMARK    6  A    between atoms: C_19  and  C_20
REMARK    7  A    between atoms: C_19  and  C_21
REMARK    8  A    between atoms: C_19  and  C_22
REMARK    9  A    between atoms: N_23  and  C_24
REMARK   10  A    between atoms: C_27  and  N_28
REMARK                            x       y       z     vdW  Elec       q    Type
REMARK                         _______ _______ _______ _____ _____    ______ ____
ROOT
ATOM      1  C   UNL     1       1.526   5.036  17.731  0.00  0.00    +0.000 C 
ATOM      2  C   UNL     1       2.981   5.396  17.713  0.00  0.00    +0.000 A 
ATOM      3  C   UNL     1       3.450   6.705  17.693  0.00  0.00    +0.000 A 
ATOM      4  C   UNL     1       4.795   6.621  17.272  0.00  0.00    +0.000 A 
ATOM      5  C   UNL     1       5.165   5.277  17.144  0.00  0.00    +0.000 A 
ATOM      6  N   UNL     1       4.089   4.544  17.716  0.00  0.00    +0.000 N 
ENDROOT
BRANCH   6   7
ATOM      7  C   UNL     1       4.154   3.161  18.238  0.00  0.00    +0.000 C 
ATOM      8  C   UNL     1       4.324   3.084  19.775  0.00  0.00    +0.000 C 
ATOM      9  C   UNL     1       3.068   3.404  20.562  0.00  0.00    +0.000 C 
ATOM     10  C   UNL     1       1.954   2.424  20.235  0.00  0.00    +0.000 C 
ATOM     11  C   UNL     1       1.722   2.357  18.727  0.00  0.00    +0.000 C 
ATOM     12  C   UNL     1       3.015   2.150  17.920  0.00  0.00    +0.000 C 
BRANCH  10  13
ATOM     13  N   UNL     1       0.730   2.844  20.918  0.00  0.00    +0.000 NA
ATOM     14  H   UNL     1       0.325   2.040  21.403  0.00  0.00    +0.000 HD
ATOM     15  H   UNL     1       0.031   3.115  20.227  0.00  0.00    +0.000 HD
ENDBRANCH  10  13
ENDBRANCH   6   7
BRANCH   3  16
ATOM     16  C   UNL     1       2.612   7.860  18.030  0.00  0.00    +0.000 C 
ATOM     17  O   UNL     1       2.437   8.733  17.180  0.00  0.00    +0.000 OA
ATOM     18  N   UNL     1       2.123   7.920  19.327  0.00  0.00    +0.000 N 
ATOM     19  H   UNL     1       2.498   7.250  19.986  0.00  0.00    +0.000 HD
BRANCH  18  20
ATOM     20  C   UNL     1       1.284   8.949  19.829  0.00  0.00    +0.000 A 
ATOM     21  C   UNL     1       0.885  10.053  19.063  0.00  0.00    +0.000 A 
ATOM     22  C   UNL     1       0.068  11.059  19.585  0.00  0.00    +0.000 A 
ATOM     23  C   UNL     1      -0.380  10.974  20.895  0.00  0.00    +0.000 A 
ATOM     24  C   UNL     1      -0.018   9.883  21.695  0.00  0.00    +0.000 A 
ATOM     25  C   UNL     1       0.815   8.873  21.150  0.00  0.00    +0.000 A 
BRANCH  24  26
ATOM     26  C   UNL     1      -0.506   9.798  23.119  0.00  0.00    +0.000 C 
ATOM     27  F   UNL     1      -1.150  10.922  23.545  0.00  0.00    +0.000 F 
ATOM     28  F   UNL     1      -1.386   8.777  23.306  0.00  0.00    +0.000 F 
ATOM     29  F   UNL     1       0.505   9.592  24.007  0.00  0.00    +0.000 F 
ENDBRANCH  24  26
ENDBRANCH  18  20
ENDBRANCH   3  16
BRANCH   5  30
ATOM     30  C   UNL     1       6.458   4.744  16.452  0.00  0.00    +0.000 C 
ATOM     31  C   UNL     1       7.067   5.832  15.520  0.00  0.00    +0.000 C 
ATOM     32  C   UNL     1       7.612   4.366  17.389  0.00  0.00    +0.000 C 
ATOM     33  C   UNL     1       6.129   3.530  15.565  0.00  0.00    +0.000 C 
ENDBRANCH   5  30
TORSDOF 6
ENDMDL
MODEL 4
REMARK VINA RESULT:      -8.6      1.563      1.735
REMARK  Name = 
REMARK  10 active torsions:
REMARK  status: ('A' for Active; 'I' for Inactive)
REMARK    1  A    between atoms: C_1  and  C_2
REMARK    2  A    between atoms: C_3  and  C_4
REMARK    3  A    between atoms: N_6  and  C_7
REMARK    4  A    between atoms: C_11  and  C_12
REMARK    5  A    between atoms: C_18  and  C_19
REMARK    6  A    between atoms: C_19  and  C_20
REMARK    7  A    between atoms: C_19  and  C_21
REMARK    8  A    between atoms: C_19  and  C_22
REMARK    9  A    between atoms: N_23  and  C_24
REMARK   10  A    between atoms: C_27  and  N_28
REMARK                            x       y       z     vdW  Elec       q    Type
REMARK                         _______ _______ _______ _____ _____    ______ ____
ROOT
ATOM      1  C   UNL     1       1.413   5.067  17.733  0.00  0.00    +0.000 C 
ATOM      2  C   UNL     1       2.866   5.430  17.778  0.00  0.00    +0.000 A 
ATOM      3  C   UNL     1       3.331   6.738  17.859  0.00  0.00    +0.000 A 
ATOM      4  C   UNL     1       4.687   6.684  17.469  0.00  0.00    +0.000 A 
ATOM      5  C   UNL     1       5.065   5.354  17.260  0.00  0.00    +0.000 A 
ATOM      6  N   UNL     1       3.976   4.581  17.752  0.00  0.00    +0.000 N 
ENDROOT
BRANCH   6   7
ATOM      7  C   UNL     1       4.032   3.166  18.181  0.00  0.00    +0.000 C 
ATOM      8  C   UNL     1       4.302   2.985  19.694  0.00  0.00    +0.000 C 
ATOM      9  C   UNL     1       3.113   3.288  20.585  0.00  0.00    +0.000 C 
ATOM     10  C   UNL     1       1.949   2.362  20.275  0.00  0.00    +0.000 C 
ATOM     11  C   UNL     1       1.614   2.399  18.785  0.00  0.00    +0.000 C 
ATOM     12  C   UNL     1       2.843   2.209  17.879  0.00  0.00    +0.000 C 
BRANCH  10  13
ATOM     13  N   UNL     1       0.787   2.770  21.066  0.00  0.00    +0.000 NA
ATOM     14  H   UNL     1       0.730   3.790  21.075  0.00  0.00    +0.000 HD
ATOM     15  H   UNL     1       0.930   2.505  22.040  0.00  0.00    +0.000 HD
ENDBRANCH  10  13
ENDBRANCH   6   7
BRANCH   3  16
ATOM     16  C   UNL     1       2.480   7.866  18.251  0.00  0.00    +0.000 C 
ATOM     17  O   UNL     1       2.262   8.757  17.430  0.00  0.00    +0.000 OA
ATOM     18  N   UNL     1       2.031   7.882  19.563  0.00  0.00    +0.000 N 
ATOM     19  H   UNL     1       2.438   7.203  20.193  0.00  0.00    +0.000 HD
BRANCH  18  20
ATOM     20  C   UNL     1       1.186   8.880  20.117  0.00  0.00    +0.000 A 
ATOM     21  C   UNL     1       1.072   9.108  21.495  0.00  0.00    +0.000 A 
ATOM     22  C   UNL     1       0.224  10.088  22.016  0.00  0.00    +0.000 A 
ATOM     23  C   UNL     1      -0.528  10.877  21.158  0.00  0.00    +0.000 A 
ATOM     24  C   UNL     1      -0.437  10.695  19.772  0.00  0.00    +0.000 A 
ATOM     25  C   UNL     1       0.426   9.693  19.261  0.00  0.00    +0.000 A 
BRANCH  24  26
ATOM     26  C   UNL     1      -1.259  11.555  18.844  0.00  0.00    +0.000 C 
ATOM     27  F   UNL     1      -1.507  10.972  17.636  0.00  0.00    +0.000 F 
ATOM     28  F   UNL     1      -2.479  11.861  19.363  0.00  0.00    +0.000 F 
ATOM     29  F   UNL     1      -0.659  12.744  18.565  0.00  0.00    +0.000 F 
ENDBRANCH  24  26
ENDBRANCH  18  20
ENDBRANCH   3  16
BRANCH   5  30
ATOM     30  C   UNL     1       6.377   4.870  16.568  0.00  0.00    +0.000 C 
ATOM     31  C   UNL     1       7.010   6.022  15.733  0.00  0.00    +0.000 C 
ATOM     32  C   UNL     1       7.505   4.427  17.508  0.00  0.00    +0.000 C 
ATOM     33  C   UNL     1       6.075   3.722  15.589  0.00  0.00    +0.000 C 
ENDBRANCH   5  30
TORSDOF 6
ENDMDL
MODEL 5
REMARK VINA RESULT:      -8.5      1.572      1.942
REMARK  Name = 
REMARK  10 active torsions:
REMARK  status: ('A' for Active; 'I' for Inactive)
REMARK    1  A    between atoms: C_1  and  C_2
REMARK    2  A    between atoms: C_3  and  C_4
REMARK    3  A    between atoms: N_6  and  C_7
REMARK    4  A    between atoms: C_11  and  C_12
REMARK    5  A    between atoms: C_18  and  C_19
REMARK    6  A    between atoms: C_19  and  C_20
REMARK    7  A    between atoms: C_19  and  C_21
REMARK    8  A    between atoms: C_19  and  C_22
REMARK    9  A    between atoms: N_23  and  C_24
REMARK   10  A    between atoms: C_27  and  N_28
REMARK                            x       y       z     vdW  Elec       q    Type
REMARK                         _______ _______ _______ _____ _____    ______ ____
ROOT
ATOM      1  C   UNL     1       1.404   5.076  17.776  0.00  0.00    +0.000 C 
ATOM      2  C   UNL     1       2.857   5.439  17.773  0.00  0.00    +0.000 A 
ATOM      3  C   UNL     1       3.325   6.748  17.835  0.00  0.00    +0.000 A 
ATOM      4  C   UNL     1       4.668   6.693  17.401  0.00  0.00    +0.000 A 
ATOM      5  C   UNL     1       5.038   5.362  17.184  0.00  0.00    +0.000 A 
ATOM      6  N   UNL     1       3.967   4.591  17.714  0.00  0.00    +0.000 N 
ENDROOT
BRANCH   6   7
ATOM      7  C   UNL     1       4.037   3.177  18.145  0.00  0.00    +0.000 C 
ATOM      8  C   UNL     1       4.322   3.002  19.657  0.00  0.00    +0.000 C 
ATOM      9  C   UNL     1       3.138   3.298  20.557  0.00  0.00    +0.000 C 
ATOM     10  C   UNL     1       1.978   2.363  20.260  0.00  0.00    +0.000 C 
ATOM     11  C   UNL     1       1.630   2.394  18.773  0.00  0.00    +0.000 C 
ATOM     12  C   UNL     1       2.853   2.211  17.857  0.00  0.00    +0.000 C 
BRANCH  10  13
ATOM     13  N   UNL     1       0.821   2.764  21.060  0.00  0.00    +0.000 NA
ATOM     14  H   UNL     1       0.759   3.784  21.071  0.00  0.00    +0.000 HD
ATOM     15  H   UNL     1       0.972   2.499  22.033  0.00  0.00    +0.000 HD
ENDBRANCH  10  13
ENDBRANCH   6   7
BRANCH   3  16
ATOM     16  C   UNL     1       2.487   7.877  18.250  0.00  0.00    +0.000 C 
ATOM     17  O   UNL     1       2.293   8.796  17.453  0.00  0.00    +0.000 OA
ATOM     18  N   UNL     1       2.020   7.861  19.556  0.00  0.00    +0.000 N 
ATOM     19  H   UNL     1       2.409   7.157  20.170  0.00  0.00    +0.000 HD
BRANCH  18  20
ATOM     20  C   UNL     1       1.185   8.856  20.130  0.00  0.00    +0.000 A 
ATOM     21  C   UNL     1       1.099   9.079  21.510  0.00  0.00    +0.000 A 
ATOM     22  C   UNL     1       0.258  10.056  22.050  0.00  0.00    +0.000 A 
ATOM     23  C   UNL     1      -0.513  10.845  21.210  0.00  0.00    +0.000 A 
ATOM     24  C   UNL     1      -0.450  10.666  19.823  0.00  0.00    +0.000 A 
ATOM     25  C   UNL     1       0.405   9.668  19.291  0.00  0.00    +0.000 A 
BRANCH  24  26
ATOM     26  C   UNL     1      -1.293  11.525  18.914  0.00  0.00    +0.000 C 
ATOM     27  F   UNL     1      -2.543  11.774  19.400  0.00  0.00    +0.000 F 
ATOM     28  F   UNL     1      -0.736  12.747  18.689  0.00  0.00    +0.000 F 
ATOM     29  F   UNL     1      -1.478  10.965  17.687  0.00  0.00    +0.000 F 
ENDBRANCH  24  26
ENDBRANCH  18  20
ENDBRANCH   3  16
BRANCH   5  30
ATOM     30  C   UNL     1       6.328   4.876  16.452  0.00  0.00    +0.000 C 
ATOM     31  C   UNL     1       7.417   4.456  17.484  0.00  0.00    +0.000 C 
ATOM     32  C   UNL     1       6.165   3.641  15.557  0.00  0.00    +0.000 C 
ATOM     33  C   UNL     1       6.927   6.016  15.610  0.00  0.00    +0.000 C 
ENDBRANCH   5  30
TORSDOF 6
ENDMDL
MODEL 6
REMARK VINA RESULT:      -8.5      2.179      2.655
REMARK  Name = 
REMARK  10 active torsions:
REMARK  status: ('A' for Active; 'I' for Inactive)
REMARK    1  A    between atoms: C_1  and  C_2
REMARK    2  A    between atoms: C_3  and  C_4
REMARK    3  A    between atoms: N_6  and  C_7
REMARK    4  A    between atoms: C_11  and  C_12
REMARK    5  A    between atoms: C_18  and  C_19
REMARK    6  A    between atoms: C_19  and  C_20
REMARK    7  A    between atoms: C_19  and  C_21
REMARK    8  A    between atoms: C_19  and  C_22
REMARK    9  A    between atoms: N_23  and  C_24
REMARK   10  A    between atoms: C_27  and  N_28
REMARK                            x       y       z     vdW  Elec       q    Type
REMARK                         _______ _______ _______ _____ _____    ______ ____
ROOT
ATOM      1  C   UNL     1       1.329   5.081  17.825  0.00  0.00    +0.000 C 
ATOM      2  C   UNL     1       2.793   5.393  17.894  0.00  0.00    +0.000 A 
ATOM      3  C   UNL     1       3.299   6.671  18.107  0.00  0.00    +0.000 A 
ATOM      4  C   UNL     1       4.651   6.617  17.701  0.00  0.00    +0.000 A 
ATOM      5  C   UNL     1       4.985   5.305  17.350  0.00  0.00    +0.000 A 
ATOM      6  N   UNL     1       3.877   4.519  17.769  0.00  0.00    +0.000 N 
ENDROOT
BRANCH   6   7
ATOM      7  C   UNL     1       3.891   3.065  18.047  0.00  0.00    +0.000 C 
ATOM      8  C   UNL     1       4.334   2.712  19.488  0.00  0.00    +0.000 C 
ATOM      9  C   UNL     1       3.285   2.983  20.550  0.00  0.00    +0.000 C 
ATOM     10  C   UNL     1       2.033   2.158  20.304  0.00  0.00    +0.000 C 
ATOM     11  C   UNL     1       1.521   2.369  18.881  0.00  0.00    +0.000 C 
ATOM     12  C   UNL     1       2.614   2.210  17.810  0.00  0.00    +0.000 C 
BRANCH  10  13
ATOM     13  N   UNL     1       1.008   2.542  21.274  0.00  0.00    +0.000 NA
ATOM     14  H   UNL     1       0.084   2.401  20.859  0.00  0.00    +0.000 HD
ATOM     15  H   UNL     1       1.067   3.544  21.453  0.00  0.00    +0.000 HD
ENDBRANCH  10  13
ENDBRANCH   6   7
BRANCH   3  16
ATOM     16  C   UNL     1       2.486   7.777  18.622  0.00  0.00    +0.000 C 
ATOM     17  O   UNL     1       2.133   7.754  19.802  0.00  0.00    +0.000 OA
ATOM     18  N   UNL     1       2.109   8.752  17.711  0.00  0.00    +0.000 N 
ATOM     19  H   UNL     1       2.292   8.558  16.734  0.00  0.00    +0.000 HD
BRANCH  18  20
ATOM     20  C   UNL     1       1.339   9.902  18.027  0.00  0.00    +0.000 A 
ATOM     21  C   UNL     1      -0.058   9.882  18.133  0.00  0.00    +0.000 A 
ATOM     22  C   UNL     1      -0.793  11.031  18.433  0.00  0.00    +0.000 A 
ATOM     23  C   UNL     1      -0.138  12.234  18.648  0.00  0.00    +0.000 A 
ATOM     24  C   UNL     1       1.258  12.300  18.566  0.00  0.00    +0.000 A 
ATOM     25  C   UNL     1       1.990  11.125  18.256  0.00  0.00    +0.000 A 
BRANCH  24  26
ATOM     26  C   UNL     1       1.966  13.612  18.797  0.00  0.00    +0.000 C 
ATOM     27  F   UNL     1       1.138  14.695  18.753  0.00  0.00    +0.000 F 
ATOM     28  F   UNL     1       2.577  13.665  20.012  0.00  0.00    +0.000 F 
ATOM     29  F   UNL     1       2.938  13.852  17.875  0.00  0.00    +0.000 F 
ENDBRANCH  24  26
ENDBRANCH  18  20
ENDBRANCH   3  16
BRANCH   5  30
ATOM     30  C   UNL     1       6.278   4.857  16.599  0.00  0.00    +0.000 C 
ATOM     31  C   UNL     1       6.850   6.031  15.749  0.00  0.00    +0.000 C 
ATOM     32  C   UNL     1       7.454   4.431  17.486  0.00  0.00    +0.000 C 
ATOM     33  C   UNL     1       5.960   3.712  15.622  0.00  0.00    +0.000 C 
ENDBRANCH   5  30
TORSDOF 6
ENDMDL
MODEL 7
REMARK VINA RESULT:      -8.5      2.531      2.945
REMARK  Name = 
REMARK  10 active torsions:
REMARK  status: ('A' for Active; 'I' for Inactive)
REMARK    1  A    between atoms: C_1  and  C_2
REMARK    2  A    between atoms: C_3  and  C_4
REMARK    3  A    between atoms: N_6  and  C_7
REMARK    4  A    between atoms: C_11  and  C_12
REMARK    5  A    between atoms: C_18  and  C_19
REMARK    6  A    between atoms: C_19  and  C_20
REMARK    7  A    between atoms: C_19  and  C_21
REMARK    8  A    between atoms: C_19  and  C_22
REMARK    9  A    between atoms: N_23  and  C_24
REMARK   10  A    between atoms: C_27  and  N_28
REMARK                            x       y       z     vdW  Elec       q    Type
REMARK                         _______ _______ _______ _____ _____    ______ ____
ROOT
ATOM      1  C   UNL     1       1.513   5.051  17.750  0.00  0.00    +0.000 C 
ATOM      2  C   UNL     1       2.963   5.419  17.682  0.00  0.00    +0.000 A 
ATOM      3  C   UNL     1       3.425   6.731  17.632  0.00  0.00    +0.000 A 
ATOM      4  C   UNL     1       4.757   6.648  17.170  0.00  0.00    +0.000 A 
ATOM      5  C   UNL     1       5.130   5.305  17.047  0.00  0.00    +0.000 A 
ATOM      6  N   UNL     1       4.076   4.573  17.662  0.00  0.00    +0.000 N 
ENDROOT
BRANCH   6   7
ATOM      7  C   UNL     1       4.165   3.197  18.198  0.00  0.00    +0.000 C 
ATOM      8  C   UNL     1       4.336   3.139  19.736  0.00  0.00    +0.000 C 
ATOM      9  C   UNL     1       3.074   3.446  20.519  0.00  0.00    +0.000 C 
ATOM     10  C   UNL     1       1.978   2.443  20.203  0.00  0.00    +0.000 C 
ATOM     11  C   UNL     1       1.747   2.356  18.696  0.00  0.00    +0.000 C 
ATOM     12  C   UNL     1       3.045   2.163  17.891  0.00  0.00    +0.000 C 
BRANCH  10  13
ATOM     13  N   UNL     1       0.747   2.849  20.882  0.00  0.00    +0.000 NA
ATOM     14  H   UNL     1       0.146   3.342  20.218  0.00  0.00    +0.000 HD
ATOM     15  H   UNL     1       0.966   3.537  21.602  0.00  0.00    +0.000 HD
ENDBRANCH  10  13
ENDBRANCH   6   7
BRANCH   3  16
ATOM     16  C   UNL     1       2.591   7.885  17.980  0.00  0.00    +0.000 C 
ATOM     17  O   UNL     1       2.414   8.765  17.137  0.00  0.00    +0.000 OA
ATOM     18  N   UNL     1       2.108   7.937  19.279  0.00  0.00    +0.000 N 
ATOM     19  H   UNL     1       2.483   7.261  19.932  0.00  0.00    +0.000 HD
BRANCH  18  20
ATOM     20  C   UNL     1       1.273   8.964  19.792  0.00  0.00    +0.000 A 
ATOM     21  C   UNL     1       0.840  10.054  19.024  0.00  0.00    +0.000 A 
ATOM     22  C   UNL     1       0.029  11.059  19.556  0.00  0.00    +0.000 A 
ATOM     23  C   UNL     1      -0.380  10.988  20.880  0.00  0.00    +0.000 A 
ATOM     24  C   UNL     1       0.017   9.911  21.683  0.00  0.00    +0.000 A 
ATOM     25  C   UNL     1       0.844   8.902  21.128  0.00  0.00    +0.000 A 
BRANCH  24  26
ATOM     26  C   UNL     1      -0.428   9.841  23.122  0.00  0.00    +0.000 C 
ATOM     27  F   UNL     1      -1.376   8.889  23.355  0.00  0.00    +0.000 F 
ATOM     28  F   UNL     1       0.598   9.554  23.969  0.00  0.00    +0.000 F 
ATOM     29  F   UNL     1      -0.963  11.012  23.562  0.00  0.00    +0.000 F 
ENDBRANCH  24  26
ENDBRANCH  18  20
ENDBRANCH   3  16
BRANCH   5  30
ATOM     30  C   UNL     1       6.404   4.769  16.322  0.00  0.00    +0.000 C 
ATOM     31  C   UNL     1       6.095   3.426  15.597  0.00  0.00    +0.000 C 
ATOM     32  C   UNL     1       6.972   5.668  15.217  0.00  0.00    +0.000 C 
ATOM     33  C   UNL     1       7.519   4.480  17.342  0.00  0.00    +0.000 C 
ENDBRANCH   5  30
TORSDOF 6
ENDMDL
MODEL 8
REMARK VINA RESULT:      -8.4      2.238      2.784
REMARK  Name = 
REMARK  10 active torsions:
REMARK  status: ('A' for Active; 'I' for Inactive)
REMARK    1  A    between atoms: C_1  and  C_2
REMARK    2  A    between atoms: C_3  and  C_4
REMARK    3  A    between atoms: N_6  and  C_7
REMARK    4  A    between atoms: C_11  and  C_12
REMARK    5  A    between atoms: C_18  and  C_19
REMARK    6  A    between atoms: C_19  and  C_20
REMARK    7  A    between atoms: C_19  and  C_21
REMARK    8  A    between atoms: C_19  and  C_22
REMARK    9  A    between atoms: N_23  and  C_24
REMARK   10  A    between atoms: C_27  and  N_28
REMARK                            x       y       z     vdW  Elec       q    Type
REMARK                         _______ _______ _______ _____ _____    ______ ____
ROOT
ATOM      1  C   UNL     1       1.360   5.043  17.940  0.00  0.00    +0.000 C 
ATOM      2  C   UNL     1       2.820   5.380  17.906  0.00  0.00    +0.000 A 
ATOM      3  C   UNL     1       3.315   6.672  18.049  0.00  0.00    +0.000 A 
ATOM      4  C   UNL     1       4.639   6.628  17.559  0.00  0.00    +0.000 A 
ATOM      5  C   UNL     1       4.974   5.311  17.227  0.00  0.00    +0.000 A 
ATOM      6  N   UNL     1       3.909   4.520  17.739  0.00  0.00    +0.000 N 
ENDROOT
BRANCH   6   7
ATOM      7  C   UNL     1       3.967   3.076  18.057  0.00  0.00    +0.000 C 
ATOM      8  C   UNL     1       4.368   2.779  19.523  0.00  0.00    +0.000 C 
ATOM      9  C   UNL     1       3.272   3.038  20.538  0.00  0.00    +0.000 C 
ATOM     10  C   UNL     1       2.062   2.159  20.271  0.00  0.00    +0.000 C 
ATOM     11  C   UNL     1       1.595   2.313  18.825  0.00  0.00    +0.000 C 
ATOM     12  C   UNL     1       2.732   2.167  17.799  0.00  0.00    +0.000 C 
BRANCH  10  13
ATOM     13  N   UNL     1       0.987   2.529  21.193  0.00  0.00    +0.000 NA
ATOM     14  H   UNL     1       0.258   1.814  21.160  0.00  0.00    +0.000 HD
ATOM     15  H   UNL     1       0.535   3.382  20.863  0.00  0.00    +0.000 HD
ENDBRANCH  10  13
ENDBRANCH   6   7
BRANCH   3  16
ATOM     16  C   UNL     1       2.517   7.780  18.583  0.00  0.00    +0.000 C 
ATOM     17  O   UNL     1       2.142   7.730  19.755  0.00  0.00    +0.000 OA
ATOM     18  N   UNL     1       2.177   8.789  17.694  0.00  0.00    +0.000 N 
ATOM     19  H   UNL     1       2.373   8.620  16.715  0.00  0.00    +0.000 HD
BRANCH  18  20
ATOM     20  C   UNL     1       1.426   9.946  18.031  0.00  0.00    +0.000 A 
ATOM     21  C   UNL     1       0.033   9.937  18.182  0.00  0.00    +0.000 A 
ATOM     22  C   UNL     1      -0.684  11.092  18.501  0.00  0.00    +0.000 A 
ATOM     23  C   UNL     1      -0.013  12.292  18.690  0.00  0.00    +0.000 A 
ATOM     24  C   UNL     1       1.380  12.347  18.562  0.00  0.00    +0.000 A 
ATOM     25  C   UNL     1       2.093  11.165  18.234  0.00  0.00    +0.000 A 
BRANCH  24  26
ATOM     26  C   UNL     1       2.105  13.654  18.765  0.00  0.00    +0.000 C 
ATOM     27  F   UNL     1       2.539  13.845  20.044  0.00  0.00    +0.000 F 
ATOM     28  F   UNL     1       3.211  13.763  17.981  0.00  0.00    +0.000 F 
ATOM     29  F   UNL     1       1.328  14.733  18.473  0.00  0.00    +0.000 F 
ENDBRANCH  24  26
ENDBRANCH  18  20
ENDBRANCH   3  16
BRANCH   5  30
ATOM     30  C   UNL     1       6.225   4.862  16.408  0.00  0.00    +0.000 C 
ATOM     31  C   UNL     1       7.376   4.428  17.364  0.00  0.00    +0.000 C 
ATOM     32  C   UNL     1       6.024   3.649  15.491  0.00  0.00    +0.000 C 
ATOM     33  C   UNL     1       6.762   6.031  15.564  0.00  0.00    +0.000 C 
ENDBRANCH   5  30
TORSDOF 6
ENDMDL
MODEL 9
REMARK VINA RESULT:      -8.3      0.624      1.259
REMARK  Name = 
REMARK  10 active torsions:
REMARK  status: ('A' for Active; 'I' for Inactive)
REMARK    1  A    between atoms: C_1  and  C_2
REMARK    2  A    between atoms: C_3  and  C_4
REMARK    3  A    between atoms: N_6  and  C_7
REMARK    4  A    between atoms: C_11  and  C_12
REMARK    5  A    between atoms: C_18  and  C_19
REMARK    6  A    between atoms: C_19  and  C_20
REMARK    7  A    between atoms: C_19  and  C_21
REMARK    8  A    between atoms: C_19  and  C_22
REMARK    9  A    between atoms: N_23  and  C_24
REMARK   10  A    between atoms: C_27  and  N_28
REMARK                            x       y       z     vdW  Elec       q    Type
REMARK                         _______ _______ _______ _____ _____    ______ ____
ROOT
ATOM      1  C   UNL     1       1.612   5.139  17.926  0.00  0.00    +0.000 C 
ATOM      2  C   UNL     1       2.992   5.695  18.101  0.00  0.00    +0.000 A 
ATOM      3  C   UNL     1       3.257   7.040  18.340  0.00  0.00    +0.000 A 
ATOM      4  C   UNL     1       4.624   7.218  18.036  0.00  0.00    +0.000 A 
ATOM      5  C   UNL     1       5.202   5.983  17.723  0.00  0.00    +0.000 A 
ATOM      6  N   UNL     1       4.214   5.018  18.065  0.00  0.00    +0.000 N 
ENDROOT
BRANCH   6   7
ATOM      7  C   UNL     1       4.454   3.587  18.356  0.00  0.00    +0.000 C 
ATOM      8  C   UNL     1       3.970   3.148  19.759  0.00  0.00    +0.000 C 
ATOM      9  C   UNL     1       2.466   3.001  19.886  0.00  0.00    +0.000 C 
ATOM     10  C   UNL     1       1.938   1.941  18.934  0.00  0.00    +0.000 C 
ATOM     11  C   UNL     1       2.400   2.225  17.506  0.00  0.00    +0.000 C 
ATOM     12  C   UNL     1       3.912   2.491  17.395  0.00  0.00    +0.000 C 
BRANCH  10  13
ATOM     13  N   UNL     1       0.477   1.922  18.999  0.00  0.00    +0.000 NA
ATOM     14  H   UNL     1       0.136   2.874  19.149  0.00  0.00    +0.000 HD
ATOM     15  H   UNL     1       0.181   1.402  19.826  0.00  0.00    +0.000 HD
ENDBRANCH  10  13
ENDBRANCH   6   7
BRANCH   3  16
ATOM     16  C   UNL     1       2.232   7.989  18.784  0.00  0.00    +0.000 C 
ATOM     17  O   UNL     1       1.806   7.906  19.936  0.00  0.00    +0.000 OA
ATOM     18  N   UNL     1       1.758   8.884  17.836  0.00  0.00    +0.000 N 
ATOM     19  H   UNL     1       2.039   8.724  16.877  0.00  0.00    +0.000 HD
BRANCH  18  20
ATOM     20  C   UNL     1       0.781   9.885  18.084  0.00  0.00    +0.000 A 
ATOM     21  C   UNL     1       1.086  11.123  18.666  0.00  0.00    +0.000 A 
ATOM     22  C   UNL     1       0.104  12.086  18.912  0.00  0.00    +0.000 A 
ATOM     23  C   UNL     1      -1.215  11.832  18.565  0.00  0.00    +0.000 A 
ATOM     24  C   UNL     1      -1.564  10.614  17.969  0.00  0.00    +0.000 A 
ATOM     25  C   UNL     1      -0.556   9.646  17.730  0.00  0.00    +0.000 A 
BRANCH  24  26
ATOM     26  C   UNL     1      -3.000  10.341  17.596  0.00  0.00    +0.000 C 
ATOM     27  F   UNL     1      -3.895  11.137  18.250  0.00  0.00    +0.000 F 
ATOM     28  F   UNL     1      -3.238  10.533  16.270  0.00  0.00    +0.000 F 
ATOM     29  F   UNL     1      -3.377   9.062  17.866  0.00  0.00    +0.000 F 
ENDBRANCH  24  26
ENDBRANCH  18  20
ENDBRANCH   3  16
BRANCH   5  30
ATOM     30  C   UNL     1       6.604   5.764  17.074  0.00  0.00    +0.000 C 
ATOM     31  C   UNL     1       7.426   4.721  17.888  0.00  0.00    +0.000 C 
ATOM     32  C   UNL     1       6.601   5.205  15.646  0.00  0.00    +0.000 C 
ATOM     33  C   UNL     1       7.411   7.075  17.086  0.00  0.00    +0.000 C 
ENDBRANCH   5  30
TORSDOF 6
ENDMDL
