MODEL 1
REMARK VINA RESULT:      -7.3      0.000      0.000
REMARK  Name = 
REMARK  6 active torsions:
REMARK  status: ('A' for Active; 'I' for Inactive)
REMARK    1  A    between atoms: C_3  and  C_4
REMARK    2  A    between atoms: C_4  and  N_5
REMARK    3  A    between atoms: C_10  and  C_11
REMARK    4  A    between atoms: C_11  and  O_12
REMARK    5  A    between atoms: O_12  and  C_13
REMARK    6  A    between atoms: C_13  and  C_14
REMARK                            x       y       z     vdW  Elec       q    Type
REMARK                         _______ _______ _______ _____ _____    ______ ____
ROOT
ATOM      1  N   UNL     1       4.968   4.683  18.653  0.00  0.00    +0.000 NA
ATOM      2  C   UNL     1       4.172   5.877  18.271  0.00  0.00    +0.000 C 
ATOM      3  C   UNL     1       4.986   6.712  17.303  0.00  0.00    +0.000 C 
ATOM      4  C   UNL     1       6.217   5.892  16.974  0.00  0.00    +0.000 C 
ATOM      5  O   UNL     1       7.352   6.661  16.583  0.00  0.00    +0.000 OA
ATOM      6  C   UNL     1       8.077   7.381  17.589  0.00  0.00    +0.000 C 
ATOM      7  C   UNL     1       8.323   6.521  18.834  0.00  0.00    +0.000 C 
ATOM      8  C   UNL     1       7.127   5.698  19.319  0.00  0.00    +0.000 C 
ATOM      9  C   UNL     1       6.361   4.975  18.191  0.00  0.00    +0.000 C 
ENDROOT
BRANCH   1  10
ATOM     10  C   UNL     1       4.298   3.521  18.041  0.00  0.00    +0.000 C 
BRANCH  10  13
ATOM     11  C   UNL     1       1.769   2.544  20.691  0.00  0.00    +0.000 A 
ATOM     12  C   UNL     1       2.986   2.874  20.111  0.00  0.00    +0.000 A 
ATOM     13  C   UNL     1       3.042   3.036  18.722  0.00  0.00    +0.000 A 
ATOM     14  C   UNL     1       1.871   2.868  17.985  0.00  0.00    +0.000 A 
ATOM     15  C   UNL     1       0.706   2.537  18.656  0.00  0.00    +0.000 A 
ATOM     16  N   UNL     1       0.626   2.372  19.993  0.00  0.00    +0.000 NA
ENDBRANCH  10  13
ENDBRANCH   1  10
BRANCH   6  17
ATOM     17  C   UNL     1       7.560   8.837  17.773  0.00  0.00    +0.000 C 
BRANCH  17  18
ATOM     18  O   UNL     1       8.551   9.856  17.776  0.00  0.00    +0.000 OA
BRANCH  18  19
ATOM     19  C   UNL     1       9.069  10.198  19.057  0.00  0.00    +0.000 C 
BRANCH  19  20
ATOM     20  C   UNL     1      10.256  11.168  18.860  0.00  0.00    +0.000 C 
ATOM     21  C   UNL     1       9.865  12.437  18.089  0.00  0.00    +0.000 C 
ATOM     22  C   UNL     1       8.924  13.281  18.933  0.00  0.00    +0.000 C 
ATOM     23  O   UNL     1       9.571  13.670  20.145  0.00  0.00    +0.000 OA
ATOM     24  C   UNL     1       9.969  12.564  20.954  0.00  0.00    +0.000 C 
ATOM     25  C   UNL     1      10.886  11.602  20.198  0.00  0.00    +0.000 C 
ENDBRANCH  19  20
ENDBRANCH  18  19
ENDBRANCH  17  18
ENDBRANCH   6  17
TORSDOF 6
ENDMDL
MODEL 2
REMARK VINA RESULT:      -7.2      0.825      1.043
REMARK  Name = 
REMARK  6 active torsions:
REMARK  status: ('A' for Active; 'I' for Inactive)
REMARK    1  A    between atoms: C_3  and  C_4
REMARK    2  A    between atoms: C_4  and  N_5
REMARK    3  A    between atoms: C_10  and  C_11
REMARK    4  A    between atoms: C_11  and  O_12
REMARK    5  A    between atoms: O_12  and  C_13
REMARK    6  A    between atoms: C_13  and  C_14
REMARK                            x       y       z     vdW  Elec       q    Type
REMARK                         _______ _______ _______ _____ _____    ______ ____
ROOT
ATOM      1  N   UNL     1       4.610   5.027  18.372  0.00  0.00    +0.000 NA
ATOM      2  C   UNL     1       4.012   6.308  17.918  0.00  0.00    +0.000 C 
ATOM      3  C   UNL     1       5.011   7.021  17.029  0.00  0.00    +0.000 C 
ATOM      4  C   UNL     1       6.152   6.047  16.815  0.00  0.00    +0.000 C 
ATOM      5  O   UNL     1       7.407   6.660  16.532  0.00  0.00    +0.000 OA
ATOM      6  C   UNL     1       8.122   7.295  17.600  0.00  0.00    +0.000 C 
ATOM      7  C   UNL     1       8.142   6.426  18.862  0.00  0.00    +0.000 C 
ATOM      8  C   UNL     1       6.810   5.767  19.235  0.00  0.00    +0.000 C 
ATOM      9  C   UNL     1       6.065   5.134  18.041  0.00  0.00    +0.000 C 
ENDROOT
BRANCH   1  10
ATOM     10  C   UNL     1       3.856   3.952  17.701  0.00  0.00    +0.000 C 
BRANCH  10  13
ATOM     11  C   UNL     1       1.830   2.436  20.524  0.00  0.00    +0.000 A 
ATOM     12  C   UNL     1       2.928   2.889  19.807  0.00  0.00    +0.000 A 
ATOM     13  C   UNL     1       2.733   3.327  18.492  0.00  0.00    +0.000 A 
ATOM     14  C   UNL     1       1.443   3.297  17.966  0.00  0.00    +0.000 A 
ATOM     15  C   UNL     1       0.412   2.826  18.761  0.00  0.00    +0.000 A 
ATOM     16  N   UNL     1       0.575   2.395  20.029  0.00  0.00    +0.000 NA
ENDBRANCH  10  13
ENDBRANCH   1  10
BRANCH   6  17
ATOM     17  C   UNL     1       7.781   8.807  17.736  0.00  0.00    +0.000 C 
BRANCH  17  18
ATOM     18  O   UNL     1       8.602   9.555  18.623  0.00  0.00    +0.000 OA
BRANCH  18  19
ATOM     19  C   UNL     1       8.947  10.862  18.177  0.00  0.00    +0.000 C 
BRANCH  19  20
ATOM     20  C   UNL     1      10.225  11.309  18.922  0.00  0.00    +0.000 C 
ATOM     21  C   UNL     1      11.362  11.706  17.968  0.00  0.00    +0.000 C 
ATOM     22  C   UNL     1      10.987  12.978  17.224  0.00  0.00    +0.000 C 
ATOM     23  O   UNL     1      10.782  14.044  18.152  0.00  0.00    +0.000 OA
ATOM     24  C   UNL     1       9.733  13.789  19.085  0.00  0.00    +0.000 C 
ATOM     25  C   UNL     1       9.966  12.497  19.869  0.00  0.00    +0.000 C 
ENDBRANCH  19  20
ENDBRANCH  18  19
ENDBRANCH  17  18
ENDBRANCH   6  17
TORSDOF 6
ENDMDL
MODEL 3
REMARK VINA RESULT:      -7.2      0.938      1.465
REMARK  Name = 
REMARK  6 active torsions:
REMARK  status: ('A' for Active; 'I' for Inactive)
REMARK    1  A    between atoms: C_3  and  C_4
REMARK    2  A    between atoms: C_4  and  N_5
REMARK    3  A    between atoms: C_10  and  C_11
REMARK    4  A    between atoms: C_11  and  O_12
REMARK    5  A    between atoms: O_12  and  C_13
REMARK    6  A    between atoms: C_13  and  C_14
REMARK                            x       y       z     vdW  Elec       q    Type
REMARK                         _______ _______ _______ _____ _____    ______ ____
ROOT
ATOM      1  N   UNL     1       4.582   5.078  18.467  0.00  0.00    +0.000 NA
ATOM      2  C   UNL     1       3.976   6.365  18.046  0.00  0.00    +0.000 C 
ATOM      3  C   UNL     1       4.954   7.089  17.142  0.00  0.00    +0.000 C 
ATOM      4  C   UNL     1       6.087   6.116  16.887  0.00  0.00    +0.000 C 
ATOM      5  O   UNL     1       7.337   6.731  16.580  0.00  0.00    +0.000 OA
ATOM      6  C   UNL     1       8.079   7.350  17.639  0.00  0.00    +0.000 C 
ATOM      7  C   UNL     1       8.128   6.464  18.889  0.00  0.00    +0.000 C 
ATOM      8  C   UNL     1       6.805   5.803  19.285  0.00  0.00    +0.000 C 
ATOM      9  C   UNL     1       6.029   5.187  18.102  0.00  0.00    +0.000 C 
ENDROOT
BRANCH   1  10
ATOM     10  C   UNL     1       3.810   4.013  17.801  0.00  0.00    +0.000 C 
BRANCH  10  13
ATOM     11  C   UNL     1       1.014   3.615  20.330  0.00  0.00    +0.000 A 
ATOM     12  C   UNL     1       2.187   4.073  19.747  0.00  0.00    +0.000 A 
ATOM     13  C   UNL     1       2.618   3.478  18.556  0.00  0.00    +0.000 A 
ATOM     14  C   UNL     1       1.845   2.458  18.005  0.00  0.00    +0.000 A 
ATOM     15  C   UNL     1       0.691   2.069  18.663  0.00  0.00    +0.000 A 
ATOM     16  N   UNL     1       0.256   2.624  19.814  0.00  0.00    +0.000 NA
ENDBRANCH  10  13
ENDBRANCH   1  10
BRANCH   6  17
ATOM     17  C   UNL     1       7.744   8.861  17.803  0.00  0.00    +0.000 C 
BRANCH  17  18
ATOM     18  O   UNL     1       8.856   9.745  17.857  0.00  0.00    +0.000 OA
BRANCH  18  19
ATOM     19  C   UNL     1       9.251  10.146  19.165  0.00  0.00    +0.000 C 
BRANCH  19  20
ATOM     20  C   UNL     1       9.335  11.689  19.196  0.00  0.00    +0.000 C 
ATOM     21  C   UNL     1      10.213  12.214  20.341  0.00  0.00    +0.000 C 
ATOM     22  C   UNL     1      11.665  11.840  20.088  0.00  0.00    +0.000 C 
ATOM     23  O   UNL     1      12.115  12.427  18.867  0.00  0.00    +0.000 OA
ATOM     24  C   UNL     1      11.375  11.998  17.725  0.00  0.00    +0.000 C 
ATOM     25  C   UNL     1       9.878  12.274  17.877  0.00  0.00    +0.000 C 
ENDBRANCH  19  20
ENDBRANCH  18  19
ENDBRANCH  17  18
ENDBRANCH   6  17
TORSDOF 6
ENDMDL
MODEL 4
REMARK VINA RESULT:      -7.1      4.157      6.731
REMARK  Name = 
REMARK  6 active torsions:
REMARK  status: ('A' for Active; 'I' for Inactive)
REMARK    1  A    between atoms: C_3  and  C_4
REMARK    2  A    between atoms: C_4  and  N_5
REMARK    3  A    between atoms: C_10  and  C_11
REMARK    4  A    between atoms: C_11  and  O_12
REMARK    5  A    between atoms: O_12  and  C_13
REMARK    6  A    between atoms: C_13  and  C_14
REMARK                            x       y       z     vdW  Elec       q    Type
REMARK                         _______ _______ _______ _____ _____    ______ ____
ROOT
ATOM      1  N   UNL     1       2.157   7.463  19.872  0.00  0.00    +0.000 NA
ATOM      2  C   UNL     1       3.149   7.584  18.775  0.00  0.00    +0.000 C 
ATOM      3  C   UNL     1       3.067   6.343  17.909  0.00  0.00    +0.000 C 
ATOM      4  C   UNL     1       1.873   5.559  18.412  0.00  0.00    +0.000 C 
ATOM      5  O   UNL     1       1.944   4.155  18.172  0.00  0.00    +0.000 OA
ATOM      6  C   UNL     1       2.829   3.362  18.974  0.00  0.00    +0.000 C 
ATOM      7  C   UNL     1       2.718   3.720  20.461  0.00  0.00    +0.000 C 
ATOM      8  C   UNL     1       2.672   5.216  20.781  0.00  0.00    +0.000 C 
ATOM      9  C   UNL     1       1.734   6.028  19.863  0.00  0.00    +0.000 C 
ENDROOT
BRANCH   1  10
ATOM     10  C   UNL     1       1.109   8.464  19.603  0.00  0.00    +0.000 C 
BRANCH  10  13
ATOM     11  C   UNL     1       0.043  11.432  21.707  0.00  0.00    +0.000 A 
ATOM     12  C   UNL     1       0.550  10.710  20.636  0.00  0.00    +0.000 A 
ATOM     13  C   UNL     1       0.688   9.324  20.770  0.00  0.00    +0.000 A 
ATOM     14  C   UNL     1       0.301   8.730  21.969  0.00  0.00    +0.000 A 
ATOM     15  C   UNL     1      -0.192   9.537  22.981  0.00  0.00    +0.000 A 
ATOM     16  N   UNL     1      -0.332  10.875  22.878  0.00  0.00    +0.000 NA
ENDBRANCH  10  13
ENDBRANCH   1  10
BRANCH   6  17
ATOM     17  C   UNL     1       4.242   3.214  18.342  0.00  0.00    +0.000 C 
BRANCH  17  18
ATOM     18  O   UNL     1       5.337   3.602  19.161  0.00  0.00    +0.000 OA
BRANCH  18  19
ATOM     19  C   UNL     1       5.765   4.951  19.006  0.00  0.00    +0.000 C 
BRANCH  19  20
ATOM     20  C   UNL     1       7.266   4.947  18.639  0.00  0.00    +0.000 C 
ATOM     21  C   UNL     1       7.528   4.448  17.210  0.00  0.00    +0.000 C 
ATOM     22  C   UNL     1       6.976   5.449  16.208  0.00  0.00    +0.000 C 
ATOM     23  O   UNL     1       7.623   6.712  16.371  0.00  0.00    +0.000 OA
ATOM     24  C   UNL     1       7.435   7.281  17.666  0.00  0.00    +0.000 C 
ATOM     25  C   UNL     1       7.907   6.342  18.778  0.00  0.00    +0.000 C 
ENDBRANCH  19  20
ENDBRANCH  18  19
ENDBRANCH  17  18
ENDBRANCH   6  17
TORSDOF 6
ENDMDL
MODEL 5
REMARK VINA RESULT:      -7.1      5.074      7.708
REMARK  Name = 
REMARK  6 active torsions:
REMARK  status: ('A' for Active; 'I' for Inactive)
REMARK    1  A    between atoms: C_3  and  C_4
REMARK    2  A    between atoms: C_4  and  N_5
REMARK    3  A    between atoms: C_10  and  C_11
REMARK    4  A    between atoms: C_11  and  O_12
REMARK    5  A    between atoms: O_12  and  C_13
REMARK    6  A    between atoms: C_13  and  C_14
REMARK                            x       y       z     vdW  Elec       q    Type
REMARK                         _______ _______ _______ _____ _____    ______ ____
ROOT
ATOM      1  N   UNL     1       4.904   4.605  16.250  0.00  0.00    +0.000 NA
ATOM      2  C   UNL     1       4.995   6.086  16.243  0.00  0.00    +0.000 C 
ATOM      3  C   UNL     1       4.854   6.586  17.667  0.00  0.00    +0.000 C 
ATOM      4  C   UNL     1       4.859   5.353  18.547  0.00  0.00    +0.000 C 
ATOM      5  O   UNL     1       4.177   5.511  19.789  0.00  0.00    +0.000 OA
ATOM      6  C   UNL     1       2.744   5.533  19.792  0.00  0.00    +0.000 C 
ATOM      7  C   UNL     1       2.160   4.419  18.916  0.00  0.00    +0.000 C 
ATOM      8  C   UNL     1       2.832   4.226  17.554  0.00  0.00    +0.000 C 
ATOM      9  C   UNL     1       4.374   4.250  17.603  0.00  0.00    +0.000 C 
ENDROOT
BRANCH   1  10
ATOM     10  C   UNL     1       6.247   4.100  15.912  0.00  0.00    +0.000 C 
BRANCH  10  13
ATOM     11  C   UNL     1       6.257   3.541  12.162  0.00  0.00    +0.000 A 
ATOM     12  C   UNL     1       5.941   3.373  13.503  0.00  0.00    +0.000 A 
ATOM     13  C   UNL     1       6.629   4.137  14.452  0.00  0.00    +0.000 A 
ATOM     14  C   UNL     1       7.594   5.039  14.007  0.00  0.00    +0.000 A 
ATOM     15  C   UNL     1       7.839   5.132  12.648  0.00  0.00    +0.000 A 
ATOM     16  N   UNL     1       7.192   4.405  11.713  0.00  0.00    +0.000 NA
ENDBRANCH  10  13
ENDBRANCH   1  10
BRANCH   6  17
ATOM     17  C   UNL     1       2.164   6.971  19.662  0.00  0.00    +0.000 C 
BRANCH  17  18
ATOM     18  O   UNL     1       1.508   7.486  20.813  0.00  0.00    +0.000 OA
BRANCH  18  19
ATOM     19  C   UNL     1       1.332   8.899  20.831  0.00  0.00    +0.000 C 
BRANCH  19  20
ATOM     20  C   UNL     1      -0.177   9.200  20.975  0.00  0.00    +0.000 C 
ATOM     21  C   UNL     1      -0.730   8.825  22.358  0.00  0.00    +0.000 C 
ATOM     22  C   UNL     1      -0.138   9.745  23.414  0.00  0.00    +0.000 C 
ATOM     23  O   UNL     1      -0.494  11.099  23.137  0.00  0.00    +0.000 OA
ATOM     24  C   UNL     1      -0.019  11.563  21.874  0.00  0.00    +0.000 C 
ATOM     25  C   UNL     1      -0.506  10.684  20.721  0.00  0.00    +0.000 C 
ENDBRANCH  19  20
ENDBRANCH  18  19
ENDBRANCH  17  18
ENDBRANCH   6  17
TORSDOF 6
ENDMDL
MODEL 6
REMARK VINA RESULT:      -7.1      3.976      6.764
REMARK  Name = 
REMARK  6 active torsions:
REMARK  status: ('A' for Active; 'I' for Inactive)
REMARK    1  A    between atoms: C_3  and  C_4
REMARK    2  A    between atoms: C_4  and  N_5
REMARK    3  A    between atoms: C_10  and  C_11
REMARK    4  A    between atoms: C_11  and  O_12
REMARK    5  A    between atoms: O_12  and  C_13
REMARK    6  A    between atoms: C_13  and  C_14
REMARK                            x       y       z     vdW  Elec       q    Type
REMARK                         _______ _______ _______ _____ _____    ______ ____
ROOT
ATOM      1  N   UNL     1       2.497   7.898  18.612  0.00  0.00    +0.000 NA
ATOM      2  C   UNL     1       3.631   7.657  17.686  0.00  0.00    +0.000 C 
ATOM      3  C   UNL     1       3.607   6.203  17.258  0.00  0.00    +0.000 C 
ATOM      4  C   UNL     1       2.320   5.625  17.811  0.00  0.00    +0.000 C 
ATOM      5  O   UNL     1       2.356   4.219  18.044  0.00  0.00    +0.000 OA
ATOM      6  C   UNL     1       3.087   3.725  19.174  0.00  0.00    +0.000 C 
ATOM      7  C   UNL     1       2.796   4.543  20.437  0.00  0.00    +0.000 C 
ATOM      8  C   UNL     1       2.778   6.063  20.253  0.00  0.00    +0.000 C 
ATOM      9  C   UNL     1       2.011   6.537  19.001  0.00  0.00    +0.000 C 
ENDROOT
BRANCH   1  10
ATOM     10  C   UNL     1       1.543   8.761  17.892  0.00  0.00    +0.000 C 
BRANCH  10  13
ATOM     11  C   UNL     1       1.282  12.383  18.982  0.00  0.00    +0.000 A 
ATOM     12  C   UNL     1       1.794  11.231  18.401  0.00  0.00    +0.000 A 
ATOM     13  C   UNL     1       1.115  10.024  18.600  0.00  0.00    +0.000 A 
ATOM     14  C   UNL     1      -0.050  10.034  19.364  0.00  0.00    +0.000 A 
ATOM     15  C   UNL     1      -0.480  11.234  19.903  0.00  0.00    +0.000 A 
ATOM     16  N   UNL     1       0.158  12.411  19.730  0.00  0.00    +0.000 NA
ENDBRANCH  10  13
ENDBRANCH   1  10
BRANCH   6  17
ATOM     17  C   UNL     1       4.563   3.378  18.828  0.00  0.00    +0.000 C 
BRANCH  17  18
ATOM     18  O   UNL     1       5.555   3.980  19.650  0.00  0.00    +0.000 OA
BRANCH  18  19
ATOM     19  C   UNL     1       5.947   5.294  19.267  0.00  0.00    +0.000 C 
BRANCH  19  20
ATOM     20  C   UNL     1       7.425   5.250  18.818  0.00  0.00    +0.000 C 
ATOM     21  C   UNL     1       7.619   4.519  17.480  0.00  0.00    +0.000 C 
ATOM     22  C   UNL     1       6.986   5.327  16.358  0.00  0.00    +0.000 C 
ATOM     23  O   UNL     1       7.610   6.608  16.267  0.00  0.00    +0.000 OA
ATOM     24  C   UNL     1       7.481   7.386  17.456  0.00  0.00    +0.000 C 
ATOM     25  C   UNL     1       8.038   6.658  18.680  0.00  0.00    +0.000 C 
ENDBRANCH  19  20
ENDBRANCH  18  19
ENDBRANCH  17  18
ENDBRANCH   6  17
TORSDOF 6
ENDMDL
MODEL 7
REMARK VINA RESULT:      -7.0      0.878      1.727
REMARK  Name = 
REMARK  6 active torsions:
REMARK  status: ('A' for Active; 'I' for Inactive)
REMARK    1  A    between atoms: C_3  and  C_4
REMARK    2  A    between atoms: C_4  and  N_5
REMARK    3  A    between atoms: C_10  and  C_11
REMARK    4  A    between atoms: C_11  and  O_12
REMARK    5  A    between atoms: O_12  and  C_13
REMARK    6  A    between atoms: C_13  and  C_14
REMARK                            x       y       z     vdW  Elec       q    Type
REMARK                         _______ _______ _______ _____ _____    ______ ____
ROOT
ATOM      1  N   UNL     1       5.004   4.663  19.006  0.00  0.00    +0.000 NA
ATOM      2  C   UNL     1       4.160   5.820  18.618  0.00  0.00    +0.000 C 
ATOM      3  C   UNL     1       4.875   6.597  17.531  0.00  0.00    +0.000 C 
ATOM      4  C   UNL     1       6.086   5.770  17.151  0.00  0.00    +0.000 C 
ATOM      5  O   UNL     1       7.172   6.523  16.615  0.00  0.00    +0.000 OA
ATOM      6  C   UNL     1       7.968   7.316  17.505  0.00  0.00    +0.000 C 
ATOM      7  C   UNL     1       8.333   6.544  18.777  0.00  0.00    +0.000 C 
ATOM      8  C   UNL     1       7.196   5.742  19.417  0.00  0.00    +0.000 C 
ATOM      9  C   UNL     1       6.348   4.938  18.409  0.00  0.00    +0.000 C 
ENDROOT
BRANCH   1  10
ATOM     10  C   UNL     1       4.304   3.455  18.532  0.00  0.00    +0.000 C 
BRANCH  10  13
ATOM     11  C   UNL     1       0.632   2.558  18.816  0.00  0.00    +0.000 A 
ATOM     12  C   UNL     1       1.854   2.876  18.241  0.00  0.00    +0.000 A 
ATOM     13  C   UNL     1       2.917   3.226  19.081  0.00  0.00    +0.000 A 
ATOM     14  C   UNL     1       2.702   3.231  20.457  0.00  0.00    +0.000 A 
ATOM     15  C   UNL     1       1.445   2.901  20.935  0.00  0.00    +0.000 A 
ATOM     16  N   UNL     1       0.404   2.563  20.146  0.00  0.00    +0.000 NA
ENDBRANCH  10  13
ENDBRANCH   1  10
BRANCH   6  17
ATOM     17  C   UNL     1       7.445   8.776  17.638  0.00  0.00    +0.000 C 
BRANCH  17  18
ATOM     18  O   UNL     1       8.118   9.597  18.583  0.00  0.00    +0.000 OA
BRANCH  18  19
ATOM     19  C   UNL     1       9.224  10.332  18.071  0.00  0.00    +0.000 C 
BRANCH  19  20
ATOM     20  C   UNL     1       9.355  11.642  18.881  0.00  0.00    +0.000 C 
ATOM     21  C   UNL     1      10.538  11.622  19.860  0.00  0.00    +0.000 C 
ATOM     22  C   UNL     1      11.846  11.616  19.084  0.00  0.00    +0.000 C 
ATOM     23  O   UNL     1      11.943  12.794  18.282  0.00  0.00    +0.000 OA
ATOM     24  C   UNL     1      10.895  12.912  17.321  0.00  0.00    +0.000 C 
ATOM     25  C   UNL     1       9.512  12.879  17.974  0.00  0.00    +0.000 C 
ENDBRANCH  19  20
ENDBRANCH  18  19
ENDBRANCH  17  18
ENDBRANCH   6  17
TORSDOF 6
ENDMDL
MODEL 8
REMARK VINA RESULT:      -7.0      1.185      1.549
REMARK  Name = 
REMARK  6 active torsions:
REMARK  status: ('A' for Active; 'I' for Inactive)
REMARK    1  A    between atoms: C_3  and  C_4
REMARK    2  A    between atoms: C_4  and  N_5
REMARK    3  A    between atoms: C_10  and  C_11
REMARK    4  A    between atoms: C_11  and  O_12
REMARK    5  A    between atoms: O_12  and  C_13
REMARK    6  A    between atoms: C_13  and  C_14
REMARK                            x       y       z     vdW  Elec       q    Type
REMARK                         _______ _______ _______ _____ _____    ______ ____
ROOT
ATOM      1  N   UNL     1       3.409   6.100  18.457  0.00  0.00    +0.000 NA
ATOM      2  C   UNL     1       3.347   7.462  17.870  0.00  0.00    +0.000 C 
ATOM      3  C   UNL     1       4.483   7.615  16.880  0.00  0.00    +0.000 C 
ATOM      4  C   UNL     1       5.118   6.245  16.754  0.00  0.00    +0.000 C 
ATOM      5  O   UNL     1       6.491   6.263  16.370  0.00  0.00    +0.000 OA
ATOM      6  C   UNL     1       7.474   6.652  17.338  0.00  0.00    +0.000 C 
ATOM      7  C   UNL     1       7.230   5.979  18.694  0.00  0.00    +0.000 C 
ATOM      8  C   UNL     1       5.776   5.960  19.173  0.00  0.00    +0.000 C 
ATOM      9  C   UNL     1       4.758   5.572  18.081  0.00  0.00    +0.000 C 
ENDROOT
BRANCH   1  10
ATOM     10  C   UNL     1       2.242   5.365  17.936  0.00  0.00    +0.000 C 
BRANCH  10  13
ATOM     11  C   UNL     1       1.659   1.761  18.958  0.00  0.00    +0.000 A 
ATOM     12  C   UNL     1       1.944   2.858  18.156  0.00  0.00    +0.000 A 
ATOM     13  C   UNL     1       1.823   4.138  18.708  0.00  0.00    +0.000 A 
ATOM     14  C   UNL     1       1.431   4.253  20.040  0.00  0.00    +0.000 A 
ATOM     15  C   UNL     1       1.166   3.099  20.757  0.00  0.00    +0.000 A 
ATOM     16  N   UNL     1       1.272   1.854  20.248  0.00  0.00    +0.000 NA
ENDBRANCH  10  13
ENDBRANCH   1  10
BRANCH   6  17
ATOM     17  C   UNL     1       7.780   8.177  17.304  0.00  0.00    +0.000 C 
BRANCH  17  18
ATOM     18  O   UNL     1       8.572   8.680  18.371  0.00  0.00    +0.000 OA
BRANCH  18  19
ATOM     19  C   UNL     1       8.538  10.093  18.542  0.00  0.00    +0.000 C 
BRANCH  19  20
ATOM     20  C   UNL     1       9.941  10.565  18.985  0.00  0.00    +0.000 C 
ATOM     21  C   UNL     1      10.610  11.490  17.958  0.00  0.00    +0.000 C 
ATOM     22  C   UNL     1       9.857  12.809  17.888  0.00  0.00    +0.000 C 
ATOM     23  O   UNL     1       9.884  13.454  19.161  0.00  0.00    +0.000 OA
ATOM     24  C   UNL     1       9.273  12.687  20.198  0.00  0.00    +0.000 C 
ATOM     25  C   UNL     1       9.911  11.304  20.338  0.00  0.00    +0.000 C 
ENDBRANCH  19  20
ENDBRANCH  18  19
ENDBRANCH  17  18
ENDBRANCH   6  17
TORSDOF 6
ENDMDL
MODEL 9
REMARK VINA RESULT:      -7.0      4.429      8.091
REMARK  Name = 
REMARK  6 active torsions:
REMARK  status: ('A' for Active; 'I' for Inactive)
REMARK    1  A    between atoms: C_3  and  C_4
REMARK    2  A    between atoms: C_4  and  N_5
REMARK    3  A    between atoms: C_10  and  C_11
REMARK    4  A    between atoms: C_11  and  O_12
REMARK    5  A    between atoms: O_12  and  C_13
REMARK    6  A    between atoms: C_13  and  C_14
REMARK                            x       y       z     vdW  Elec       q    Type
REMARK                         _______ _______ _______ _____ _____    ______ ____
ROOT
ATOM      1  N   UNL     1       6.519   4.190  14.838  0.00  0.00    +0.000 NA
ATOM      2  C   UNL     1       5.104   3.955  15.216  0.00  0.00    +0.000 C 
ATOM      3  C   UNL     1       4.677   5.033  16.192  0.00  0.00    +0.000 C 
ATOM      4  C   UNL     1       5.820   6.025  16.246  0.00  0.00    +0.000 C 
ATOM      5  O   UNL     1       5.909   6.759  17.466  0.00  0.00    +0.000 OA
ATOM      6  C   UNL     1       6.402   6.096  18.637  0.00  0.00    +0.000 C 
ATOM      7  C   UNL     1       7.656   5.270  18.332  0.00  0.00    +0.000 C 
ATOM      8  C   UNL     1       7.606   4.434  17.050  0.00  0.00    +0.000 C 
ATOM      9  C   UNL     1       7.031   5.185  15.831  0.00  0.00    +0.000 C 
ENDROOT
BRANCH   1  10
ATOM     10  C   UNL     1       6.512   4.610  13.425  0.00  0.00    +0.000 C 
BRANCH  10  13
ATOM     11  C   UNL     1       7.474   1.897  10.958  0.00  0.00    +0.000 A 
ATOM     12  C   UNL     1       7.595   2.992  11.802  0.00  0.00    +0.000 A 
ATOM     13  C   UNL     1       6.438   3.507  12.398  0.00  0.00    +0.000 A 
ATOM     14  C   UNL     1       5.218   2.891  12.123  0.00  0.00    +0.000 A 
ATOM     15  C   UNL     1       5.201   1.804  11.265  0.00  0.00    +0.000 A 
ATOM     16  N   UNL     1       6.301   1.291  10.676  0.00  0.00    +0.000 NA
ENDBRANCH  10  13
ENDBRANCH   1  10
BRANCH   6  17
ATOM     17  C   UNL     1       5.267   5.451  19.484  0.00  0.00    +0.000 C 
BRANCH  17  18
ATOM     18  O   UNL     1       5.329   4.040  19.639  0.00  0.00    +0.000 OA
BRANCH  18  19
ATOM     19  C   UNL     1       4.105   3.349  19.412  0.00  0.00    +0.000 C 
BRANCH  19  20
ATOM     20  C   UNL     1       2.939   4.340  19.626  0.00  0.00    +0.000 C 
ATOM     21  C   UNL     1       1.891   4.279  18.503  0.00  0.00    +0.000 C 
ATOM     22  C   UNL     1       1.165   2.945  18.552  0.00  0.00    +0.000 C 
ATOM     23  O   UNL     1       0.494   2.799  19.804  0.00  0.00    +0.000 OA
ATOM     24  C   UNL     1       1.376   2.828  20.926  0.00  0.00    +0.000 C 
ATOM     25  C   UNL     1       2.211   4.109  20.965  0.00  0.00    +0.000 C 
ENDBRANCH  19  20
ENDBRANCH  18  19
ENDBRANCH  17  18
ENDBRANCH   6  17
TORSDOF 6
ENDMDL
