MODEL 1
REMARK VINA RESULT:      -8.6      0.000      0.000
REMARK  Name = 
REMARK  4 active torsions:
REMARK  status: ('A' for Active; 'I' for Inactive)
REMARK    1  A    between atoms: C_2  and  C_4
REMARK    2  A    between atoms: C_15  and  C_16
REMARK    3  A    between atoms: C_16  and  C_17
REMARK    4  A    between atoms: C_21  and  C_22
REMARK                            x       y       z     vdW  Elec       q    Type
REMARK                         _______ _______ _______ _____ _____    ______ ____
ROOT
ATOM      1  C   UNL     1       3.374   4.417  19.285  0.00  0.00    +0.000 A 
ATOM      2  C   UNL     1       2.635   4.247  20.466  0.00  0.00    +0.000 A 
ATOM      3  C   UNL     1       1.847   5.291  20.967  0.00  0.00    +0.000 A 
ATOM      4  C   UNL     1       1.777   6.511  20.295  0.00  0.00    +0.000 A 
ATOM      5  C   UNL     1       2.495   6.684  19.120  0.00  0.00    +0.000 A 
ATOM      6  C   UNL     1       3.316   5.651  18.643  0.00  0.00    +0.000 A 
ATOM      7  C   UNL     1       3.989   6.100  17.386  0.00  0.00    +0.000 C 
ATOM      8  C   UNL     1       3.679   7.610  17.379  0.00  0.00    +0.000 C 
ATOM      9  N   UNL     1       2.542   7.819  18.284  0.00  0.00    +0.000 N 
ATOM     10  C   UNL     1       1.996   9.095  18.389  0.00  0.00    +0.000 A 
ATOM     11  C   UNL     1       0.680   9.270  18.827  0.00  0.00    +0.000 A 
ATOM     12  C   UNL     1       0.115  10.550  18.906  0.00  0.00    +0.000 A 
ATOM     13  C   UNL     1       0.909  11.639  18.554  0.00  0.00    +0.000 A 
ATOM     14  C   UNL     1       2.199  11.393  18.123  0.00  0.00    +0.000 A 
ATOM     15  N   UNL     1       2.740  10.161  18.013  0.00  0.00    +0.000 NA
ENDROOT
BRANCH   1  17
ATOM     16  N   UNL     1       5.523   3.306  19.067  0.00  0.00    +0.000 N 
ATOM     17  C   UNL     1       4.194   3.306  18.736  0.00  0.00    +0.000 C 
ATOM     18  O   UNL     1       3.721   2.411  18.055  0.00  0.00    +0.000 OA
ATOM     19  H   UNL     1       6.050   2.489  18.786  0.00  0.00    +0.000 HD
ATOM     20  H   UNL     1       5.894   3.873  19.814  0.00  0.00    +0.000 HD
ENDBRANCH   1  17
BRANCH  12  21
ATOM     21  C   UNL     1      -1.303  10.740  19.392  0.00  0.00    +0.000 C 
BRANCH  21  22
ATOM     22  C   UNL     1      -2.305  10.812  18.263  0.00  0.00    +0.000 A 
ATOM     23  C   UNL     1      -2.105  10.088  17.080  0.00  0.00    +0.000 A 
ATOM     24  C   UNL     1      -3.072  10.095  16.074  0.00  0.00    +0.000 A 
ATOM     25  C   UNL     1      -4.257  10.810  16.244  0.00  0.00    +0.000 A 
ATOM     26  C   UNL     1      -4.481  11.540  17.420  0.00  0.00    +0.000 A 
ATOM     27  C   UNL     1      -3.489  11.549  18.414  0.00  0.00    +0.000 A 
BRANCH  26  28
ATOM     28  C   UNL     1      -5.775  12.281  17.648  0.00  0.00    +0.000 C 
ATOM     29  F   UNL     1      -6.013  13.263  16.734  0.00  0.00    +0.000 F 
ATOM     30  F   UNL     1      -6.859  11.455  17.597  0.00  0.00    +0.000 F 
ATOM     31  F   UNL     1      -5.826  12.884  18.867  0.00  0.00    +0.000 F 
ENDBRANCH  26  28
ENDBRANCH  21  22
ENDBRANCH  12  21
TORSDOF 4
ENDMDL
MODEL 2
REMARK VINA RESULT:      -8.0      5.690      9.337
REMARK  Name = 
REMARK  4 active torsions:
REMARK  status: ('A' for Active; 'I' for Inactive)
REMARK    1  A    between atoms: C_2  and  C_4
REMARK    2  A    between atoms: C_15  and  C_16
REMARK    3  A    between atoms: C_16  and  C_17
REMARK    4  A    between atoms: C_21  and  C_22
REMARK                            x       y       z     vdW  Elec       q    Type
REMARK                         _______ _______ _______ _____ _____    ______ ____
ROOT
ATOM      1  C   UNL     1       0.626  15.193  19.182  0.00  0.00    +0.000 A 
ATOM      2  C   UNL     1       1.819  15.297  18.451  0.00  0.00    +0.000 A 
ATOM      3  C   UNL     1       2.615  14.167  18.225  0.00  0.00    +0.000 A 
ATOM      4  C   UNL     1       2.229  12.919  18.716  0.00  0.00    +0.000 A 
ATOM      5  C   UNL     1       1.044  12.804  19.430  0.00  0.00    +0.000 A 
ATOM      6  C   UNL     1       0.271  13.946  19.689  0.00  0.00    +0.000 A 
ATOM      7  C   UNL     1      -0.930  13.553  20.489  0.00  0.00    +0.000 C 
ATOM      8  C   UNL     1      -0.583  12.108  20.899  0.00  0.00    +0.000 C 
ATOM      9  N   UNL     1       0.468  11.643  19.984  0.00  0.00    +0.000 N 
ATOM     10  C   UNL     1       0.902  10.324  20.079  0.00  0.00    +0.000 A 
ATOM     11  C   UNL     1       1.512   9.697  18.988  0.00  0.00    +0.000 A 
ATOM     12  C   UNL     1       1.923   8.360  19.068  0.00  0.00    +0.000 A 
ATOM     13  C   UNL     1       1.722   7.684  20.268  0.00  0.00    +0.000 A 
ATOM     14  C   UNL     1       1.108   8.362  21.305  0.00  0.00    +0.000 A 
ATOM     15  N   UNL     1       0.680   9.640  21.225  0.00  0.00    +0.000 NA
ENDROOT
BRANCH   1  17
ATOM     16  N   UNL     1      -1.007  16.785  18.348  0.00  0.00    +0.000 N 
ATOM     17  C   UNL     1      -0.234  16.383  19.405  0.00  0.00    +0.000 C 
ATOM     18  O   UNL     1      -0.292  16.965  20.476  0.00  0.00    +0.000 OA
ATOM     19  H   UNL     1      -1.672  17.523  18.540  0.00  0.00    +0.000 HD
ATOM     20  H   UNL     1      -1.174  16.197  17.546  0.00  0.00    +0.000 HD
ENDBRANCH   1  17
BRANCH  12  21
ATOM     21  C   UNL     1       2.594   7.687  17.893  0.00  0.00    +0.000 C 
BRANCH  21  22
ATOM     22  C   UNL     1       3.015   6.267  18.192  0.00  0.00    +0.000 A 
ATOM     23  C   UNL     1       4.372   5.916  18.236  0.00  0.00    +0.000 A 
ATOM     24  C   UNL     1       4.757   4.623  18.592  0.00  0.00    +0.000 A 
ATOM     25  C   UNL     1       3.795   3.670  18.923  0.00  0.00    +0.000 A 
ATOM     26  C   UNL     1       2.432   3.997  18.889  0.00  0.00    +0.000 A 
ATOM     27  C   UNL     1       2.054   5.294  18.502  0.00  0.00    +0.000 A 
BRANCH  26  28
ATOM     28  C   UNL     1       1.375   2.999  19.291  0.00  0.00    +0.000 C 
ATOM     29  F   UNL     1       1.879   1.802  19.702  0.00  0.00    +0.000 F 
ATOM     30  F   UNL     1       0.602   3.450  20.320  0.00  0.00    +0.000 F 
ATOM     31  F   UNL     1       0.511   2.713  18.277  0.00  0.00    +0.000 F 
ENDBRANCH  26  28
ENDBRANCH  21  22
ENDBRANCH  12  21
TORSDOF 4
ENDMDL
MODEL 3
REMARK VINA RESULT:      -8.0      6.462     10.040
REMARK  Name = 
REMARK  4 active torsions:
REMARK  status: ('A' for Active; 'I' for Inactive)
REMARK    1  A    between atoms: C_2  and  C_4
REMARK    2  A    between atoms: C_15  and  C_16
REMARK    3  A    between atoms: C_16  and  C_17
REMARK    4  A    between atoms: C_21  and  C_22
REMARK                            x       y       z     vdW  Elec       q    Type
REMARK                         _______ _______ _______ _____ _____    ______ ____
ROOT
ATOM      1  C   UNL     1       0.899  15.078  19.028  0.00  0.00    +0.000 A 
ATOM      2  C   UNL     1       2.111  15.229  18.338  0.00  0.00    +0.000 A 
ATOM      3  C   UNL     1       2.920  14.116  18.070  0.00  0.00    +0.000 A 
ATOM      4  C   UNL     1       2.526  12.841  18.476  0.00  0.00    +0.000 A 
ATOM      5  C   UNL     1       1.322  12.680  19.149  0.00  0.00    +0.000 A 
ATOM      6  C   UNL     1       0.536  13.802  19.452  0.00  0.00    +0.000 A 
ATOM      7  C   UNL     1      -0.685  13.359  20.193  0.00  0.00    +0.000 C 
ATOM      8  C   UNL     1      -0.341  11.894  20.529  0.00  0.00    +0.000 C 
ATOM      9  N   UNL     1       0.737  11.486  19.618  0.00  0.00    +0.000 N 
ATOM     10  C   UNL     1       1.175  10.166  19.648  0.00  0.00    +0.000 A 
ATOM     11  C   UNL     1       1.818   9.606  18.541  0.00  0.00    +0.000 A 
ATOM     12  C   UNL     1       2.234   8.268  18.554  0.00  0.00    +0.000 A 
ATOM     13  C   UNL     1       2.004   7.522  19.708  0.00  0.00    +0.000 A 
ATOM     14  C   UNL     1       1.357   8.136  20.764  0.00  0.00    +0.000 A 
ATOM     15  N   UNL     1       0.924   9.415  20.746  0.00  0.00    +0.000 NA
ENDROOT
BRANCH   1  17
ATOM     16  N   UNL     1      -0.800  16.642  18.276  0.00  0.00    +0.000 N 
ATOM     17  C   UNL     1       0.027  16.250  19.296  0.00  0.00    +0.000 C 
ATOM     18  O   UNL     1       0.004  16.825  20.372  0.00  0.00    +0.000 OA
ATOM     19  H   UNL     1      -1.470  17.366  18.501  0.00  0.00    +0.000 HD
ATOM     20  H   UNL     1      -0.989  16.056  17.478  0.00  0.00    +0.000 HD
ENDBRANCH   1  17
BRANCH  12  21
ATOM     21  C   UNL     1       2.941   7.667  17.362  0.00  0.00    +0.000 C 
BRANCH  21  22
ATOM     22  C   UNL     1       3.723   6.421  17.710  0.00  0.00    +0.000 A 
ATOM     23  C   UNL     1       3.073   5.189  17.871  0.00  0.00    +0.000 A 
ATOM     24  C   UNL     1       3.807   4.028  18.114  0.00  0.00    +0.000 A 
ATOM     25  C   UNL     1       5.199   4.079  18.180  0.00  0.00    +0.000 A 
ATOM     26  C   UNL     1       5.872   5.299  18.019  0.00  0.00    +0.000 A 
ATOM     27  C   UNL     1       5.121   6.466  17.805  0.00  0.00    +0.000 A 
BRANCH  26  28
ATOM     28  C   UNL     1       7.379   5.371  18.039  0.00  0.00    +0.000 C 
ATOM     29  F   UNL     1       7.983   4.448  17.240  0.00  0.00    +0.000 F 
ATOM     30  F   UNL     1       7.843   6.584  17.623  0.00  0.00    +0.000 F 
ATOM     31  F   UNL     1       7.896   5.185  19.285  0.00  0.00    +0.000 F 
ENDBRANCH  26  28
ENDBRANCH  21  22
ENDBRANCH  12  21
TORSDOF 4
ENDMDL
MODEL 4
REMARK VINA RESULT:      -8.0      1.665      2.181
REMARK  Name = 
REMARK  4 active torsions:
REMARK  status: ('A' for Active; 'I' for Inactive)
REMARK    1  A    between atoms: C_2  and  C_4
REMARK    2  A    between atoms: C_15  and  C_16
REMARK    3  A    between atoms: C_16  and  C_17
REMARK    4  A    between atoms: C_21  and  C_22
REMARK                            x       y       z     vdW  Elec       q    Type
REMARK                         _______ _______ _______ _____ _____    ______ ____
ROOT
ATOM      1  C   UNL     1       3.183   4.620  19.298  0.00  0.00    +0.000 A 
ATOM      2  C   UNL     1       2.546   4.435  20.535  0.00  0.00    +0.000 A 
ATOM      3  C   UNL     1       1.803   5.472  21.113  0.00  0.00    +0.000 A 
ATOM      4  C   UNL     1       1.678   6.701  20.464  0.00  0.00    +0.000 A 
ATOM      5  C   UNL     1       2.294   6.888  19.235  0.00  0.00    +0.000 A 
ATOM      6  C   UNL     1       3.072   5.861  18.679  0.00  0.00    +0.000 A 
ATOM      7  C   UNL     1       3.637   6.326  17.374  0.00  0.00    +0.000 C 
ATOM      8  C   UNL     1       3.328   7.836  17.412  0.00  0.00    +0.000 C 
ATOM      9  N   UNL     1       2.271   8.033  18.412  0.00  0.00    +0.000 N 
ATOM     10  C   UNL     1       1.736   9.308  18.578  0.00  0.00    +0.000 A 
ATOM     11  C   UNL     1       0.462   9.477  19.127  0.00  0.00    +0.000 A 
ATOM     12  C   UNL     1      -0.093  10.755  19.269  0.00  0.00    +0.000 A 
ATOM     13  C   UNL     1       0.669  11.849  18.864  0.00  0.00    +0.000 A 
ATOM     14  C   UNL     1       1.918  11.609  18.324  0.00  0.00    +0.000 A 
ATOM     15  N   UNL     1       2.447  10.378  18.154  0.00  0.00    +0.000 NA
ENDROOT
BRANCH   1  17
ATOM     16  N   UNL     1       5.271   3.411  19.024  0.00  0.00    +0.000 N 
ATOM     17  C   UNL     1       3.953   3.517  18.669  0.00  0.00    +0.000 C 
ATOM     18  O   UNL     1       3.448   2.712  17.902  0.00  0.00    +0.000 OA
ATOM     19  H   UNL     1       5.760   2.594  18.682  0.00  0.00    +0.000 HD
ATOM     20  H   UNL     1       5.655   3.889  19.825  0.00  0.00    +0.000 HD
ENDBRANCH   1  17
BRANCH  12  21
ATOM     21  C   UNL     1      -1.465  10.938  19.875  0.00  0.00    +0.000 C 
BRANCH  21  22
ATOM     22  C   UNL     1      -2.551  11.086  18.834  0.00  0.00    +0.000 A 
ATOM     23  C   UNL     1      -3.642  11.940  19.051  0.00  0.00    +0.000 A 
ATOM     24  C   UNL     1      -4.599  12.133  18.055  0.00  0.00    +0.000 A 
ATOM     25  C   UNL     1      -4.471  11.490  16.824  0.00  0.00    +0.000 A 
ATOM     26  C   UNL     1      -3.388  10.633  16.582  0.00  0.00    +0.000 A 
ATOM     27  C   UNL     1      -2.445  10.423  17.602  0.00  0.00    +0.000 A 
BRANCH  26  28
ATOM     28  C   UNL     1      -3.201   9.966  15.242  0.00  0.00    +0.000 C 
ATOM     29  F   UNL     1      -4.368   9.598  14.644  0.00  0.00    +0.000 F 
ATOM     30  F   UNL     1      -2.563  10.773  14.347  0.00  0.00    +0.000 F 
ATOM     31  F   UNL     1      -2.448   8.834  15.321  0.00  0.00    +0.000 F 
ENDBRANCH  26  28
ENDBRANCH  21  22
ENDBRANCH  12  21
TORSDOF 4
ENDMDL
MODEL 5
REMARK VINA RESULT:      -8.0      6.436      9.660
REMARK  Name = 
REMARK  4 active torsions:
REMARK  status: ('A' for Active; 'I' for Inactive)
REMARK    1  A    between atoms: C_2  and  C_4
REMARK    2  A    between atoms: C_15  and  C_16
REMARK    3  A    between atoms: C_16  and  C_17
REMARK    4  A    between atoms: C_21  and  C_22
REMARK                            x       y       z     vdW  Elec       q    Type
REMARK                         _______ _______ _______ _____ _____    ______ ____
ROOT
ATOM      1  C   UNL     1      -0.952  12.677  22.656  0.00  0.00    +0.000 A 
ATOM      2  C   UNL     1      -1.553  11.652  23.402  0.00  0.00    +0.000 A 
ATOM      3  C   UNL     1      -1.342  10.309  23.064  0.00  0.00    +0.000 A 
ATOM      4  C   UNL     1      -0.522   9.971  21.987  0.00  0.00    +0.000 A 
ATOM      5  C   UNL     1       0.087  10.978  21.251  0.00  0.00    +0.000 A 
ATOM      6  C   UNL     1      -0.161  12.323  21.567  0.00  0.00    +0.000 A 
ATOM      7  C   UNL     1       0.591  13.196  20.614  0.00  0.00    +0.000 C 
ATOM      8  C   UNL     1       1.050  12.184  19.546  0.00  0.00    +0.000 C 
ATOM      9  N   UNL     1       0.961  10.850  20.152  0.00  0.00    +0.000 N 
ATOM     10  C   UNL     1       1.410   9.752  19.423  0.00  0.00    +0.000 A 
ATOM     11  C   UNL     1       1.795   8.577  20.074  0.00  0.00    +0.000 A 
ATOM     12  C   UNL     1       2.276   7.480  19.348  0.00  0.00    +0.000 A 
ATOM     13  C   UNL     1       2.342   7.591  17.961  0.00  0.00    +0.000 A 
ATOM     14  C   UNL     1       1.952   8.784  17.382  0.00  0.00    +0.000 A 
ATOM     15  N   UNL     1       1.517   9.857  18.078  0.00  0.00    +0.000 NA
ENDROOT
BRANCH   1  17
ATOM     16  N   UNL     1      -2.165  14.762  22.378  0.00  0.00    +0.000 N 
ATOM     17  C   UNL     1      -1.154  14.102  23.024  0.00  0.00    +0.000 C 
ATOM     18  O   UNL     1      -0.490  14.664  23.880  0.00  0.00    +0.000 OA
ATOM     19  H   UNL     1      -2.371  15.695  22.712  0.00  0.00    +0.000 HD
ATOM     20  H   UNL     1      -2.881  14.279  21.858  0.00  0.00    +0.000 HD
ENDBRANCH   1  17
BRANCH  12  21
ATOM     21  C   UNL     1       2.679   6.205  20.051  0.00  0.00    +0.000 C 
BRANCH  21  22
ATOM     22  C   UNL     1       3.619   5.353  19.229  0.00  0.00    +0.000 A 
ATOM     23  C   UNL     1       3.126   4.328  18.409  0.00  0.00    +0.000 A 
ATOM     24  C   UNL     1       3.990   3.598  17.592  0.00  0.00    +0.000 A 
ATOM     25  C   UNL     1       5.353   3.893  17.570  0.00  0.00    +0.000 A 
ATOM     26  C   UNL     1       5.870   4.915  18.380  0.00  0.00    +0.000 A 
ATOM     27  C   UNL     1       4.995   5.624  19.220  0.00  0.00    +0.000 A 
BRANCH  26  28
ATOM     28  C   UNL     1       7.331   5.284  18.338  0.00  0.00    +0.000 C 
ATOM     29  F   UNL     1       7.607   6.343  17.527  0.00  0.00    +0.000 F 
ATOM     30  F   UNL     1       7.814   5.622  19.568  0.00  0.00    +0.000 F 
ATOM     31  F   UNL     1       8.118   4.262  17.900  0.00  0.00    +0.000 F 
ENDBRANCH  26  28
ENDBRANCH  21  22
ENDBRANCH  12  21
TORSDOF 4
ENDMDL
MODEL 6
REMARK VINA RESULT:      -8.0      6.187      9.775
REMARK  Name = 
REMARK  4 active torsions:
REMARK  status: ('A' for Active; 'I' for Inactive)
REMARK    1  A    between atoms: C_2  and  C_4
REMARK    2  A    between atoms: C_15  and  C_16
REMARK    3  A    between atoms: C_16  and  C_17
REMARK    4  A    between atoms: C_21  and  C_22
REMARK                            x       y       z     vdW  Elec       q    Type
REMARK                         _______ _______ _______ _____ _____    ______ ____
ROOT
ATOM      1  C   UNL     1       0.801  10.205  19.599  0.00  0.00    +0.000 A 
ATOM      2  C   UNL     1       1.392  10.640  18.403  0.00  0.00    +0.000 A 
ATOM      3  C   UNL     1       2.207   9.777  17.658  0.00  0.00    +0.000 A 
ATOM      4  C   UNL     1       2.436   8.471  18.091  0.00  0.00    +0.000 A 
ATOM      5  C   UNL     1       1.845   8.028  19.267  0.00  0.00    +0.000 A 
ATOM      6  C   UNL     1       1.063   8.908  20.031  0.00  0.00    +0.000 A 
ATOM      7  C   UNL     1       0.570   8.194  21.248  0.00  0.00    +0.000 C 
ATOM      8  C   UNL     1       1.412   6.903  21.225  0.00  0.00    +0.000 C 
ATOM      9  N   UNL     1       1.929   6.751  19.859  0.00  0.00    +0.000 N 
ATOM     10  C   UNL     1       2.652   5.605  19.540  0.00  0.00    +0.000 A 
ATOM     11  C   UNL     1       2.753   5.176  18.214  0.00  0.00    +0.000 A 
ATOM     12  C   UNL     1       3.454   4.007  17.891  0.00  0.00    +0.000 A 
ATOM     13  C   UNL     1       4.060   3.299  18.926  0.00  0.00    +0.000 A 
ATOM     14  C   UNL     1       3.915   3.777  20.215  0.00  0.00    +0.000 A 
ATOM     15  N   UNL     1       3.214   4.885  20.538  0.00  0.00    +0.000 NA
ENDROOT
BRANCH   1  17
ATOM     16  N   UNL     1       0.505  11.802  21.404  0.00  0.00    +0.000 N 
ATOM     17  C   UNL     1      -0.083  11.108  20.380  0.00  0.00    +0.000 C 
ATOM     18  O   UNL     1      -1.264  11.266  20.118  0.00  0.00    +0.000 OA
ATOM     19  H   UNL     1      -0.074  12.498  21.859  0.00  0.00    +0.000 HD
ATOM     20  H   UNL     1       1.505  11.890  21.495  0.00  0.00    +0.000 HD
ENDBRANCH   1  17
BRANCH  12  21
ATOM     21  C   UNL     1       3.573   3.550  16.455  0.00  0.00    +0.000 C 
BRANCH  21  22
ATOM     22  C   UNL     1       4.845   4.028  15.792  0.00  0.00    +0.000 A 
ATOM     23  C   UNL     1       5.861   4.634  16.543  0.00  0.00    +0.000 A 
ATOM     24  C   UNL     1       7.065   5.001  15.940  0.00  0.00    +0.000 A 
ATOM     25  C   UNL     1       7.274   4.753  14.584  0.00  0.00    +0.000 A 
ATOM     26  C   UNL     1       6.273   4.146  13.811  0.00  0.00    +0.000 A 
ATOM     27  C   UNL     1       5.055   3.807  14.423  0.00  0.00    +0.000 A 
BRANCH  26  28
ATOM     28  C   UNL     1       6.495   3.823  12.355  0.00  0.00    +0.000 C 
ATOM     29  F   UNL     1       5.356   3.847  11.608  0.00  0.00    +0.000 F 
ATOM     30  F   UNL     1       7.352   4.698  11.756  0.00  0.00    +0.000 F 
ATOM     31  F   UNL     1       7.039   2.588  12.169  0.00  0.00    +0.000 F 
ENDBRANCH  26  28
ENDBRANCH  21  22
ENDBRANCH  12  21
TORSDOF 4
ENDMDL
MODEL 7
REMARK VINA RESULT:      -7.9      6.188      9.337
REMARK  Name = 
REMARK  4 active torsions:
REMARK  status: ('A' for Active; 'I' for Inactive)
REMARK    1  A    between atoms: C_2  and  C_4
REMARK    2  A    between atoms: C_15  and  C_16
REMARK    3  A    between atoms: C_16  and  C_17
REMARK    4  A    between atoms: C_21  and  C_22
REMARK                            x       y       z     vdW  Elec       q    Type
REMARK                         _______ _______ _______ _____ _____    ______ ____
ROOT
ATOM      1  C   UNL     1      -0.886  13.319  22.754  0.00  0.00    +0.000 A 
ATOM      2  C   UNL     1      -1.641  12.352  23.434  0.00  0.00    +0.000 A 
ATOM      3  C   UNL     1      -1.559  11.001  23.071  0.00  0.00    +0.000 A 
ATOM      4  C   UNL     1      -0.717  10.597  22.034  0.00  0.00    +0.000 A 
ATOM      5  C   UNL     1       0.043  11.545  21.364  0.00  0.00    +0.000 A 
ATOM      6  C   UNL     1      -0.074  12.902  21.703  0.00  0.00    +0.000 A 
ATOM      7  C   UNL     1       0.827  13.707  20.821  0.00  0.00    +0.000 C 
ATOM      8  C   UNL     1       1.235  12.673  19.753  0.00  0.00    +0.000 C 
ATOM      9  N   UNL     1       0.963  11.344  20.315  0.00  0.00    +0.000 N 
ATOM     10  C   UNL     1       1.332  10.219  19.582  0.00  0.00    +0.000 A 
ATOM     11  C   UNL     1       1.544   8.995  20.221  0.00  0.00    +0.000 A 
ATOM     12  C   UNL     1       1.945   7.866  19.493  0.00  0.00    +0.000 A 
ATOM     13  C   UNL     1       2.107   7.999  18.116  0.00  0.00    +0.000 A 
ATOM     14  C   UNL     1       1.887   9.241  17.550  0.00  0.00    +0.000 A 
ATOM     15  N   UNL     1       1.532  10.340  18.250  0.00  0.00    +0.000 NA
ENDROOT
BRANCH   1  17
ATOM     16  N   UNL     1      -1.814  15.541  22.439  0.00  0.00    +0.000 N 
ATOM     17  C   UNL     1      -0.951  14.749  23.149  0.00  0.00    +0.000 C 
ATOM     18  O   UNL     1      -0.307  15.208  24.079  0.00  0.00    +0.000 OA
ATOM     19  H   UNL     1      -1.939  16.484  22.785  0.00  0.00    +0.000 HD
ATOM     20  H   UNL     1      -2.532  15.159  21.843  0.00  0.00    +0.000 HD
ENDBRANCH   1  17
BRANCH  12  21
ATOM     21  C   UNL     1       2.161   6.539  20.182  0.00  0.00    +0.000 C 
BRANCH  21  22
ATOM     22  C   UNL     1       2.487   5.423  19.217  0.00  0.00    +0.000 A 
ATOM     23  C   UNL     1       1.512   4.483  18.853  0.00  0.00    +0.000 A 
ATOM     24  C   UNL     1       1.795   3.503  17.901  0.00  0.00    +0.000 A 
ATOM     25  C   UNL     1       3.047   3.459  17.288  0.00  0.00    +0.000 A 
ATOM     26  C   UNL     1       4.037   4.390  17.634  0.00  0.00    +0.000 A 
ATOM     27  C   UNL     1       3.752   5.354  18.615  0.00  0.00    +0.000 A 
BRANCH  26  28
ATOM     28  C   UNL     1       5.382   4.393  16.951  0.00  0.00    +0.000 C 
ATOM     29  F   UNL     1       6.435   4.337  17.812  0.00  0.00    +0.000 F 
ATOM     30  F   UNL     1       5.535   3.333  16.106  0.00  0.00    +0.000 F 
ATOM     31  F   UNL     1       5.580   5.505  16.189  0.00  0.00    +0.000 F 
ENDBRANCH  26  28
ENDBRANCH  21  22
ENDBRANCH  12  21
TORSDOF 4
ENDMDL
MODEL 8
REMARK VINA RESULT:      -7.9      5.529      9.272
REMARK  Name = 
REMARK  4 active torsions:
REMARK  status: ('A' for Active; 'I' for Inactive)
REMARK    1  A    between atoms: C_2  and  C_4
REMARK    2  A    between atoms: C_15  and  C_16
REMARK    3  A    between atoms: C_16  and  C_17
REMARK    4  A    between atoms: C_21  and  C_22
REMARK                            x       y       z     vdW  Elec       q    Type
REMARK                         _______ _______ _______ _____ _____    ______ ____
ROOT
ATOM      1  C   UNL     1       0.611  10.761  19.680  0.00  0.00    +0.000 A 
ATOM      2  C   UNL     1       1.415  11.121  18.587  0.00  0.00    +0.000 A 
ATOM      3  C   UNL     1       2.262  10.180  17.988  0.00  0.00    +0.000 A 
ATOM      4  C   UNL     1       2.312   8.869  18.462  0.00  0.00    +0.000 A 
ATOM      5  C   UNL     1       1.511   8.501  19.534  0.00  0.00    +0.000 A 
ATOM      6  C   UNL     1       0.696   9.457  20.159  0.00  0.00    +0.000 A 
ATOM      7  C   UNL     1      -0.039   8.811  21.290  0.00  0.00    +0.000 C 
ATOM      8  C   UNL     1       0.688   7.457  21.411  0.00  0.00    +0.000 C 
ATOM      9  N   UNL     1       1.396   7.234  20.143  0.00  0.00    +0.000 N 
ATOM     10  C   UNL     1       2.062   6.028  19.952  0.00  0.00    +0.000 A 
ATOM     11  C   UNL     1       2.333   5.563  18.662  0.00  0.00    +0.000 A 
ATOM     12  C   UNL     1       2.976   4.334  18.463  0.00  0.00    +0.000 A 
ATOM     13  C   UNL     1       3.354   3.603  19.586  0.00  0.00    +0.000 A 
ATOM     14  C   UNL     1       3.050   4.119  20.832  0.00  0.00    +0.000 A 
ATOM     15  N   UNL     1       2.401   5.286  21.032  0.00  0.00    +0.000 NA
ENDROOT
BRANCH   1  17
ATOM     16  N   UNL     1       0.211  12.501  21.326  0.00  0.00    +0.000 N 
ATOM     17  C   UNL     1      -0.306  11.748  20.305  0.00  0.00    +0.000 C 
ATOM     18  O   UNL     1      -1.451  11.923  19.920  0.00  0.00    +0.000 OA
ATOM     19  H   UNL     1      -0.380  13.247  21.671  0.00  0.00    +0.000 HD
ATOM     20  H   UNL     1       1.201  12.563  21.505  0.00  0.00    +0.000 HD
ENDBRANCH   1  17
BRANCH  12  21
ATOM     21  C   UNL     1       3.280   3.839  17.068  0.00  0.00    +0.000 C 
BRANCH  21  22
ATOM     22  C   UNL     1       4.641   4.274  16.574  0.00  0.00    +0.000 A 
ATOM     23  C   UNL     1       5.196   3.714  15.415  0.00  0.00    +0.000 A 
ATOM     24  C   UNL     1       6.415   4.176  14.920  0.00  0.00    +0.000 A 
ATOM     25  C   UNL     1       7.087   5.214  15.565  0.00  0.00    +0.000 A 
ATOM     26  C   UNL     1       6.551   5.792  16.724  0.00  0.00    +0.000 A 
ATOM     27  C   UNL     1       5.337   5.300  17.231  0.00  0.00    +0.000 A 
BRANCH  26  28
ATOM     28  C   UNL     1       7.234   6.948  17.411  0.00  0.00    +0.000 C 
ATOM     29  F   UNL     1       7.881   6.600  18.558  0.00  0.00    +0.000 F 
ATOM     30  F   UNL     1       8.174   7.538  16.618  0.00  0.00    +0.000 F 
ATOM     31  F   UNL     1       6.367   7.939  17.757  0.00  0.00    +0.000 F 
ENDBRANCH  26  28
ENDBRANCH  21  22
ENDBRANCH  12  21
TORSDOF 4
ENDMDL
MODEL 9
REMARK VINA RESULT:      -7.9      5.502      9.300
REMARK  Name = 
REMARK  4 active torsions:
REMARK  status: ('A' for Active; 'I' for Inactive)
REMARK    1  A    between atoms: C_2  and  C_4
REMARK    2  A    between atoms: C_15  and  C_16
REMARK    3  A    between atoms: C_16  and  C_17
REMARK    4  A    between atoms: C_21  and  C_22
REMARK                            x       y       z     vdW  Elec       q    Type
REMARK                         _______ _______ _______ _____ _____    ______ ____
ROOT
ATOM      1  C   UNL     1      -5.814  12.063  18.914  0.00  0.00    +0.000 A 
ATOM      2  C   UNL     1      -5.807  11.577  17.598  0.00  0.00    +0.000 A 
ATOM      3  C   UNL     1      -4.597  11.306  16.946  0.00  0.00    +0.000 A 
ATOM      4  C   UNL     1      -3.381  11.507  17.600  0.00  0.00    +0.000 A 
ATOM      5  C   UNL     1      -3.378  11.976  18.907  0.00  0.00    +0.000 A 
ATOM      6  C   UNL     1      -4.591  12.285  19.541  0.00  0.00    +0.000 A 
ATOM      7  C   UNL     1      -4.308  12.788  20.921  0.00  0.00    +0.000 C 
ATOM      8  C   UNL     1      -2.783  13.004  20.876  0.00  0.00    +0.000 C 
ATOM      9  N   UNL     1      -2.271  12.220  19.745  0.00  0.00    +0.000 N 
ATOM     10  C   UNL     1      -0.896  12.165  19.536  0.00  0.00    +0.000 A 
ATOM     11  C   UNL     1      -0.328  11.108  18.821  0.00  0.00    +0.000 A 
ATOM     12  C   UNL     1       1.059  11.031  18.633  0.00  0.00    +0.000 A 
ATOM     13  C   UNL     1       1.848  12.049  19.164  0.00  0.00    +0.000 A 
ATOM     14  C   UNL     1       1.221  13.062  19.865  0.00  0.00    +0.000 A 
ATOM     15  N   UNL     1      -0.111  13.125  20.078  0.00  0.00    +0.000 NA
ENDROOT
BRANCH   1  17
ATOM     16  N   UNL     1      -7.729  13.504  19.308  0.00  0.00    +0.000 N 
ATOM     17  C   UNL     1      -7.094  12.330  19.618  0.00  0.00    +0.000 C 
ATOM     18  O   UNL     1      -7.592  11.543  20.406  0.00  0.00    +0.000 OA
ATOM     19  H   UNL     1      -8.652  13.627  19.703  0.00  0.00    +0.000 HD
ATOM     20  H   UNL     1      -7.486  14.052  18.497  0.00  0.00    +0.000 HD
ENDBRANCH   1  17
BRANCH  12  21
ATOM     21  C   UNL     1       1.671   9.894  17.849  0.00  0.00    +0.000 C 
BRANCH  21  22
ATOM     22  C   UNL     1       1.853   8.642  18.676  0.00  0.00    +0.000 A 
ATOM     23  C   UNL     1       1.489   8.618  20.030  0.00  0.00    +0.000 A 
ATOM     24  C   UNL     1       1.584   7.437  20.767  0.00  0.00    +0.000 A 
ATOM     25  C   UNL     1       2.028   6.264  20.158  0.00  0.00    +0.000 A 
ATOM     26  C   UNL     1       2.396   6.262  18.805  0.00  0.00    +0.000 A 
ATOM     27  C   UNL     1       2.323   7.463  18.080  0.00  0.00    +0.000 A 
BRANCH  26  28
ATOM     28  C   UNL     1       2.832   4.995  18.113  0.00  0.00    +0.000 C 
ATOM     29  F   UNL     1       1.816   4.327  17.499  0.00  0.00    +0.000 F 
ATOM     30  F   UNL     1       3.762   5.230  17.144  0.00  0.00    +0.000 F 
ATOM     31  F   UNL     1       3.405   4.102  18.967  0.00  0.00    +0.000 F 
ENDBRANCH  26  28
ENDBRANCH  21  22
ENDBRANCH  12  21
TORSDOF 4
ENDMDL
