MODEL 1
REMARK VINA RESULT:      -7.1      0.000      0.000
REMARK  Name = 
REMARK  2 active torsions:
REMARK  status: ('A' for Active; 'I' for Inactive)
REMARK    1  A    between atoms: N_8  and  C_9
REMARK    2  A    between atoms: C_9  and  C_10
REMARK                            x       y       z     vdW  Elec       q    Type
REMARK                         _______ _______ _______ _____ _____    ______ ____
ROOT
ATOM      1  O   UNL     1       8.449   8.136  18.629  0.00  0.00    +0.000 OA
ATOM      2  C   UNL     1       7.860   7.188  18.136  0.00  0.00    +0.000 C 
ATOM      3  C   UNL     1       6.626   7.361  17.240  0.00  0.00    +0.000 C 
ATOM      4  O   UNL     1       6.325   6.213  16.463  0.00  0.00    +0.000 OA
ATOM      5  C   UNL     1       6.274   5.007  17.255  0.00  0.00    +0.000 C 
ATOM      6  C   UNL     1       5.333   5.154  18.464  0.00  0.00    +0.000 C 
ATOM      7  C   UNL     1       3.896   5.295  18.009  0.00  0.00    +0.000 C 
ATOM      8  N   UNL     1       3.479   4.114  17.242  0.00  0.00    +0.000 NA
ATOM      9  C   UNL     1       4.281   4.040  16.008  0.00  0.00    +0.000 C 
ATOM     10  C   UNL     1       5.792   3.914  16.276  0.00  0.00    +0.000 C 
ATOM     11  C   UNL     1       7.669   4.706  17.828  0.00  0.00    +0.000 C 
ATOM     12  N   UNL     1       8.318   5.914  18.337  0.00  0.00    +0.000 N 
ATOM     13  H   UNL     1       9.131   5.826  18.948  0.00  0.00    +0.000 HD
ENDROOT
BRANCH   8  14
ATOM     14  C   UNL     1       3.552   2.855  18.015  0.00  0.00    +0.000 C 
BRANCH  14  15
ATOM     15  C   UNL     1       2.789   2.892  19.311  0.00  0.00    +0.000 A 
ATOM     16  C   UNL     1       1.413   3.151  19.367  0.00  0.00    +0.000 A 
ATOM     17  C   UNL     1       0.753   3.117  20.588  0.00  0.00    +0.000 A 
ATOM     18  C   UNL     1       1.494   2.832  21.723  0.00  0.00    +0.000 A 
ATOM     19  N   UNL     1       2.819   2.566  21.710  0.00  0.00    +0.000 NA
ATOM     20  C   UNL     1       3.431   2.590  20.508  0.00  0.00    +0.000 A 
ENDBRANCH  14  15
ENDBRANCH   8  14
TORSDOF 2
ENDMDL
MODEL 2
REMARK VINA RESULT:      -7.1      3.086      6.629
REMARK  Name = 
REMARK  2 active torsions:
REMARK  status: ('A' for Active; 'I' for Inactive)
REMARK    1  A    between atoms: N_8  and  C_9
REMARK    2  A    between atoms: C_9  and  C_10
REMARK                            x       y       z     vdW  Elec       q    Type
REMARK                         _______ _______ _______ _____ _____    ______ ____
ROOT
ATOM      1  O   UNL     1       0.123   2.208  18.779  0.00  0.00    +0.000 OA
ATOM      2  C   UNL     1       1.270   2.615  18.854  0.00  0.00    +0.000 C 
ATOM      3  C   UNL     1       1.620   4.108  18.794  0.00  0.00    +0.000 C 
ATOM      4  O   UNL     1       2.919   4.406  19.279  0.00  0.00    +0.000 OA
ATOM      5  C   UNL     1       3.936   3.571  18.686  0.00  0.00    +0.000 C 
ATOM      6  C   UNL     1       3.871   3.592  17.148  0.00  0.00    +0.000 C 
ATOM      7  C   UNL     1       4.237   4.962  16.616  0.00  0.00    +0.000 C 
ATOM      8  N   UNL     1       5.599   5.328  17.025  0.00  0.00    +0.000 NA
ATOM      9  C   UNL     1       5.641   5.446  18.493  0.00  0.00    +0.000 C 
ATOM     10  C   UNL     1       5.271   4.138  19.216  0.00  0.00    +0.000 C 
ATOM     11  C   UNL     1       3.714   2.108  19.106  0.00  0.00    +0.000 C 
ATOM     12  N   UNL     1       2.301   1.735  19.042  0.00  0.00    +0.000 N 
ATOM     13  H   UNL     1       2.042   0.748  19.064  0.00  0.00    +0.000 HD
ENDROOT
BRANCH   8  14
ATOM     14  C   UNL     1       6.633   4.395  16.525  0.00  0.00    +0.000 C 
BRANCH  14  15
ATOM     15  C   UNL     1       6.798   4.416  15.030  0.00  0.00    +0.000 A 
ATOM     16  C   UNL     1       6.073   3.569  14.181  0.00  0.00    +0.000 A 
ATOM     17  C   UNL     1       6.228   3.673  12.805  0.00  0.00    +0.000 A 
ATOM     18  C   UNL     1       7.113   4.620  12.318  0.00  0.00    +0.000 A 
ATOM     19  N   UNL     1       7.821   5.462  13.101  0.00  0.00    +0.000 NA
ATOM     20  C   UNL     1       7.639   5.350  14.434  0.00  0.00    +0.000 A 
ENDBRANCH  14  15
ENDBRANCH   8  14
TORSDOF 2
ENDMDL
MODEL 3
REMARK VINA RESULT:      -7.0      3.118      6.453
REMARK  Name = 
REMARK  2 active torsions:
REMARK  status: ('A' for Active; 'I' for Inactive)
REMARK    1  A    between atoms: N_8  and  C_9
REMARK    2  A    between atoms: C_9  and  C_10
REMARK                            x       y       z     vdW  Elec       q    Type
REMARK                         _______ _______ _______ _____ _____    ______ ____
ROOT
ATOM      1  O   UNL     1       0.937   3.564  20.653  0.00  0.00    +0.000 OA
ATOM      2  C   UNL     1       2.073   3.816  20.288  0.00  0.00    +0.000 C 
ATOM      3  C   UNL     1       2.479   5.198  19.757  0.00  0.00    +0.000 C 
ATOM      4  O   UNL     1       3.882   5.414  19.754  0.00  0.00    +0.000 OA
ATOM      5  C   UNL     1       4.606   4.337  19.120  0.00  0.00    +0.000 C 
ATOM      6  C   UNL     1       4.062   4.031  17.713  0.00  0.00    +0.000 C 
ATOM      7  C   UNL     1       4.328   5.188  16.773  0.00  0.00    +0.000 C 
ATOM      8  N   UNL     1       5.769   5.444  16.664  0.00  0.00    +0.000 NA
ATOM      9  C   UNL     1       6.278   5.874  17.979  0.00  0.00    +0.000 C 
ATOM     10  C   UNL     1       6.072   4.819  19.081  0.00  0.00    +0.000 C 
ATOM     11  C   UNL     1       4.435   3.047  19.938  0.00  0.00    +0.000 C 
ATOM     12  N   UNL     1       3.053   2.866  20.383  0.00  0.00    +0.000 N 
ATOM     13  H   UNL     1       2.752   1.952  20.725  0.00  0.00    +0.000 HD
ENDROOT
BRANCH   8  14
ATOM     14  C   UNL     1       6.533   4.292  16.136  0.00  0.00    +0.000 C 
BRANCH  14  15
ATOM     15  C   UNL     1       6.772   4.350  14.652  0.00  0.00    +0.000 A 
ATOM     16  C   UNL     1       6.086   3.529  13.747  0.00  0.00    +0.000 A 
ATOM     17  C   UNL     1       6.309   3.668  12.383  0.00  0.00    +0.000 A 
ATOM     18  C   UNL     1       7.220   4.622  11.965  0.00  0.00    +0.000 A 
ATOM     19  N   UNL     1       7.893   5.440  12.803  0.00  0.00    +0.000 NA
ATOM     20  C   UNL     1       7.645   5.294  14.122  0.00  0.00    +0.000 A 
ENDBRANCH  14  15
ENDBRANCH   8  14
TORSDOF 2
ENDMDL
MODEL 4
REMARK VINA RESULT:      -6.9      3.088      6.549
REMARK  Name = 
REMARK  2 active torsions:
REMARK  status: ('A' for Active; 'I' for Inactive)
REMARK    1  A    between atoms: N_8  and  C_9
REMARK    2  A    between atoms: C_9  and  C_10
REMARK                            x       y       z     vdW  Elec       q    Type
REMARK                         _______ _______ _______ _____ _____    ______ ____
ROOT
ATOM      1  O   UNL     1       1.092   2.186  22.596  0.00  0.00    +0.000 OA
ATOM      2  C   UNL     1       1.461   2.806  21.612  0.00  0.00    +0.000 C 
ATOM      3  C   UNL     1       1.122   2.360  20.183  0.00  0.00    +0.000 C 
ATOM      4  O   UNL     1       1.290   3.384  19.215  0.00  0.00    +0.000 OA
ATOM      5  C   UNL     1       2.580   4.026  19.308  0.00  0.00    +0.000 C 
ATOM      6  C   UNL     1       3.732   3.006  19.282  0.00  0.00    +0.000 C 
ATOM      7  C   UNL     1       3.814   2.326  17.931  0.00  0.00    +0.000 C 
ATOM      8  N   UNL     1       4.048   3.313  16.870  0.00  0.00    +0.000 NA
ATOM      9  C   UNL     1       2.885   4.215  16.792  0.00  0.00    +0.000 C 
ATOM     10  C   UNL     1       2.629   4.986  18.100  0.00  0.00    +0.000 C 
ATOM     11  C   UNL     1       2.692   4.768  20.650  0.00  0.00    +0.000 C 
ATOM     12  N   UNL     1       2.167   3.969  21.757  0.00  0.00    +0.000 N 
ATOM     13  H   UNL     1       2.392   4.234  22.717  0.00  0.00    +0.000 HD
ENDROOT
BRANCH   8  14
ATOM     14  C   UNL     1       5.309   4.067  17.036  0.00  0.00    +0.000 C 
BRANCH  14  15
ATOM     15  C   UNL     1       6.054   4.297  15.748  0.00  0.00    +0.000 A 
ATOM     16  C   UNL     1       5.712   3.645  14.556  0.00  0.00    +0.000 A 
ATOM     17  C   UNL     1       6.401   3.939  13.386  0.00  0.00    +0.000 A 
ATOM     18  C   UNL     1       7.419   4.875  13.447  0.00  0.00    +0.000 A 
ATOM     19  N   UNL     1       7.771   5.533  14.573  0.00  0.00    +0.000 NA
ATOM     20  C   UNL     1       7.075   5.239  15.691  0.00  0.00    +0.000 A 
ENDBRANCH  14  15
ENDBRANCH   8  14
TORSDOF 2
ENDMDL
MODEL 5
REMARK VINA RESULT:      -6.8      3.835      4.726
REMARK  Name = 
REMARK  2 active torsions:
REMARK  status: ('A' for Active; 'I' for Inactive)
REMARK    1  A    between atoms: N_8  and  C_9
REMARK    2  A    between atoms: C_9  and  C_10
REMARK                            x       y       z     vdW  Elec       q    Type
REMARK                         _______ _______ _______ _____ _____    ______ ____
ROOT
ATOM      1  O   UNL     1       7.925   4.443  16.177  0.00  0.00    +0.000 OA
ATOM      2  C   UNL     1       6.841   4.488  16.735  0.00  0.00    +0.000 C 
ATOM      3  C   UNL     1       5.550   4.871  15.996  0.00  0.00    +0.000 C 
ATOM      4  O   UNL     1       4.369   4.496  16.688  0.00  0.00    +0.000 OA
ATOM      5  C   UNL     1       4.374   4.929  18.065  0.00  0.00    +0.000 C 
ATOM      6  C   UNL     1       4.669   6.435  18.192  0.00  0.00    +0.000 C 
ATOM      7  C   UNL     1       3.537   7.253  17.606  0.00  0.00    +0.000 C 
ATOM      8  N   UNL     1       2.279   6.969  18.308  0.00  0.00    +0.000 NA
ATOM      9  C   UNL     1       1.912   5.560  18.079  0.00  0.00    +0.000 C 
ATOM     10  C   UNL     1       2.970   4.569  18.596  0.00  0.00    +0.000 C 
ATOM     11  C   UNL     1       5.493   4.206  18.831  0.00  0.00    +0.000 C 
ATOM     12  N   UNL     1       6.732   4.149  18.056  0.00  0.00    +0.000 N 
ATOM     13  H   UNL     1       7.608   3.913  18.526  0.00  0.00    +0.000 HD
ENDROOT
BRANCH   8  14
ATOM     14  C   UNL     1       2.324   7.291  19.751  0.00  0.00    +0.000 C 
BRANCH  14  15
ATOM     15  C   UNL     1       1.356   8.365  20.165  0.00  0.00    +0.000 A 
ATOM     16  C   UNL     1       0.734   8.374  21.421  0.00  0.00    +0.000 A 
ATOM     17  C   UNL     1      -0.108   9.423  21.767  0.00  0.00    +0.000 A 
ATOM     18  C   UNL     1      -0.309  10.431  20.840  0.00  0.00    +0.000 A 
ATOM     19  N   UNL     1       0.280  10.465  19.625  0.00  0.00    +0.000 NA
ATOM     20  C   UNL     1       1.105   9.442  19.321  0.00  0.00    +0.000 A 
ENDBRANCH  14  15
ENDBRANCH   8  14
TORSDOF 2
ENDMDL
MODEL 6
REMARK VINA RESULT:      -6.8      1.186      1.318
REMARK  Name = 
REMARK  2 active torsions:
REMARK  status: ('A' for Active; 'I' for Inactive)
REMARK    1  A    between atoms: N_8  and  C_9
REMARK    2  A    between atoms: C_9  and  C_10
REMARK                            x       y       z     vdW  Elec       q    Type
REMARK                         _______ _______ _______ _____ _____    ______ ____
ROOT
ATOM      1  O   UNL     1       8.480   9.266  18.670  0.00  0.00    +0.000 OA
ATOM      2  C   UNL     1       8.155   8.143  18.320  0.00  0.00    +0.000 C 
ATOM      3  C   UNL     1       7.349   7.880  17.040  0.00  0.00    +0.000 C 
ATOM      4  O   UNL     1       7.405   6.532  16.602  0.00  0.00    +0.000 OA
ATOM      5  C   UNL     1       7.099   5.594  17.657  0.00  0.00    +0.000 C 
ATOM      6  C   UNL     1       5.765   5.926  18.349  0.00  0.00    +0.000 C 
ATOM      7  C   UNL     1       4.604   5.723  17.399  0.00  0.00    +0.000 C 
ATOM      8  N   UNL     1       4.551   4.330  16.939  0.00  0.00    +0.000 NA
ATOM      9  C   UNL     1       5.764   4.040  16.154  0.00  0.00    +0.000 C 
ATOM     10  C   UNL     1       7.063   4.217  16.960  0.00  0.00    +0.000 C 
ATOM     11  C   UNL     1       8.181   5.671  18.746  0.00  0.00    +0.000 C 
ATOM     12  N   UNL     1       8.547   7.055  19.051  0.00  0.00    +0.000 N 
ATOM     13  H   UNL     1       9.069   7.259  19.904  0.00  0.00    +0.000 HD
ENDROOT
BRANCH   8  14
ATOM     14  C   UNL     1       4.369   3.355  18.036  0.00  0.00    +0.000 C 
BRANCH  14  15
ATOM     15  C   UNL     1       3.050   3.482  18.750  0.00  0.00    +0.000 A 
ATOM     16  C   UNL     1       1.839   3.078  18.171  0.00  0.00    +0.000 A 
ATOM     17  C   UNL     1       0.661   3.169  18.900  0.00  0.00    +0.000 A 
ATOM     18  C   UNL     1       0.729   3.671  20.189  0.00  0.00    +0.000 A 
ATOM     19  N   UNL     1       1.876   4.059  20.787  0.00  0.00    +0.000 NA
ATOM     20  C   UNL     1       3.008   3.945  20.061  0.00  0.00    +0.000 A 
ENDBRANCH  14  15
ENDBRANCH   8  14
TORSDOF 2
ENDMDL
MODEL 7
REMARK VINA RESULT:      -6.8      3.179      6.729
REMARK  Name = 
REMARK  2 active torsions:
REMARK  status: ('A' for Active; 'I' for Inactive)
REMARK    1  A    between atoms: N_8  and  C_9
REMARK    2  A    between atoms: C_9  and  C_10
REMARK                            x       y       z     vdW  Elec       q    Type
REMARK                         _______ _______ _______ _____ _____    ______ ____
ROOT
ATOM      1  O   UNL     1       0.201   2.140  18.567  0.00  0.00    +0.000 OA
ATOM      2  C   UNL     1       1.347   2.552  18.639  0.00  0.00    +0.000 C 
ATOM      3  C   UNL     1       1.687   4.049  18.605  0.00  0.00    +0.000 C 
ATOM      4  O   UNL     1       2.989   4.344  19.084  0.00  0.00    +0.000 OA
ATOM      5  C   UNL     1       4.005   3.527  18.465  0.00  0.00    +0.000 C 
ATOM      6  C   UNL     1       3.926   3.579  16.929  0.00  0.00    +0.000 C 
ATOM      7  C   UNL     1       4.278   4.961  16.421  0.00  0.00    +0.000 C 
ATOM      8  N   UNL     1       5.642   5.327  16.823  0.00  0.00    +0.000 NA
ATOM      9  C   UNL     1       5.697   5.416  18.294  0.00  0.00    +0.000 C 
ATOM     10  C   UNL     1       5.341   4.092  18.993  0.00  0.00    +0.000 C 
ATOM     11  C   UNL     1       3.795   2.055  18.857  0.00  0.00    +0.000 C 
ATOM     12  N   UNL     1       2.384   1.675  18.800  0.00  0.00    +0.000 N 
ATOM     13  H   UNL     1       2.131   0.686  18.804  0.00  0.00    +0.000 HD
ENDROOT
BRANCH   8  14
ATOM     14  C   UNL     1       6.676   4.410  16.296  0.00  0.00    +0.000 C 
BRANCH  14  15
ATOM     15  C   UNL     1       6.839   4.474  14.801  0.00  0.00    +0.000 A 
ATOM     16  C   UNL     1       7.719   5.369  14.178  0.00  0.00    +0.000 A 
ATOM     17  C   UNL     1       7.867   5.343  12.797  0.00  0.00    +0.000 A 
ATOM     18  C   UNL     1       7.122   4.423  12.079  0.00  0.00    +0.000 A 
ATOM     19  N   UNL     1       6.273   3.537  12.642  0.00  0.00    +0.000 NA
ATOM     20  C   UNL     1       6.160   3.574  13.987  0.00  0.00    +0.000 A 
ENDBRANCH  14  15
ENDBRANCH   8  14
TORSDOF 2
ENDMDL
MODEL 8
REMARK VINA RESULT:      -6.8      1.485      1.688
REMARK  Name = 
REMARK  2 active torsions:
REMARK  status: ('A' for Active; 'I' for Inactive)
REMARK    1  A    between atoms: N_8  and  C_9
REMARK    2  A    between atoms: C_9  and  C_10
REMARK                            x       y       z     vdW  Elec       q    Type
REMARK                         _______ _______ _______ _____ _____    ______ ____
ROOT
ATOM      1  O   UNL     1       8.440   9.448  18.603  0.00  0.00    +0.000 OA
ATOM      2  C   UNL     1       8.137   8.307  18.297  0.00  0.00    +0.000 C 
ATOM      3  C   UNL     1       7.329   7.980  17.033  0.00  0.00    +0.000 C 
ATOM      4  O   UNL     1       7.410   6.617  16.646  0.00  0.00    +0.000 OA
ATOM      5  C   UNL     1       7.128   5.715  17.737  0.00  0.00    +0.000 C 
ATOM      6  C   UNL     1       5.791   6.045  18.424  0.00  0.00    +0.000 C 
ATOM      7  C   UNL     1       4.629   5.784  17.489  0.00  0.00    +0.000 C 
ATOM      8  N   UNL     1       4.602   4.373  17.083  0.00  0.00    +0.000 NA
ATOM      9  C   UNL     1       5.816   4.078  16.302  0.00  0.00    +0.000 C 
ATOM     10  C   UNL     1       7.115   4.311  17.093  0.00  0.00    +0.000 C 
ATOM     11  C   UNL     1       8.214   5.854  18.817  0.00  0.00    +0.000 C 
ATOM     12  N   UNL     1       8.553   7.255  19.067  0.00  0.00    +0.000 N 
ATOM     13  H   UNL     1       9.075   7.501  19.909  0.00  0.00    +0.000 HD
ENDROOT
BRANCH   8  14
ATOM     14  C   UNL     1       4.445   3.437  18.217  0.00  0.00    +0.000 C 
BRANCH  14  15
ATOM     15  C   UNL     1       3.029   3.314  18.712  0.00  0.00    +0.000 A 
ATOM     16  C   UNL     1       2.527   4.099  19.758  0.00  0.00    +0.000 A 
ATOM     17  C   UNL     1       1.195   3.979  20.134  0.00  0.00    +0.000 A 
ATOM     18  C   UNL     1       0.405   3.069  19.453  0.00  0.00    +0.000 A 
ATOM     19  N   UNL     1       0.847   2.302  18.432  0.00  0.00    +0.000 NA
ATOM     20  C   UNL     1       2.141   2.451  18.078  0.00  0.00    +0.000 A 
ENDBRANCH  14  15
ENDBRANCH   8  14
TORSDOF 2
ENDMDL
MODEL 9
REMARK VINA RESULT:      -6.8      3.040      6.494
REMARK  Name = 
REMARK  2 active torsions:
REMARK  status: ('A' for Active; 'I' for Inactive)
REMARK    1  A    between atoms: N_8  and  C_9
REMARK    2  A    between atoms: C_9  and  C_10
REMARK                            x       y       z     vdW  Elec       q    Type
REMARK                         _______ _______ _______ _____ _____    ______ ____
ROOT
ATOM      1  O   UNL     1       1.004   2.429  21.517  0.00  0.00    +0.000 OA
ATOM      2  C   UNL     1       1.916   2.977  20.918  0.00  0.00    +0.000 C 
ATOM      3  C   UNL     1       1.683   4.158  19.966  0.00  0.00    +0.000 C 
ATOM      4  O   UNL     1       2.861   4.894  19.678  0.00  0.00    +0.000 OA
ATOM      5  C   UNL     1       3.954   4.048  19.261  0.00  0.00    +0.000 C 
ATOM      6  C   UNL     1       3.551   3.120  18.102  0.00  0.00    +0.000 C 
ATOM      7  C   UNL     1       3.275   3.921  16.846  0.00  0.00    +0.000 C 
ATOM      8  N   UNL     1       4.468   4.673  16.441  0.00  0.00    +0.000 NA
ATOM      9  C   UNL     1       4.785   5.665  17.484  0.00  0.00    +0.000 C 
ATOM     10  C   UNL     1       5.077   5.027  18.855  0.00  0.00    +0.000 C 
ATOM     11  C   UNL     1       4.370   3.131  20.423  0.00  0.00    +0.000 C 
ATOM     12  N   UNL     1       3.208   2.574  21.116  0.00  0.00    +0.000 N 
ATOM     13  H   UNL     1       3.333   1.777  21.743  0.00  0.00    +0.000 HD
ENDROOT
BRANCH   8  14
ATOM     14  C   UNL     1       5.632   3.812  16.140  0.00  0.00    +0.000 C 
BRANCH  14  15
ATOM     15  C   UNL     1       6.301   4.130  14.829  0.00  0.00    +0.000 A 
ATOM     16  C   UNL     1       5.910   3.534  13.622  0.00  0.00    +0.000 A 
ATOM     17  C   UNL     1       6.527   3.910  12.436  0.00  0.00    +0.000 A 
ATOM     18  C   UNL     1       7.526   4.867  12.495  0.00  0.00    +0.000 A 
ATOM     19  N   UNL     1       7.923   5.472  13.635  0.00  0.00    +0.000 NA
ATOM     20  C   UNL     1       7.295   5.100  14.771  0.00  0.00    +0.000 A 
ENDBRANCH  14  15
ENDBRANCH   8  14
TORSDOF 2
ENDMDL
