MODEL 1
REMARK VINA RESULT:      -8.6      0.000      0.000
REMARK  Name = 
REMARK  6 active torsions:
REMARK  status: ('A' for Active; 'I' for Inactive)
REMARK    1  A    between atoms: N_3  and  C_4
REMARK    2  A    between atoms: N_11  and  C_12
REMARK    3  A    between atoms: C_12  and  C_13
REMARK    4  A    between atoms: C_12  and  C_17
REMARK    5  A    between atoms: C_13  and  C_14
REMARK    6  A    between atoms: N_19  and  C_20
REMARK                            x       y       z     vdW  Elec       q    Type
REMARK                         _______ _______ _______ _____ _____    ______ ____
ROOT
ATOM      1  C   UNL     1       6.879   5.885  17.693  0.00  0.00    +0.000 C 
ENDROOT
BRANCH   1   5
ATOM      2  O   UNL     1       7.375   8.724  17.236  0.00  0.00    +0.000 OA
ATOM      3  C   UNL     1       7.991   8.136  18.114  0.00  0.00    +0.000 C 
ATOM      4  N   UNL     1       8.861   8.691  19.041  0.00  0.00    +0.000 N 
ATOM      5  N   UNL     1       7.881   6.777  18.312  0.00  0.00    +0.000 N 
ATOM      6  H   UNL     1       9.188   8.061  19.755  0.00  0.00    +0.000 HD
ATOM      7  H   UNL     1       8.308   6.384  19.142  0.00  0.00    +0.000 HD
BRANCH   4   8
ATOM      8  C   UNL     1       9.270  10.035  19.185  0.00  0.00    +0.000 A 
ATOM      9  C   UNL     1       9.341  10.706  20.406  0.00  0.00    +0.000 A 
ATOM     10  C   UNL     1       9.758  12.045  20.460  0.00  0.00    +0.000 A 
ATOM     11  C   UNL     1      10.111  12.719  19.293  0.00  0.00    +0.000 A 
ATOM     12 BR   UNL     1      10.684  14.519  19.373  0.00  0.00    +0.000 Br
ATOM     13  C   UNL     1      10.040  12.067  18.065  0.00  0.00    +0.000 A 
ATOM     14  C   UNL     1       9.615  10.733  18.014  0.00  0.00    +0.000 A 
ENDBRANCH   4   8
ENDBRANCH   1   5
BRANCH   1  15
ATOM     15  C   UNL     1       6.016   5.372  18.886  0.00  0.00    +0.000 C 
ATOM     16  O   UNL     1       6.553   5.259  19.996  0.00  0.00    +0.000 OA
ATOM     17  N   UNL     1       4.689   5.088  18.626  0.00  0.00    +0.000 N 
ATOM     18  H   UNL     1       4.365   5.160  17.669  0.00  0.00    +0.000 HD
BRANCH  17  19
ATOM     19  C   UNL     1       3.761   4.524  19.540  0.00  0.00    +0.000 A 
ATOM     20  C   UNL     1       2.807   5.253  20.247  0.00  0.00    +0.000 A 
ATOM     21  C   UNL     1       1.973   4.615  21.167  0.00  0.00    +0.000 A 
ATOM     22  C   UNL     1       2.112   3.251  21.352  0.00  0.00    +0.000 A 
ATOM     23  N   UNL     1       3.001   2.498  20.674  0.00  0.00    +0.000 NA
ATOM     24  C   UNL     1       3.796   3.150  19.787  0.00  0.00    +0.000 A 
ENDBRANCH  17  19
ENDBRANCH   1  15
BRANCH   1  25
ATOM     25  C   UNL     1       7.484   4.763  16.839  0.00  0.00    +0.000 C 
BRANCH  25  26
ATOM     26  C   UNL     1       7.094   4.818  15.384  0.00  0.00    +0.000 C 
ATOM     27  C   UNL     1       6.097   3.827  14.832  0.00  0.00    +0.000 C 
ATOM     28  C   UNL     1       5.704   5.264  15.019  0.00  0.00    +0.000 C 
ENDBRANCH  25  26
ENDBRANCH   1  25
TORSDOF 6
ENDMDL
MODEL 2
REMARK VINA RESULT:      -8.6      0.606      1.368
REMARK  Name = 
REMARK  6 active torsions:
REMARK  status: ('A' for Active; 'I' for Inactive)
REMARK    1  A    between atoms: N_3  and  C_4
REMARK    2  A    between atoms: N_11  and  C_12
REMARK    3  A    between atoms: C_12  and  C_13
REMARK    4  A    between atoms: C_12  and  C_17
REMARK    5  A    between atoms: C_13  and  C_14
REMARK    6  A    between atoms: N_19  and  C_20
REMARK                            x       y       z     vdW  Elec       q    Type
REMARK                         _______ _______ _______ _____ _____    ______ ____
ROOT
ATOM      1  C   UNL     1       6.825   5.944  17.645  0.00  0.00    +0.000 C 
ENDROOT
BRANCH   1   5
ATOM      2  O   UNL     1       7.401   8.760  17.145  0.00  0.00    +0.000 OA
ATOM      3  C   UNL     1       7.985   8.174  18.047  0.00  0.00    +0.000 C 
ATOM      4  N   UNL     1       8.850   8.724  18.980  0.00  0.00    +0.000 N 
ATOM      5  N   UNL     1       7.837   6.822  18.267  0.00  0.00    +0.000 N 
ATOM      6  H   UNL     1       9.148   8.100  19.713  0.00  0.00    +0.000 HD
ATOM      7  H   UNL     1       8.238   6.434  19.113  0.00  0.00    +0.000 HD
BRANCH   4   8
ATOM      8  C   UNL     1       9.291  10.061  19.107  0.00  0.00    +0.000 A 
ATOM      9  C   UNL     1       9.664  10.869  18.033  0.00  0.00    +0.000 A 
ATOM     10  C   UNL     1      10.090  12.189  18.249  0.00  0.00    +0.000 A 
ATOM     11  C   UNL     1      10.143  12.707  19.541  0.00  0.00    +0.000 A 
ATOM     12 BR   UNL     1      10.708  14.489  19.825  0.00  0.00    +0.000 Br
ATOM     13  C   UNL     1       9.781  11.913  20.625  0.00  0.00    +0.000 A 
ATOM     14  C   UNL     1       9.363  10.594  20.406  0.00  0.00    +0.000 A 
ENDBRANCH   4   8
ENDBRANCH   1   5
BRANCH   1  15
ATOM     15  C   UNL     1       5.985   5.399  18.841  0.00  0.00    +0.000 C 
ATOM     16  O   UNL     1       6.545   5.257  19.937  0.00  0.00    +0.000 OA
ATOM     17  N   UNL     1       4.653   5.121  18.600  0.00  0.00    +0.000 N 
ATOM     18  H   UNL     1       4.311   5.219  17.652  0.00  0.00    +0.000 HD
BRANCH  17  19
ATOM     19  C   UNL     1       3.744   4.533  19.517  0.00  0.00    +0.000 A 
ATOM     20  C   UNL     1       3.761   3.193  19.897  0.00  0.00    +0.000 A 
ATOM     21  C   UNL     1       2.789   2.695  20.766  0.00  0.00    +0.000 A 
ATOM     22  C   UNL     1       1.819   3.560  21.241  0.00  0.00    +0.000 A 
ATOM     23  N   UNL     1       1.775   4.870  20.924  0.00  0.00    +0.000 NA
ATOM     24  C   UNL     1       2.736   5.322  20.078  0.00  0.00    +0.000 A 
ENDBRANCH  17  19
ENDBRANCH   1  15
BRANCH   1  25
ATOM     25  C   UNL     1       7.416   4.844  16.752  0.00  0.00    +0.000 C 
BRANCH  25  26
ATOM     26  C   UNL     1       7.031   4.958  15.300  0.00  0.00    +0.000 C 
ATOM     27  C   UNL     1       6.245   3.851  14.639  0.00  0.00    +0.000 C 
ATOM     28  C   UNL     1       5.584   5.164  14.944  0.00  0.00    +0.000 C 
ENDBRANCH  25  26
ENDBRANCH   1  25
TORSDOF 6
ENDMDL
MODEL 3
REMARK VINA RESULT:      -8.2      0.382      1.107
REMARK  Name = 
REMARK  6 active torsions:
REMARK  status: ('A' for Active; 'I' for Inactive)
REMARK    1  A    between atoms: N_3  and  C_4
REMARK    2  A    between atoms: N_11  and  C_12
REMARK    3  A    between atoms: C_12  and  C_13
REMARK    4  A    between atoms: C_12  and  C_17
REMARK    5  A    between atoms: C_13  and  C_14
REMARK    6  A    between atoms: N_19  and  C_20
REMARK                            x       y       z     vdW  Elec       q    Type
REMARK                         _______ _______ _______ _____ _____    ______ ____
ROOT
ATOM      1  C   UNL     1       6.748   6.161  17.615  0.00  0.00    +0.000 C 
ENDROOT
BRANCH   1   5
ATOM      2  O   UNL     1       7.457   8.954  17.156  0.00  0.00    +0.000 OA
ATOM      3  C   UNL     1       8.000   8.333  18.060  0.00  0.00    +0.000 C 
ATOM      4  N   UNL     1       8.873   8.835  19.013  0.00  0.00    +0.000 N 
ATOM      5  N   UNL     1       7.788   6.987  18.263  0.00  0.00    +0.000 N 
ATOM      6  H   UNL     1       9.131   8.190  19.743  0.00  0.00    +0.000 HD
ATOM      7  H   UNL     1       8.157   6.573  19.110  0.00  0.00    +0.000 HD
BRANCH   4   8
ATOM      8  C   UNL     1       9.370  10.149  19.162  0.00  0.00    +0.000 A 
ATOM      9  C   UNL     1       9.837  10.934  18.109  0.00  0.00    +0.000 A 
ATOM     10  C   UNL     1      10.315  12.233  18.346  0.00  0.00    +0.000 A 
ATOM     11  C   UNL     1      10.326  12.752  19.639  0.00  0.00    +0.000 A 
ATOM     12 BR   UNL     1      10.960  14.506  19.950  0.00  0.00    +0.000 Br
ATOM     13  C   UNL     1       9.870  11.980  20.703  0.00  0.00    +0.000 A 
ATOM     14  C   UNL     1       9.401  10.682  20.463  0.00  0.00    +0.000 A 
ENDBRANCH   4   8
ENDBRANCH   1   5
BRANCH   1  15
ATOM     15  C   UNL     1       5.999   5.471  18.795  0.00  0.00    +0.000 C 
ATOM     16  O   UNL     1       6.648   5.159  19.803  0.00  0.00    +0.000 OA
ATOM     17  N   UNL     1       4.642   5.262  18.643  0.00  0.00    +0.000 N 
ATOM     18  H   UNL     1       4.220   5.502  17.755  0.00  0.00    +0.000 HD
BRANCH  17  19
ATOM     19  C   UNL     1       3.796   4.570  19.549  0.00  0.00    +0.000 A 
ATOM     20  C   UNL     1       2.757   5.160  20.266  0.00  0.00    +0.000 A 
ATOM     21  C   UNL     1       2.015   4.407  21.177  0.00  0.00    +0.000 A 
ATOM     22  C   UNL     1       2.330   3.070  21.343  0.00  0.00    +0.000 A 
ATOM     23  N   UNL     1       3.307   2.447  20.654  0.00  0.00    +0.000 NA
ATOM     24  C   UNL     1       4.009   3.209  19.776  0.00  0.00    +0.000 A 
ENDBRANCH  17  19
ENDBRANCH   1  15
BRANCH   1  25
ATOM     25  C   UNL     1       7.292   5.179  16.568  0.00  0.00    +0.000 C 
BRANCH  25  26
ATOM     26  C   UNL     1       6.230   4.356  15.886  0.00  0.00    +0.000 C 
ATOM     27  C   UNL     1       5.413   4.958  14.767  0.00  0.00    +0.000 C 
ATOM     28  C   UNL     1       6.452   3.916  14.464  0.00  0.00    +0.000 C 
ENDBRANCH  25  26
ENDBRANCH   1  25
TORSDOF 6
ENDMDL
MODEL 4
REMARK VINA RESULT:      -7.9      4.693      7.141
REMARK  Name = 
REMARK  6 active torsions:
REMARK  status: ('A' for Active; 'I' for Inactive)
REMARK    1  A    between atoms: N_3  and  C_4
REMARK    2  A    between atoms: N_11  and  C_12
REMARK    3  A    between atoms: C_12  and  C_13
REMARK    4  A    between atoms: C_12  and  C_17
REMARK    5  A    between atoms: C_13  and  C_14
REMARK    6  A    between atoms: N_19  and  C_20
REMARK                            x       y       z     vdW  Elec       q    Type
REMARK                         _______ _______ _______ _____ _____    ______ ____
ROOT
ATOM      1  C   UNL     1       2.791   6.030  19.830  0.00  0.00    +0.000 C 
ENDROOT
BRANCH   1   5
ATOM      2  O   UNL     1       1.568   8.510  20.763  0.00  0.00    +0.000 OA
ATOM      3  C   UNL     1       1.776   8.350  19.567  0.00  0.00    +0.000 C 
ATOM      4  N   UNL     1       1.598   9.281  18.556  0.00  0.00    +0.000 N 
ATOM      5  N   UNL     1       2.252   7.165  19.052  0.00  0.00    +0.000 N 
ATOM      6  H   UNL     1       1.927   8.998  17.647  0.00  0.00    +0.000 HD
ATOM      7  H   UNL     1       2.534   7.152  18.078  0.00  0.00    +0.000 HD
BRANCH   4   8
ATOM      8  C   UNL     1       1.115  10.607  18.639  0.00  0.00    +0.000 A 
ATOM      9  C   UNL     1      -0.216  10.942  18.887  0.00  0.00    +0.000 A 
ATOM     10  C   UNL     1      -0.612  12.287  18.953  0.00  0.00    +0.000 A 
ATOM     11  C   UNL     1       0.324  13.304  18.775  0.00  0.00    +0.000 A 
ATOM     12 BR   UNL     1      -0.212  15.114  18.877  0.00  0.00    +0.000 Br
ATOM     13  C   UNL     1       1.655  12.988  18.520  0.00  0.00    +0.000 A 
ATOM     14  C   UNL     1       2.045  11.644  18.447  0.00  0.00    +0.000 A 
ENDBRANCH   4   8
ENDBRANCH   1   5
BRANCH   1  15
ATOM     15  C   UNL     1       4.046   5.564  19.031  0.00  0.00    +0.000 C 
ATOM     16  O   UNL     1       5.049   5.209  19.664  0.00  0.00    +0.000 OA
ATOM     17  N   UNL     1       3.950   5.563  17.652  0.00  0.00    +0.000 N 
ATOM     18  H   UNL     1       3.103   5.928  17.234  0.00  0.00    +0.000 HD
BRANCH  17  19
ATOM     19  C   UNL     1       4.998   5.268  16.742  0.00  0.00    +0.000 A 
ATOM     20  C   UNL     1       5.048   4.132  15.937  0.00  0.00    +0.000 A 
ATOM     21  C   UNL     1       6.151   3.901  15.112  0.00  0.00    +0.000 A 
ATOM     22  C   UNL     1       7.181   4.826  15.110  0.00  0.00    +0.000 A 
ATOM     23  N   UNL     1       7.167   5.953  15.849  0.00  0.00    +0.000 NA
ATOM     24  C   UNL     1       6.080   6.146  16.640  0.00  0.00    +0.000 A 
ENDBRANCH  17  19
ENDBRANCH   1  15
BRANCH   1  25
ATOM     25  C   UNL     1       1.772   4.912  20.091  0.00  0.00    +0.000 C 
BRANCH  25  26
ATOM     26  C   UNL     1       2.093   4.056  21.289  0.00  0.00    +0.000 C 
ATOM     27  C   UNL     1       1.349   2.759  21.509  0.00  0.00    +0.000 C 
ATOM     28  C   UNL     1       2.787   2.738  21.076  0.00  0.00    +0.000 C 
ENDBRANCH  25  26
ENDBRANCH   1  25
TORSDOF 6
ENDMDL
MODEL 5
REMARK VINA RESULT:      -7.8      4.827      7.347
REMARK  Name = 
REMARK  6 active torsions:
REMARK  status: ('A' for Active; 'I' for Inactive)
REMARK    1  A    between atoms: N_3  and  C_4
REMARK    2  A    between atoms: N_11  and  C_12
REMARK    3  A    between atoms: C_12  and  C_13
REMARK    4  A    between atoms: C_12  and  C_17
REMARK    5  A    between atoms: C_13  and  C_14
REMARK    6  A    between atoms: N_19  and  C_20
REMARK                            x       y       z     vdW  Elec       q    Type
REMARK                         _______ _______ _______ _____ _____    ______ ____
ROOT
ATOM      1  C   UNL     1       3.604   5.189  19.795  0.00  0.00    +0.000 C 
ENDROOT
BRANCH   1   5
ATOM      2  O   UNL     1       1.451   6.820  20.898  0.00  0.00    +0.000 OA
ATOM      3  C   UNL     1       2.034   7.191  19.888  0.00  0.00    +0.000 C 
ATOM      4  N   UNL     1       1.872   8.397  19.224  0.00  0.00    +0.000 N 
ATOM      5  N   UNL     1       2.985   6.419  19.258  0.00  0.00    +0.000 N 
ATOM      6  H   UNL     1       2.521   8.565  18.472  0.00  0.00    +0.000 HD
ATOM      7  H   UNL     1       3.524   6.846  18.514  0.00  0.00    +0.000 HD
BRANCH   4   8
ATOM      8  C   UNL     1       0.996   9.466  19.517  0.00  0.00    +0.000 A 
ATOM      9  C   UNL     1       0.864  10.047  20.778  0.00  0.00    +0.000 A 
ATOM     10  C   UNL     1      -0.032  11.108  20.984  0.00  0.00    +0.000 A 
ATOM     11  C   UNL     1      -0.799  11.593  19.927  0.00  0.00    +0.000 A 
ATOM     12 BR   UNL     1      -1.997  13.030  20.207  0.00  0.00    +0.000 Br
ATOM     13  C   UNL     1      -0.686  11.021  18.664  0.00  0.00    +0.000 A 
ATOM     14  C   UNL     1       0.204   9.957  18.464  0.00  0.00    +0.000 A 
ENDBRANCH   4   8
ENDBRANCH   1   5
BRANCH   1  15
ATOM     15  C   UNL     1       4.657   4.776  18.722  0.00  0.00    +0.000 C 
ATOM     16  O   UNL     1       5.575   4.016  19.059  0.00  0.00    +0.000 OA
ATOM     17  N   UNL     1       4.487   5.280  17.446  0.00  0.00    +0.000 N 
ATOM     18  H   UNL     1       3.735   5.939  17.292  0.00  0.00    +0.000 HD
BRANCH  17  19
ATOM     19  C   UNL     1       5.376   5.106  16.355  0.00  0.00    +0.000 A 
ATOM     20  C   UNL     1       5.158   4.234  15.289  0.00  0.00    +0.000 A 
ATOM     21  C   UNL     1       6.121   4.093  14.288  0.00  0.00    +0.000 A 
ATOM     22  C   UNL     1       7.283   4.838  14.375  0.00  0.00    +0.000 A 
ATOM     23  N   UNL     1       7.529   5.713  15.370  0.00  0.00    +0.000 NA
ATOM     24  C   UNL     1       6.572   5.827  16.328  0.00  0.00    +0.000 A 
ENDBRANCH  17  19
ENDBRANCH   1  15
BRANCH   1  25
ATOM     25  C   UNL     1       2.598   4.080  20.135  0.00  0.00    +0.000 C 
BRANCH  25  26
ATOM     26  C   UNL     1       1.834   3.557  18.946  0.00  0.00    +0.000 C 
ATOM     27  C   UNL     1       1.996   2.116  18.521  0.00  0.00    +0.000 C 
ATOM     28  C   UNL     1       0.722   2.569  19.173  0.00  0.00    +0.000 C 
ENDBRANCH  25  26
ENDBRANCH   1  25
TORSDOF 6
ENDMDL
MODEL 6
REMARK VINA RESULT:      -7.7      4.617      7.143
REMARK  Name = 
REMARK  6 active torsions:
REMARK  status: ('A' for Active; 'I' for Inactive)
REMARK    1  A    between atoms: N_3  and  C_4
REMARK    2  A    between atoms: N_11  and  C_12
REMARK    3  A    between atoms: C_12  and  C_13
REMARK    4  A    between atoms: C_12  and  C_17
REMARK    5  A    between atoms: C_13  and  C_14
REMARK    6  A    between atoms: N_19  and  C_20
REMARK                            x       y       z     vdW  Elec       q    Type
REMARK                         _______ _______ _______ _____ _____    ______ ____
ROOT
ATOM      1  C   UNL     1       2.700   5.798  19.370  0.00  0.00    +0.000 C 
ENDROOT
BRANCH   1   5
ATOM      2  O   UNL     1       1.696   8.322  20.436  0.00  0.00    +0.000 OA
ATOM      3  C   UNL     1       1.872   8.202  19.231  0.00  0.00    +0.000 C 
ATOM      4  N   UNL     1       1.754   9.190  18.266  0.00  0.00    +0.000 N 
ATOM      5  N   UNL     1       2.243   7.007  18.654  0.00  0.00    +0.000 N 
ATOM      6  H   UNL     1       2.046   8.924  17.339  0.00  0.00    +0.000 HD
ATOM      7  H   UNL     1       2.507   7.016  17.676  0.00  0.00    +0.000 HD
BRANCH   4   8
ATOM      8  C   UNL     1       1.382  10.544  18.418  0.00  0.00    +0.000 A 
ATOM      9  C   UNL     1       2.265  11.618  18.298  0.00  0.00    +0.000 A 
ATOM     10  C   UNL     1       1.811  12.936  18.464  0.00  0.00    +0.000 A 
ATOM     11  C   UNL     1       0.470  13.186  18.749  0.00  0.00    +0.000 A 
ATOM     12 BR   UNL     1      -0.138  14.963  18.961  0.00  0.00    +0.000 Br
ATOM     13  C   UNL     1      -0.423  12.127  18.879  0.00  0.00    +0.000 A 
ATOM     14  C   UNL     1       0.035  10.813  18.720  0.00  0.00    +0.000 A 
ENDBRANCH   4   8
ENDBRANCH   1   5
BRANCH   1  15
ATOM     15  C   UNL     1       4.002   5.368  18.628  0.00  0.00    +0.000 C 
ATOM     16  O   UNL     1       4.952   4.946  19.302  0.00  0.00    +0.000 OA
ATOM     17  N   UNL     1       4.005   5.474  17.250  0.00  0.00    +0.000 N 
ATOM     18  H   UNL     1       3.197   5.886  16.802  0.00  0.00    +0.000 HD
BRANCH  17  19
ATOM     19  C   UNL     1       5.112   5.227  16.397  0.00  0.00    +0.000 A 
ATOM     20  C   UNL     1       5.176   4.192  15.466  0.00  0.00    +0.000 A 
ATOM     21  C   UNL     1       6.333   3.996  14.709  0.00  0.00    +0.000 A 
ATOM     22  C   UNL     1       7.402   4.854  14.900  0.00  0.00    +0.000 A 
ATOM     23  N   UNL     1       7.379   5.886  15.767  0.00  0.00    +0.000 NA
ATOM     24  C   UNL     1       6.239   6.047  16.487  0.00  0.00    +0.000 A 
ENDBRANCH  17  19
ENDBRANCH   1  15
BRANCH   1  25
ATOM     25  C   UNL     1       1.643   4.689  19.460  0.00  0.00    +0.000 C 
BRANCH  25  26
ATOM     26  C   UNL     1       1.374   4.208  20.862  0.00  0.00    +0.000 C 
ATOM     27  C   UNL     1       1.204   2.732  21.134  0.00  0.00    +0.000 C 
ATOM     28  C   UNL     1       2.447   3.442  21.588  0.00  0.00    +0.000 C 
ENDBRANCH  25  26
ENDBRANCH   1  25
TORSDOF 6
ENDMDL
MODEL 7
REMARK VINA RESULT:      -7.7      4.967      7.718
REMARK  Name = 
REMARK  6 active torsions:
REMARK  status: ('A' for Active; 'I' for Inactive)
REMARK    1  A    between atoms: N_3  and  C_4
REMARK    2  A    between atoms: N_11  and  C_12
REMARK    3  A    between atoms: C_12  and  C_13
REMARK    4  A    between atoms: C_12  and  C_17
REMARK    5  A    between atoms: C_13  and  C_14
REMARK    6  A    between atoms: N_19  and  C_20
REMARK                            x       y       z     vdW  Elec       q    Type
REMARK                         _______ _______ _______ _____ _____    ______ ____
ROOT
ATOM      1  C   UNL     1       2.763   6.328  19.546  0.00  0.00    +0.000 C 
ENDROOT
BRANCH   1   5
ATOM      2  O   UNL     1       1.498   7.798  21.726  0.00  0.00    +0.000 OA
ATOM      3  C   UNL     1       1.476   8.259  20.592  0.00  0.00    +0.000 C 
ATOM      4  N   UNL     1       0.998   9.501  20.203  0.00  0.00    +0.000 N 
ATOM      5  N   UNL     1       1.961   7.568  19.504  0.00  0.00    +0.000 N 
ATOM      6  H   UNL     1       1.165   9.744  19.239  0.00  0.00    +0.000 HD
ATOM      7  H   UNL     1       2.039   8.064  18.624  0.00  0.00    +0.000 HD
BRANCH   4   8
ATOM      8  C   UNL     1       0.405  10.514  20.989  0.00  0.00    +0.000 A 
ATOM      9  C   UNL     1      -0.468  10.272  22.049  0.00  0.00    +0.000 A 
ATOM     10  C   UNL     1      -1.015  11.339  22.779  0.00  0.00    +0.000 A 
ATOM     11  C   UNL     1      -0.688  12.654  22.453  0.00  0.00    +0.000 A 
ATOM     12 BR   UNL     1      -1.418  14.087  23.448  0.00  0.00    +0.000 Br
ATOM     13  C   UNL     1       0.176  12.913  21.394  0.00  0.00    +0.000 A 
ATOM     14  C   UNL     1       0.713  11.846  20.663  0.00  0.00    +0.000 A 
ENDBRANCH   4   8
ENDBRANCH   1   5
BRANCH   1  15
ATOM     15  C   UNL     1       3.648   6.385  18.264  0.00  0.00    +0.000 C 
ATOM     16  O   UNL     1       3.562   7.381  17.533  0.00  0.00    +0.000 OA
ATOM     17  N   UNL     1       4.491   5.314  18.032  0.00  0.00    +0.000 N 
ATOM     18  H   UNL     1       4.440   4.524  18.663  0.00  0.00    +0.000 HD
BRANCH  17  19
ATOM     19  C   UNL     1       5.303   5.124  16.884  0.00  0.00    +0.000 A 
ATOM     20  C   UNL     1       4.984   4.282  15.821  0.00  0.00    +0.000 A 
ATOM     21  C   UNL     1       5.876   4.120  14.759  0.00  0.00    +0.000 A 
ATOM     22  C   UNL     1       7.071   4.816  14.786  0.00  0.00    +0.000 A 
ATOM     23  N   UNL     1       7.414   5.663  15.777  0.00  0.00    +0.000 NA
ATOM     24  C   UNL     1       6.524   5.798  16.794  0.00  0.00    +0.000 A 
ENDBRANCH  17  19
ENDBRANCH   1  15
BRANCH   1  25
ATOM     25  C   UNL     1       1.927   5.046  19.665  0.00  0.00    +0.000 C 
BRANCH  25  26
ATOM     26  C   UNL     1       2.095   4.321  20.975  0.00  0.00    +0.000 C 
ATOM     27  C   UNL     1       1.346   3.034  21.226  0.00  0.00    +0.000 C 
ATOM     28  C   UNL     1       2.829   3.008  20.992  0.00  0.00    +0.000 C 
ENDBRANCH  25  26
ENDBRANCH   1  25
TORSDOF 6
ENDMDL
MODEL 8
REMARK VINA RESULT:      -7.5      5.032      7.509
REMARK  Name = 
REMARK  6 active torsions:
REMARK  status: ('A' for Active; 'I' for Inactive)
REMARK    1  A    between atoms: N_3  and  C_4
REMARK    2  A    between atoms: N_11  and  C_12
REMARK    3  A    between atoms: C_12  and  C_13
REMARK    4  A    between atoms: C_12  and  C_17
REMARK    5  A    between atoms: C_13  and  C_14
REMARK    6  A    between atoms: N_19  and  C_20
REMARK                            x       y       z     vdW  Elec       q    Type
REMARK                         _______ _______ _______ _____ _____    ______ ____
ROOT
ATOM      1  C   UNL     1       2.756   6.060  20.174  0.00  0.00    +0.000 C 
ENDROOT
BRANCH   1   5
ATOM      2  O   UNL     1       0.978   8.078  21.306  0.00  0.00    +0.000 OA
ATOM      3  C   UNL     1       1.434   8.236  20.181  0.00  0.00    +0.000 C 
ATOM      4  N   UNL     1       1.297   9.353  19.372  0.00  0.00    +0.000 N 
ATOM      5  N   UNL     1       2.192   7.275  19.549  0.00  0.00    +0.000 N 
ATOM      6  H   UNL     1       1.837   9.338  18.521  0.00  0.00    +0.000 HD
ATOM      7  H   UNL     1       2.652   7.529  18.683  0.00  0.00    +0.000 HD
BRANCH   4   8
ATOM      8  C   UNL     1       0.591  10.552  19.620  0.00  0.00    +0.000 A 
ATOM      9  C   UNL     1      -0.660  10.850  19.081  0.00  0.00    +0.000 A 
ATOM     10  C   UNL     1      -1.293  12.067  19.380  0.00  0.00    +0.000 A 
ATOM     11  C   UNL     1      -0.677  12.991  20.221  0.00  0.00    +0.000 A 
ATOM     12 BR   UNL     1      -1.538  14.624  20.629  0.00  0.00    +0.000 Br
ATOM     13  C   UNL     1       0.575  12.713  20.762  0.00  0.00    +0.000 A 
ATOM     14  C   UNL     1       1.207  11.501  20.456  0.00  0.00    +0.000 A 
ENDBRANCH   4   8
ENDBRANCH   1   5
BRANCH   1  15
ATOM     15  C   UNL     1       3.919   5.632  19.227  0.00  0.00    +0.000 C 
ATOM     16  O   UNL     1       5.040   5.445  19.718  0.00  0.00    +0.000 OA
ATOM     17  N   UNL     1       3.614   5.475  17.888  0.00  0.00    +0.000 N 
ATOM     18  H   UNL     1       2.679   5.710  17.582  0.00  0.00    +0.000 HD
BRANCH  17  19
ATOM     19  C   UNL     1       4.538   5.185  16.850  0.00  0.00    +0.000 A 
ATOM     20  C   UNL     1       4.959   3.903  16.503  0.00  0.00    +0.000 A 
ATOM     21  C   UNL     1       5.915   3.723  15.502  0.00  0.00    +0.000 A 
ATOM     22  C   UNL     1       6.424   4.840  14.863  0.00  0.00    +0.000 A 
ATOM     23  N   UNL     1       6.030   6.098  15.144  0.00  0.00    +0.000 NA
ATOM     24  C   UNL     1       5.098   6.237  16.122  0.00  0.00    +0.000 A 
ENDBRANCH  17  19
ENDBRANCH   1  15
BRANCH   1  25
ATOM     25  C   UNL     1       1.725   4.952  20.428  0.00  0.00    +0.000 C 
BRANCH  25  26
ATOM     26  C   UNL     1       2.325   3.645  20.878  0.00  0.00    +0.000 C 
ATOM     27  C   UNL     1       1.474   2.640  21.617  0.00  0.00    +0.000 C 
ATOM     28  C   UNL     1       1.891   2.373  20.200  0.00  0.00    +0.000 C 
ENDBRANCH  25  26
ENDBRANCH   1  25
TORSDOF 6
ENDMDL
MODEL 9
REMARK VINA RESULT:      -7.4      4.975      7.657
REMARK  Name = 
REMARK  6 active torsions:
REMARK  status: ('A' for Active; 'I' for Inactive)
REMARK    1  A    between atoms: N_3  and  C_4
REMARK    2  A    between atoms: N_11  and  C_12
REMARK    3  A    between atoms: C_12  and  C_13
REMARK    4  A    between atoms: C_12  and  C_17
REMARK    5  A    between atoms: C_13  and  C_14
REMARK    6  A    between atoms: N_19  and  C_20
REMARK                            x       y       z     vdW  Elec       q    Type
REMARK                         _______ _______ _______ _____ _____    ______ ____
ROOT
ATOM      1  C   UNL     1       2.686   6.180  19.302  0.00  0.00    +0.000 C 
ENDROOT
BRANCH   1   5
ATOM      2  O   UNL     1       1.565   7.807  21.450  0.00  0.00    +0.000 OA
ATOM      3  C   UNL     1       1.531   8.220  20.298  0.00  0.00    +0.000 C 
ATOM      4  N   UNL     1       1.107   9.467  19.868  0.00  0.00    +0.000 N 
ATOM      5  N   UNL     1       1.947   7.458  19.228  0.00  0.00    +0.000 N 
ATOM      6  H   UNL     1       1.257   9.660  18.890  0.00  0.00    +0.000 HD
ATOM      7  H   UNL     1       2.024   7.912  18.325  0.00  0.00    +0.000 HD
BRANCH   4   8
ATOM      8  C   UNL     1       0.591  10.543  20.624  0.00  0.00    +0.000 A 
ATOM      9  C   UNL     1       0.988  11.871  20.471  0.00  0.00    +0.000 A 
ATOM     10  C   UNL     1       0.423  12.880  21.266  0.00  0.00    +0.000 A 
ATOM     11  C   UNL     1      -0.545  12.565  22.217  0.00  0.00    +0.000 A 
ATOM     12 BR   UNL     1      -1.312  13.930  23.278  0.00  0.00    +0.000 Br
ATOM     13  C   UNL     1      -0.949  11.244  22.389  0.00  0.00    +0.000 A 
ATOM     14  C   UNL     1      -0.377  10.239  21.599  0.00  0.00    +0.000 A 
ENDBRANCH   4   8
ENDBRANCH   1   5
BRANCH   1  15
ATOM     15  C   UNL     1       3.737   6.264  18.154  0.00  0.00    +0.000 C 
ATOM     16  O   UNL     1       3.918   7.356  17.599  0.00  0.00    +0.000 OA
ATOM     17  N   UNL     1       4.417   5.102  17.838  0.00  0.00    +0.000 N 
ATOM     18  H   UNL     1       4.151   4.251  18.315  0.00  0.00    +0.000 HD
BRANCH  17  19
ATOM     19  C   UNL     1       5.339   4.939  16.772  0.00  0.00    +0.000 A 
ATOM     20  C   UNL     1       4.979   4.747  15.439  0.00  0.00    +0.000 A 
ATOM     21  C   UNL     1       5.960   4.541  14.468  0.00  0.00    +0.000 A 
ATOM     22  C   UNL     1       7.288   4.539  14.858  0.00  0.00    +0.000 A 
ATOM     23  N   UNL     1       7.688   4.746  16.128  0.00  0.00    +0.000 NA
ATOM     24  C   UNL     1       6.708   4.944  17.047  0.00  0.00    +0.000 A 
ENDBRANCH  17  19
ENDBRANCH   1  15
BRANCH   1  25
ATOM     25  C   UNL     1       1.790   4.936  19.232  0.00  0.00    +0.000 C 
BRANCH  25  26
ATOM     26  C   UNL     1       1.301   4.453  20.573  0.00  0.00    +0.000 C 
ATOM     27  C   UNL     1       1.216   2.972  20.857  0.00  0.00    +0.000 C 
ATOM     28  C   UNL     1       2.279   3.804  21.515  0.00  0.00    +0.000 C 
ENDBRANCH  25  26
ENDBRANCH   1  25
TORSDOF 6
ENDMDL
