MODEL 1
REMARK VINA RESULT:      -7.1      0.000      0.000
REMARK  Name = 
REMARK  11 active torsions:
REMARK  status: ('A' for Active; 'I' for Inactive)
REMARK    1  A    between atoms: C_1  and  N_2
REMARK    2  A    between atoms: N_2  and  C_3
REMARK    3  A    between atoms: C_3  and  N_5
REMARK    4  A    between atoms: N_5  and  N_6
REMARK    5  A    between atoms: C_7  and  C_9
REMARK    6  A    between atoms: C_9  and  N_10
REMARK    7  A    between atoms: C_11  and  C_12
REMARK    8  A    between atoms: C_15  and  O_16
REMARK    9  A    between atoms: O_16  and  C_17
REMARK   10  A    between atoms: C_18  and  O_19
REMARK   11  A    between atoms: O_19  and  C_20
REMARK                            x       y       z     vdW  Elec       q    Type
REMARK                         _______ _______ _______ _____ _____    ______ ____
ROOT
ATOM      1  N   UNL     1       1.830   7.876  19.867  0.00  0.00    +0.000 N 
ATOM      2  C   UNL     1       2.254   7.893  18.543  0.00  0.00    +0.000 A 
ATOM      3  N   UNL     1       1.811   8.993  17.956  0.00  0.00    +0.000 NA
ATOM      4  C   UNL     1       1.019   9.642  18.861  0.00  0.00    +0.000 A 
ATOM      5  C   UNL     1       0.292  10.833  18.728  0.00  0.00    +0.000 A 
ATOM      6  C   UNL     1      -0.440  11.311  19.825  0.00  0.00    +0.000 A 
ATOM      7 CL   UNL     1      -1.322  12.784  19.611  0.00  0.00    +0.000 Cl
ATOM      8  C   UNL     1      -0.448  10.607  21.037  0.00  0.00    +0.000 A 
ATOM      9 CL   UNL     1      -1.332  11.160  22.417  0.00  0.00    +0.000 Cl
ATOM     10  C   UNL     1       0.281   9.421  21.183  0.00  0.00    +0.000 A 
ATOM     11  C   UNL     1       1.002   8.961  20.075  0.00  0.00    +0.000 A 
ENDROOT
BRANCH   2  12
ATOM     12  C   UNL     1       3.169   6.929  17.901  0.00  0.00    +0.000 A 
ATOM     13  C   UNL     1       2.823   5.588  17.713  0.00  0.00    +0.000 A 
ATOM     14  C   UNL     1       3.754   4.660  17.245  0.00  0.00    +0.000 A 
ATOM     15  C   UNL     1       5.041   5.067  16.892  0.00  0.00    +0.000 A 
ATOM     16  C   UNL     1       5.378   6.431  16.973  0.00  0.00    +0.000 A 
ATOM     17  C   UNL     1       4.442   7.349  17.473  0.00  0.00    +0.000 A 
BRANCH  15  18
ATOM     18  O   UNL     1       6.018   4.212  16.446  0.00  0.00    +0.000 OA
ATOM     19  C   UNL     1       5.973   3.829  15.077  0.00  0.00    +0.000 C 
ENDBRANCH  15  18
BRANCH  16  20
ATOM     20  O   UNL     1       6.645   6.757  16.559  0.00  0.00    +0.000 OA
ATOM     21  C   UNL     1       7.538   7.312  17.511  0.00  0.00    +0.000 C 
ENDBRANCH  16  20
ENDBRANCH   2  12
BRANCH   1  22
ATOM     22  C   UNL     1       2.269   6.985  20.934  0.00  0.00    +0.000 C 
BRANCH  22  24
ATOM     23  N   UNL     1       2.600   4.584  21.222  0.00  0.00    +0.000 N 
ATOM     24  C   UNL     1       1.728   5.576  20.815  0.00  0.00    +0.000 C 
ATOM     25  O   UNL     1       0.576   5.354  20.439  0.00  0.00    +0.000 OA
ATOM     26  H   UNL     1       3.446   4.766  21.757  0.00  0.00    +0.000 HD
BRANCH  23  27
ATOM     27  N   UNL     1       2.211   3.254  21.104  0.00  0.00    +0.000 N 
ATOM     28  H   UNL     1       1.453   2.921  21.701  0.00  0.00    +0.000 HD
BRANCH  27  29
ATOM     29  C   UNL     1       2.747   2.425  20.150  0.00  0.00    +0.000 C 
ATOM     30  S   UNL     1       4.402   2.313  20.003  0.00  0.00    +0.000 S 
BRANCH  29  32
ATOM     31  C   UNL     1       0.760   2.447  18.623  0.00  0.00    +0.000 C 
ATOM     32  N   UNL     1       1.810   1.785  19.369  0.00  0.00    +0.000 N 
ATOM     33  H   UNL     1       2.133   0.909  18.982  0.00  0.00    +0.000 HD
ENDBRANCH  29  32
ENDBRANCH  27  29
ENDBRANCH  23  27
ENDBRANCH  22  24
ENDBRANCH   1  22
TORSDOF 8
ENDMDL
MODEL 2
REMARK VINA RESULT:      -6.8      4.465      7.086
REMARK  Name = 
REMARK  11 active torsions:
REMARK  status: ('A' for Active; 'I' for Inactive)
REMARK    1  A    between atoms: C_1  and  N_2
REMARK    2  A    between atoms: N_2  and  C_3
REMARK    3  A    between atoms: C_3  and  N_5
REMARK    4  A    between atoms: N_5  and  N_6
REMARK    5  A    between atoms: C_7  and  C_9
REMARK    6  A    between atoms: C_9  and  N_10
REMARK    7  A    between atoms: C_11  and  C_12
REMARK    8  A    between atoms: C_15  and  O_16
REMARK    9  A    between atoms: O_16  and  C_17
REMARK   10  A    between atoms: C_18  and  O_19
REMARK   11  A    between atoms: O_19  and  C_20
REMARK                            x       y       z     vdW  Elec       q    Type
REMARK                         _______ _______ _______ _____ _____    ______ ____
ROOT
ATOM      1  N   UNL     1      -0.712  11.224  19.735  0.00  0.00    +0.000 N 
ATOM      2  C   UNL     1       0.079  10.264  20.357  0.00  0.00    +0.000 A 
ATOM      3  N   UNL     1      -0.232  10.207  21.642  0.00  0.00    +0.000 NA
ATOM      4  C   UNL     1      -1.147  11.192  21.880  0.00  0.00    +0.000 A 
ATOM      5  C   UNL     1      -1.771  11.570  23.077  0.00  0.00    +0.000 A 
ATOM      6  C   UNL     1      -2.705  12.617  23.059  0.00  0.00    +0.000 A 
ATOM      7 CL   UNL     1      -3.446  13.047  24.561  0.00  0.00    +0.000 Cl
ATOM      8  C   UNL     1      -3.009  13.278  21.861  0.00  0.00    +0.000 A 
ATOM      9 CL   UNL     1      -4.157  14.571  21.790  0.00  0.00    +0.000 Cl
ATOM     10  C   UNL     1      -2.399  12.904  20.659  0.00  0.00    +0.000 A 
ATOM     11  C   UNL     1      -1.468  11.859  20.700  0.00  0.00    +0.000 A 
ENDROOT
BRANCH   2  12
ATOM     12  C   UNL     1       1.021   9.339  19.696  0.00  0.00    +0.000 A 
ATOM     13  C   UNL     1       1.527   9.584  18.416  0.00  0.00    +0.000 A 
ATOM     14  C   UNL     1       2.294   8.629  17.747  0.00  0.00    +0.000 A 
ATOM     15  C   UNL     1       2.627   7.427  18.373  0.00  0.00    +0.000 A 
ATOM     16  C   UNL     1       2.217   7.204  19.700  0.00  0.00    +0.000 A 
ATOM     17  C   UNL     1       1.421   8.160  20.350  0.00  0.00    +0.000 A 
BRANCH  15  18
ATOM     18  O   UNL     1       3.357   6.431  17.773  0.00  0.00    +0.000 OA
ATOM     19  C   UNL     1       4.634   6.781  17.253  0.00  0.00    +0.000 C 
ENDBRANCH  15  18
BRANCH  16  20
ATOM     20  O   UNL     1       2.628   6.021  20.260  0.00  0.00    +0.000 OA
ATOM     21  C   UNL     1       1.640   5.054  20.582  0.00  0.00    +0.000 C 
ENDBRANCH  16  20
ENDBRANCH   2  12
BRANCH   1  22
ATOM     22  C   UNL     1      -0.872  11.458  18.306  0.00  0.00    +0.000 C 
BRANCH  22  24
ATOM     23  N   UNL     1      -2.984  11.945  17.182  0.00  0.00    +0.000 N 
ATOM     24  C   UNL     1      -2.191  10.965  17.749  0.00  0.00    +0.000 C 
ATOM     25  O   UNL     1      -2.490   9.770  17.755  0.00  0.00    +0.000 OA
ATOM     26  H   UNL     1      -2.645  12.877  16.953  0.00  0.00    +0.000 HD
BRANCH  23  27
ATOM     27  N   UNL     1      -4.235  11.597  16.688  0.00  0.00    +0.000 N 
ATOM     28  H   UNL     1      -4.276  11.019  15.847  0.00  0.00    +0.000 HD
BRANCH  27  29
ATOM     29  C   UNL     1      -5.393  11.923  17.350  0.00  0.00    +0.000 C 
ATOM     30  S   UNL     1      -6.026  10.854  18.460  0.00  0.00    +0.000 S 
BRANCH  29  32
ATOM     31  C   UNL     1      -7.265  13.589  17.329  0.00  0.00    +0.000 C 
ATOM     32  N   UNL     1      -5.937  13.131  16.974  0.00  0.00    +0.000 N 
ATOM     33  H   UNL     1      -5.252  13.858  16.825  0.00  0.00    +0.000 HD
ENDBRANCH  29  32
ENDBRANCH  27  29
ENDBRANCH  23  27
ENDBRANCH  22  24
ENDBRANCH   1  22
TORSDOF 8
ENDMDL
MODEL 3
REMARK VINA RESULT:      -6.7      5.740      9.812
REMARK  Name = 
REMARK  11 active torsions:
REMARK  status: ('A' for Active; 'I' for Inactive)
REMARK    1  A    between atoms: C_1  and  N_2
REMARK    2  A    between atoms: N_2  and  C_3
REMARK    3  A    between atoms: C_3  and  N_5
REMARK    4  A    between atoms: N_5  and  N_6
REMARK    5  A    between atoms: C_7  and  C_9
REMARK    6  A    between atoms: C_9  and  N_10
REMARK    7  A    between atoms: C_11  and  C_12
REMARK    8  A    between atoms: C_15  and  O_16
REMARK    9  A    between atoms: O_16  and  C_17
REMARK   10  A    between atoms: C_18  and  O_19
REMARK   11  A    between atoms: O_19  and  C_20
REMARK                            x       y       z     vdW  Elec       q    Type
REMARK                         _______ _______ _______ _____ _____    ______ ____
ROOT
ATOM      1  N   UNL     1       0.060  11.088  20.230  0.00  0.00    +0.000 N 
ATOM      2  C   UNL     1      -0.360  11.006  21.553  0.00  0.00    +0.000 A 
ATOM      3  N   UNL     1       0.122   9.900  22.097  0.00  0.00    +0.000 NA
ATOM      4  C   UNL     1       0.768   9.213  21.108  0.00  0.00    +0.000 A 
ATOM      5  C   UNL     1       1.424   7.975  21.155  0.00  0.00    +0.000 A 
ATOM      6  C   UNL     1       2.037   7.484  19.993  0.00  0.00    +0.000 A 
ATOM      7 CL   UNL     1       2.831   5.951  20.100  0.00  0.00    +0.000 Cl
ATOM      8  C   UNL     1       1.994   8.219  18.800  0.00  0.00    +0.000 A 
ATOM      9 CL   UNL     1       2.740   7.656  17.345  0.00  0.00    +0.000 Cl
ATOM     10  C   UNL     1       1.351   9.461  18.745  0.00  0.00    +0.000 A 
ATOM     11  C   UNL     1       0.742   9.930  19.915  0.00  0.00    +0.000 A 
ENDROOT
BRANCH   2  12
ATOM     12  C   UNL     1      -1.104  12.036  22.304  0.00  0.00    +0.000 A 
ATOM     13  C   UNL     1      -0.564  13.298  22.569  0.00  0.00    +0.000 A 
ATOM     14  C   UNL     1      -1.217  14.202  23.408  0.00  0.00    +0.000 A 
ATOM     15  C   UNL     1      -2.462  13.888  23.952  0.00  0.00    +0.000 A 
ATOM     16  C   UNL     1      -3.073  12.666  23.613  0.00  0.00    +0.000 A 
ATOM     17  C   UNL     1      -2.393  11.753  22.793  0.00  0.00    +0.000 A 
BRANCH  15  18
ATOM     18  O   UNL     1      -3.155  14.714  24.802  0.00  0.00    +0.000 OA
ATOM     19  C   UNL     1      -2.424  15.317  25.863  0.00  0.00    +0.000 C 
ENDBRANCH  15  18
BRANCH  16  20
ATOM     20  O   UNL     1      -4.319  12.455  24.148  0.00  0.00    +0.000 OA
ATOM     21  C   UNL     1      -5.447  12.901  23.413  0.00  0.00    +0.000 C 
ENDBRANCH  16  20
ENDBRANCH   2  12
BRANCH   1  22
ATOM     22  C   UNL     1      -0.039  12.232  19.332  0.00  0.00    +0.000 C 
BRANCH  22  24
ATOM     23  N   UNL     1      -1.307  11.902  17.272  0.00  0.00    +0.000 N 
ATOM     24  C   UNL     1      -1.357  12.315  18.591  0.00  0.00    +0.000 C 
ATOM     25  O   UNL     1      -2.395  12.668  19.152  0.00  0.00    +0.000 OA
ATOM     26  H   UNL     1      -0.525  11.385  16.876  0.00  0.00    +0.000 HD
BRANCH  23  27
ATOM     27  N   UNL     1      -2.456  11.988  16.495  0.00  0.00    +0.000 N 
ATOM     28  H   UNL     1      -2.647  12.869  16.016  0.00  0.00    +0.000 HD
BRANCH  27  29
ATOM     29  C   UNL     1      -3.270  10.903  16.283  0.00  0.00    +0.000 C 
ATOM     30  S   UNL     1      -3.029   9.954  14.935  0.00  0.00    +0.000 S 
BRANCH  29  32
ATOM     31  C   UNL     1      -5.316  11.697  17.495  0.00  0.00    +0.000 C 
ATOM     32  N   UNL     1      -4.257  10.744  17.231  0.00  0.00    +0.000 N 
ATOM     33  H   UNL     1      -4.482   9.778  17.426  0.00  0.00    +0.000 HD
ENDBRANCH  29  32
ENDBRANCH  27  29
ENDBRANCH  23  27
ENDBRANCH  22  24
ENDBRANCH   1  22
TORSDOF 8
ENDMDL
MODEL 4
REMARK VINA RESULT:      -6.7      5.913     10.076
REMARK  Name = 
REMARK  11 active torsions:
REMARK  status: ('A' for Active; 'I' for Inactive)
REMARK    1  A    between atoms: C_1  and  N_2
REMARK    2  A    between atoms: N_2  and  C_3
REMARK    3  A    between atoms: C_3  and  N_5
REMARK    4  A    between atoms: N_5  and  N_6
REMARK    5  A    between atoms: C_7  and  C_9
REMARK    6  A    between atoms: C_9  and  N_10
REMARK    7  A    between atoms: C_11  and  C_12
REMARK    8  A    between atoms: C_15  and  O_16
REMARK    9  A    between atoms: O_16  and  C_17
REMARK   10  A    between atoms: C_18  and  O_19
REMARK   11  A    between atoms: O_19  and  C_20
REMARK                            x       y       z     vdW  Elec       q    Type
REMARK                         _______ _______ _______ _____ _____    ______ ____
ROOT
ATOM      1  N   UNL     1      -0.234  11.533  20.668  0.00  0.00    +0.000 N 
ATOM      2  C   UNL     1      -0.703  11.388  21.969  0.00  0.00    +0.000 A 
ATOM      3  N   UNL     1      -0.272  10.239  22.463  0.00  0.00    +0.000 NA
ATOM      4  C   UNL     1       0.389   9.590  21.459  0.00  0.00    +0.000 A 
ATOM      5  C   UNL     1       1.006   8.332  21.455  0.00  0.00    +0.000 A 
ATOM      6  C   UNL     1       1.645   7.890  20.287  0.00  0.00    +0.000 A 
ATOM      7 CL   UNL     1       2.391   6.330  20.331  0.00  0.00    +0.000 Cl
ATOM      8  C   UNL     1       1.666   8.693  19.139  0.00  0.00    +0.000 A 
ATOM      9 CL   UNL     1       2.447   8.192  17.679  0.00  0.00    +0.000 Cl
ATOM     10  C   UNL     1       1.061   9.955  19.134  0.00  0.00    +0.000 A 
ATOM     11  C   UNL     1       0.425  10.375  20.309  0.00  0.00    +0.000 A 
ENDROOT
BRANCH   2  12
ATOM     12  C   UNL     1      -1.443  12.396  22.754  0.00  0.00    +0.000 A 
ATOM     13  C   UNL     1      -0.880  13.626  23.103  0.00  0.00    +0.000 A 
ATOM     14  C   UNL     1      -1.535  14.501  23.971  0.00  0.00    +0.000 A 
ATOM     15  C   UNL     1      -2.804  14.191  24.461  0.00  0.00    +0.000 A 
ATOM     16  C   UNL     1      -3.435  13.006  24.039  0.00  0.00    +0.000 A 
ATOM     17  C   UNL     1      -2.753  12.121  23.189  0.00  0.00    +0.000 A 
BRANCH  15  18
ATOM     18  O   UNL     1      -3.501  14.988  25.335  0.00  0.00    +0.000 OA
ATOM     19  C   UNL     1      -3.908  16.268  24.866  0.00  0.00    +0.000 C 
ENDBRANCH  15  18
BRANCH  16  20
ATOM     20  O   UNL     1      -4.701  12.799  24.525  0.00  0.00    +0.000 OA
ATOM     21  C   UNL     1      -5.797  13.006  23.648  0.00  0.00    +0.000 C 
ENDBRANCH  16  20
ENDBRANCH   2  12
BRANCH   1  22
ATOM     22  C   UNL     1      -0.269  12.729  19.835  0.00  0.00    +0.000 C 
BRANCH  22  24
ATOM     23  N   UNL     1      -2.527  12.360  18.987  0.00  0.00    +0.000 N 
ATOM     24  C   UNL     1      -1.212  12.626  18.656  0.00  0.00    +0.000 C 
ATOM     25  O   UNL     1      -0.831  12.826  17.502  0.00  0.00    +0.000 OA
ATOM     26  H   UNL     1      -2.894  12.437  19.934  0.00  0.00    +0.000 HD
BRANCH  23  27
ATOM     27  N   UNL     1      -3.460  12.198  17.969  0.00  0.00    +0.000 N 
ATOM     28  H   UNL     1      -3.560  12.950  17.286  0.00  0.00    +0.000 HD
BRANCH  27  29
ATOM     29  C   UNL     1      -4.162  11.029  17.809  0.00  0.00    +0.000 C 
ATOM     30  S   UNL     1      -5.750  10.957  18.307  0.00  0.00    +0.000 S 
BRANCH  29  32
ATOM     31  C   UNL     1      -2.660  10.080  16.040  0.00  0.00    +0.000 C 
ATOM     32  N   UNL     1      -3.425   9.998  17.267  0.00  0.00    +0.000 N 
ATOM     33  H   UNL     1      -3.080   9.341  17.953  0.00  0.00    +0.000 HD
ENDBRANCH  29  32
ENDBRANCH  27  29
ENDBRANCH  23  27
ENDBRANCH  22  24
ENDBRANCH   1  22
TORSDOF 8
ENDMDL
MODEL 5
REMARK VINA RESULT:      -6.7      1.013      1.284
REMARK  Name = 
REMARK  11 active torsions:
REMARK  status: ('A' for Active; 'I' for Inactive)
REMARK    1  A    between atoms: C_1  and  N_2
REMARK    2  A    between atoms: N_2  and  C_3
REMARK    3  A    between atoms: C_3  and  N_5
REMARK    4  A    between atoms: N_5  and  N_6
REMARK    5  A    between atoms: C_7  and  C_9
REMARK    6  A    between atoms: C_9  and  N_10
REMARK    7  A    between atoms: C_11  and  C_12
REMARK    8  A    between atoms: C_15  and  O_16
REMARK    9  A    between atoms: O_16  and  C_17
REMARK   10  A    between atoms: C_18  and  O_19
REMARK   11  A    between atoms: O_19  and  C_20
REMARK                            x       y       z     vdW  Elec       q    Type
REMARK                         _______ _______ _______ _____ _____    ______ ____
ROOT
ATOM      1  N   UNL     1       2.039   7.574  19.976  0.00  0.00    +0.000 N 
ATOM      2  C   UNL     1       2.434   7.717  18.650  0.00  0.00    +0.000 A 
ATOM      3  N   UNL     1       1.945   8.847  18.167  0.00  0.00    +0.000 NA
ATOM      4  C   UNL     1       1.152   9.391  19.137  0.00  0.00    +0.000 A 
ATOM      5  C   UNL     1       0.386  10.565  19.120  0.00  0.00    +0.000 A 
ATOM      6  C   UNL     1      -0.338  10.925  20.266  0.00  0.00    +0.000 A 
ATOM      7 CL   UNL     1      -1.269  12.381  20.194  0.00  0.00    +0.000 Cl
ATOM      8  C   UNL     1      -0.298  10.121  21.414  0.00  0.00    +0.000 A 
ATOM      9 CL   UNL     1      -1.169  10.528  22.852  0.00  0.00    +0.000 Cl
ATOM     10  C   UNL     1       0.470   8.952  21.446  0.00  0.00    +0.000 A 
ATOM     11  C   UNL     1       1.182   8.610  20.290  0.00  0.00    +0.000 A 
ENDROOT
BRANCH   2  12
ATOM     12  C   UNL     1       3.365   6.840  17.912  0.00  0.00    +0.000 A 
ATOM     13  C   UNL     1       3.025   5.534  17.549  0.00  0.00    +0.000 A 
ATOM     14  C   UNL     1       3.968   4.672  16.988  0.00  0.00    +0.000 A 
ATOM     15  C   UNL     1       5.262   5.119  16.717  0.00  0.00    +0.000 A 
ATOM     16  C   UNL     1       5.594   6.462  16.977  0.00  0.00    +0.000 A 
ATOM     17  C   UNL     1       4.646   7.310  17.569  0.00  0.00    +0.000 A 
BRANCH  15  18
ATOM     18  O   UNL     1       6.250   4.326  16.189  0.00  0.00    +0.000 OA
ATOM     19  C   UNL     1       6.078   3.878  14.850  0.00  0.00    +0.000 C 
ENDBRANCH  15  18
BRANCH  16  20
ATOM     20  O   UNL     1       6.870   6.836  16.636  0.00  0.00    +0.000 OA
ATOM     21  C   UNL     1       7.596   7.645  17.547  0.00  0.00    +0.000 C 
ENDBRANCH  16  20
ENDBRANCH   2  12
BRANCH   1  22
ATOM     22  C   UNL     1       2.528   6.611  20.954  0.00  0.00    +0.000 C 
BRANCH  22  24
ATOM     23  N   UNL     1       3.078   4.239  20.800  0.00  0.00    +0.000 N 
ATOM     24  C   UNL     1       2.081   5.190  20.689  0.00  0.00    +0.000 C 
ATOM     25  O   UNL     1       0.904   4.913  20.454  0.00  0.00    +0.000 OA
ATOM     26  H   UNL     1       3.983   4.422  21.229  0.00  0.00    +0.000 HD
BRANCH  23  27
ATOM     27  N   UNL     1       2.775   2.910  20.527  0.00  0.00    +0.000 N 
ATOM     28  H   UNL     1       2.020   2.471  21.055  0.00  0.00    +0.000 HD
BRANCH  27  29
ATOM     29  C   UNL     1       3.392   2.220  19.513  0.00  0.00    +0.000 C 
ATOM     30  S   UNL     1       2.504   1.764  18.179  0.00  0.00    +0.000 S 
BRANCH  29  32
ATOM     31  C   UNL     1       5.236   1.295  20.936  0.00  0.00    +0.000 C 
ATOM     32  N   UNL     1       4.721   1.940  19.747  0.00  0.00    +0.000 N 
ATOM     33  H   UNL     1       5.261   1.797  18.905  0.00  0.00    +0.000 HD
ENDBRANCH  29  32
ENDBRANCH  27  29
ENDBRANCH  23  27
ENDBRANCH  22  24
ENDBRANCH   1  22
TORSDOF 8
ENDMDL
MODEL 6
REMARK VINA RESULT:      -6.7      3.994      6.590
REMARK  Name = 
REMARK  11 active torsions:
REMARK  status: ('A' for Active; 'I' for Inactive)
REMARK    1  A    between atoms: C_1  and  N_2
REMARK    2  A    between atoms: N_2  and  C_3
REMARK    3  A    between atoms: C_3  and  N_5
REMARK    4  A    between atoms: N_5  and  N_6
REMARK    5  A    between atoms: C_7  and  C_9
REMARK    6  A    between atoms: C_9  and  N_10
REMARK    7  A    between atoms: C_11  and  C_12
REMARK    8  A    between atoms: C_15  and  O_16
REMARK    9  A    between atoms: O_16  and  C_17
REMARK   10  A    between atoms: C_18  and  O_19
REMARK   11  A    between atoms: O_19  and  C_20
REMARK                            x       y       z     vdW  Elec       q    Type
REMARK                         _______ _______ _______ _____ _____    ______ ____
ROOT
ATOM      1  N   UNL     1       0.383  11.531  20.563  0.00  0.00    +0.000 N 
ATOM      2  C   UNL     1       0.414  10.160  20.793  0.00  0.00    +0.000 A 
ATOM      3  N   UNL     1      -0.468   9.854  21.731  0.00  0.00    +0.000 NA
ATOM      4  C   UNL     1      -1.000  11.029  22.183  0.00  0.00    +0.000 A 
ATOM      5  C   UNL     1      -1.951  11.257  23.186  0.00  0.00    +0.000 A 
ATOM      6  C   UNL     1      -2.356  12.573  23.456  0.00  0.00    +0.000 A 
ATOM      7 CL   UNL     1      -3.531  12.804  24.704  0.00  0.00    +0.000 Cl
ATOM      8  C   UNL     1      -1.816  13.646  22.733  0.00  0.00    +0.000 A 
ATOM      9 CL   UNL     1      -2.288  15.284  23.026  0.00  0.00    +0.000 Cl
ATOM     10  C   UNL     1      -0.872  13.428  21.723  0.00  0.00    +0.000 A 
ATOM     11  C   UNL     1      -0.480  12.108  21.473  0.00  0.00    +0.000 A 
ENDROOT
BRANCH   2  12
ATOM     12  C   UNL     1       1.189   9.159  20.034  0.00  0.00    +0.000 A 
ATOM     13  C   UNL     1       1.579   9.370  18.709  0.00  0.00    +0.000 A 
ATOM     14  C   UNL     1       2.176   8.355  17.960  0.00  0.00    +0.000 A 
ATOM     15  C   UNL     1       2.457   7.119  18.544  0.00  0.00    +0.000 A 
ATOM     16  C   UNL     1       2.169   6.920  19.907  0.00  0.00    +0.000 A 
ATOM     17  C   UNL     1       1.541   7.939  20.640  0.00  0.00    +0.000 A 
BRANCH  15  18
ATOM     18  O   UNL     1       3.021   6.066  17.868  0.00  0.00    +0.000 OA
ATOM     19  C   UNL     1       4.337   6.248  17.359  0.00  0.00    +0.000 C 
ENDBRANCH  15  18
BRANCH  16  20
ATOM     20  O   UNL     1       2.522   5.696  20.418  0.00  0.00    +0.000 OA
ATOM     21  C   UNL     1       1.508   4.716  20.566  0.00  0.00    +0.000 C 
ENDBRANCH  16  20
ENDBRANCH   2  12
BRANCH   1  22
ATOM     22  C   UNL     1       1.010  12.267  19.472  0.00  0.00    +0.000 C 
BRANCH  22  24
ATOM     23  N   UNL     1      -0.755  11.791  17.855  0.00  0.00    +0.000 N 
ATOM     24  C   UNL     1       0.031  12.771  18.433  0.00  0.00    +0.000 C 
ATOM     25  O   UNL     1      -0.086  13.970  18.180  0.00  0.00    +0.000 OA
ATOM     26  H   UNL     1      -0.840  10.848  18.227  0.00  0.00    +0.000 HD
BRANCH  23  27
ATOM     27  N   UNL     1      -1.651  12.149  16.854  0.00  0.00    +0.000 N 
ATOM     28  H   UNL     1      -1.374  12.886  16.203  0.00  0.00    +0.000 HD
BRANCH  27  29
ATOM     29  C   UNL     1      -2.833  11.477  16.665  0.00  0.00    +0.000 C 
ATOM     30  S   UNL     1      -2.928  10.313  15.478  0.00  0.00    +0.000 S 
BRANCH  29  32
ATOM     31  C   UNL     1      -5.266  11.809  17.169  0.00  0.00    +0.000 C 
ATOM     32  N   UNL     1      -3.856  11.891  17.490  0.00  0.00    +0.000 N 
ATOM     33  H   UNL     1      -3.630  11.844  18.473  0.00  0.00    +0.000 HD
ENDBRANCH  29  32
ENDBRANCH  27  29
ENDBRANCH  23  27
ENDBRANCH  22  24
ENDBRANCH   1  22
TORSDOF 8
ENDMDL
MODEL 7
REMARK VINA RESULT:      -6.6      5.889     10.047
REMARK  Name = 
REMARK  11 active torsions:
REMARK  status: ('A' for Active; 'I' for Inactive)
REMARK    1  A    between atoms: C_1  and  N_2
REMARK    2  A    between atoms: N_2  and  C_3
REMARK    3  A    between atoms: C_3  and  N_5
REMARK    4  A    between atoms: N_5  and  N_6
REMARK    5  A    between atoms: C_7  and  C_9
REMARK    6  A    between atoms: C_9  and  N_10
REMARK    7  A    between atoms: C_11  and  C_12
REMARK    8  A    between atoms: C_15  and  O_16
REMARK    9  A    between atoms: O_16  and  C_17
REMARK   10  A    between atoms: C_18  and  O_19
REMARK   11  A    between atoms: O_19  and  C_20
REMARK                            x       y       z     vdW  Elec       q    Type
REMARK                         _______ _______ _______ _____ _____    ______ ____
ROOT
ATOM      1  N   UNL     1      -0.518  11.702  20.940  0.00  0.00    +0.000 N 
ATOM      2  C   UNL     1      -1.059  11.506  22.205  0.00  0.00    +0.000 A 
ATOM      3  N   UNL     1      -0.660  10.335  22.676  0.00  0.00    +0.000 NA
ATOM      4  C   UNL     1       0.055   9.725  21.684  0.00  0.00    +0.000 A 
ATOM      5  C   UNL     1       0.669   8.465  21.663  0.00  0.00    +0.000 A 
ATOM      6  C   UNL     1       1.372   8.068  20.516  0.00  0.00    +0.000 A 
ATOM      7 CL   UNL     1       2.111   6.504  20.538  0.00  0.00    +0.000 Cl
ATOM      8  C   UNL     1       1.460   8.918  19.405  0.00  0.00    +0.000 A 
ATOM      9 CL   UNL     1       2.320   8.473  17.972  0.00  0.00    +0.000 Cl
ATOM     10  C   UNL     1       0.858  10.182  19.418  0.00  0.00    +0.000 A 
ATOM     11  C   UNL     1       0.158  10.556  20.572  0.00  0.00    +0.000 A 
ENDROOT
BRANCH   2  12
ATOM     12  C   UNL     1      -1.841  12.484  22.988  0.00  0.00    +0.000 A 
ATOM     13  C   UNL     1      -3.214  12.336  23.203  0.00  0.00    +0.000 A 
ATOM     14  C   UNL     1      -3.963  13.343  23.813  0.00  0.00    +0.000 A 
ATOM     15  C   UNL     1      -3.340  14.500  24.281  0.00  0.00    +0.000 A 
ATOM     16  C   UNL     1      -1.943  14.624  24.170  0.00  0.00    +0.000 A 
ATOM     17  C   UNL     1      -1.206  13.617  23.528  0.00  0.00    +0.000 A 
BRANCH  15  18
ATOM     18  O   UNL     1      -4.011  15.544  24.870  0.00  0.00    +0.000 OA
ATOM     19  C   UNL     1      -5.137  16.067  24.178  0.00  0.00    +0.000 C 
ENDBRANCH  15  18
BRANCH  16  20
ATOM     20  O   UNL     1      -1.402  15.768  24.700  0.00  0.00    +0.000 OA
ATOM     21  C   UNL     1      -0.945  15.732  26.043  0.00  0.00    +0.000 C 
ENDBRANCH  16  20
ENDBRANCH   2  12
BRANCH   1  22
ATOM     22  C   UNL     1      -0.502  12.931  20.157  0.00  0.00    +0.000 C 
BRANCH  22  24
ATOM     23  N   UNL     1      -2.525  12.366  18.913  0.00  0.00    +0.000 N 
ATOM     24  C   UNL     1      -1.222  12.819  18.829  0.00  0.00    +0.000 C 
ATOM     25  O   UNL     1      -0.692  13.166  17.773  0.00  0.00    +0.000 OA
ATOM     26  H   UNL     1      -3.045  12.313  19.787  0.00  0.00    +0.000 HD
BRANCH  23  27
ATOM     27  N   UNL     1      -3.252  12.183  17.743  0.00  0.00    +0.000 N 
ATOM     28  H   UNL     1      -3.826  12.958  17.408  0.00  0.00    +0.000 HD
BRANCH  27  29
ATOM     29  C   UNL     1      -3.137  11.041  16.989  0.00  0.00    +0.000 C 
ATOM     30  S   UNL     1      -3.119   9.560  17.752  0.00  0.00    +0.000 S 
BRANCH  29  32
ATOM     31  C   UNL     1      -3.043  10.240  14.616  0.00  0.00    +0.000 C 
ATOM     32  N   UNL     1      -3.005  11.267  15.637  0.00  0.00    +0.000 N 
ATOM     33  H   UNL     1      -3.318  12.182  15.345  0.00  0.00    +0.000 HD
ENDBRANCH  29  32
ENDBRANCH  27  29
ENDBRANCH  23  27
ENDBRANCH  22  24
ENDBRANCH   1  22
TORSDOF 8
ENDMDL
MODEL 8
REMARK VINA RESULT:      -6.5      4.233      7.180
REMARK  Name = 
REMARK  11 active torsions:
REMARK  status: ('A' for Active; 'I' for Inactive)
REMARK    1  A    between atoms: C_1  and  N_2
REMARK    2  A    between atoms: N_2  and  C_3
REMARK    3  A    between atoms: C_3  and  N_5
REMARK    4  A    between atoms: N_5  and  N_6
REMARK    5  A    between atoms: C_7  and  C_9
REMARK    6  A    between atoms: C_9  and  N_10
REMARK    7  A    between atoms: C_11  and  C_12
REMARK    8  A    between atoms: C_15  and  O_16
REMARK    9  A    between atoms: O_16  and  C_17
REMARK   10  A    between atoms: C_18  and  O_19
REMARK   11  A    between atoms: O_19  and  C_20
REMARK                            x       y       z     vdW  Elec       q    Type
REMARK                         _______ _______ _______ _____ _____    ______ ____
ROOT
ATOM      1  N   UNL     1       2.532   6.875  18.462  0.00  0.00    +0.000 N 
ATOM      2  C   UNL     1       1.925   7.701  19.402  0.00  0.00    +0.000 A 
ATOM      3  N   UNL     1       1.692   7.010  20.506  0.00  0.00    +0.000 NA
ATOM      4  C   UNL     1       2.050   5.715  20.255  0.00  0.00    +0.000 A 
ATOM      5  C   UNL     1       1.975   4.585  21.080  0.00  0.00    +0.000 A 
ATOM      6  C   UNL     1       2.432   3.352  20.591  0.00  0.00    +0.000 A 
ATOM      7 CL   UNL     1       2.317   1.987  21.647  0.00  0.00    +0.000 Cl
ATOM      8  C   UNL     1       2.954   3.250  19.295  0.00  0.00    +0.000 A 
ATOM      9 CL   UNL     1       3.534   1.752  18.652  0.00  0.00    +0.000 Cl
ATOM     10  C   UNL     1       3.042   4.373  18.465  0.00  0.00    +0.000 A 
ATOM     11  C   UNL     1       2.578   5.593  18.972  0.00  0.00    +0.000 A 
ENDROOT
BRANCH   2  12
ATOM     12  C   UNL     1       1.694   9.154  19.276  0.00  0.00    +0.000 A 
ATOM     13  C   UNL     1       1.984   9.853  18.101  0.00  0.00    +0.000 A 
ATOM     14  C   UNL     1       1.903  11.246  18.050  0.00  0.00    +0.000 A 
ATOM     15  C   UNL     1       1.466  11.968  19.160  0.00  0.00    +0.000 A 
ATOM     16  C   UNL     1       1.068  11.277  20.320  0.00  0.00    +0.000 A 
ATOM     17  C   UNL     1       1.182   9.879  20.368  0.00  0.00    +0.000 A 
BRANCH  15  18
ATOM     18  O   UNL     1       1.381  13.338  19.195  0.00  0.00    +0.000 OA
ATOM     19  C   UNL     1       2.600  14.068  19.119  0.00  0.00    +0.000 C 
ENDBRANCH  15  18
BRANCH  16  20
ATOM     20  O   UNL     1       0.602  12.057  21.348  0.00  0.00    +0.000 OA
ATOM     21  C   UNL     1      -0.595  11.661  21.999  0.00  0.00    +0.000 C 
ENDBRANCH  16  20
ENDBRANCH   2  12
BRANCH   1  22
ATOM     22  C   UNL     1       3.166   7.265  17.209  0.00  0.00    +0.000 C 
BRANCH  22  24
ATOM     23  N   UNL     1       5.108   6.591  15.894  0.00  0.00    +0.000 N 
ATOM     24  C   UNL     1       4.644   6.946  17.147  0.00  0.00    +0.000 C 
ATOM     25  O   UNL     1       5.374   7.058  18.133  0.00  0.00    +0.000 OA
ATOM     26  H   UNL     1       4.576   6.732  15.038  0.00  0.00    +0.000 HD
BRANCH  23  27
ATOM     27  N   UNL     1       6.443   6.231  15.746  0.00  0.00    +0.000 N 
ATOM     28  H   UNL     1       7.152   6.952  15.886  0.00  0.00    +0.000 HD
BRANCH  27  29
ATOM     29  C   UNL     1       6.823   4.932  15.518  0.00  0.00    +0.000 C 
ATOM     30  S   UNL     1       6.116   4.082  14.271  0.00  0.00    +0.000 S 
BRANCH  29  32
ATOM     31  C   UNL     1       7.693   4.624  17.848  0.00  0.00    +0.000 C 
ATOM     32  N   UNL     1       7.755   4.451  16.412  0.00  0.00    +0.000 N 
ATOM     33  H   UNL     1       8.233   3.621  16.093  0.00  0.00    +0.000 HD
ENDBRANCH  29  32
ENDBRANCH  27  29
ENDBRANCH  23  27
ENDBRANCH  22  24
ENDBRANCH   1  22
TORSDOF 8
ENDMDL
MODEL 9
REMARK VINA RESULT:      -6.5      6.057     10.404
REMARK  Name = 
REMARK  11 active torsions:
REMARK  status: ('A' for Active; 'I' for Inactive)
REMARK    1  A    between atoms: C_1  and  N_2
REMARK    2  A    between atoms: N_2  and  C_3
REMARK    3  A    between atoms: C_3  and  N_5
REMARK    4  A    between atoms: N_5  and  N_6
REMARK    5  A    between atoms: C_7  and  C_9
REMARK    6  A    between atoms: C_9  and  N_10
REMARK    7  A    between atoms: C_11  and  C_12
REMARK    8  A    between atoms: C_15  and  O_16
REMARK    9  A    between atoms: O_16  and  C_17
REMARK   10  A    between atoms: C_18  and  O_19
REMARK   11  A    between atoms: O_19  and  C_20
REMARK                            x       y       z     vdW  Elec       q    Type
REMARK                         _______ _______ _______ _____ _____    ______ ____
ROOT
ATOM      1  N   UNL     1      -0.352  11.412  20.556  0.00  0.00    +0.000 N 
ATOM      2  C   UNL     1      -0.650  11.342  21.912  0.00  0.00    +0.000 A 
ATOM      3  N   UNL     1      -0.061  10.279  22.435  0.00  0.00    +0.000 NA
ATOM      4  C   UNL     1       0.535   9.603  21.408  0.00  0.00    +0.000 A 
ATOM      5  C   UNL     1       1.262   8.404  21.423  0.00  0.00    +0.000 A 
ATOM      6  C   UNL     1       1.798   7.917  20.222  0.00  0.00    +0.000 A 
ATOM      7 CL   UNL     1       2.685   6.433  20.292  0.00  0.00    +0.000 Cl
ATOM      8  C   UNL     1       1.610   8.617  19.023  0.00  0.00    +0.000 A 
ATOM      9 CL   UNL     1       2.258   8.058  17.519  0.00  0.00    +0.000 Cl
ATOM     10  C   UNL     1       0.895   9.820  18.998  0.00  0.00    +0.000 A 
ATOM     11  C   UNL     1       0.365  10.286  20.207  0.00  0.00    +0.000 A 
ENDROOT
BRANCH   2  12
ATOM     12  C   UNL     1      -1.384  12.349  22.704  0.00  0.00    +0.000 A 
ATOM     13  C   UNL     1      -0.832  13.595  23.015  0.00  0.00    +0.000 A 
ATOM     14  C   UNL     1      -1.475  14.473  23.890  0.00  0.00    +0.000 A 
ATOM     15  C   UNL     1      -2.722  14.148  24.425  0.00  0.00    +0.000 A 
ATOM     16  C   UNL     1      -3.344  12.945  24.043  0.00  0.00    +0.000 A 
ATOM     17  C   UNL     1      -2.673  12.059  23.186  0.00  0.00    +0.000 A 
BRANCH  15  18
ATOM     18  O   UNL     1      -3.405  14.947  25.309  0.00  0.00    +0.000 OA
ATOM     19  C   UNL     1      -3.796  16.236  24.852  0.00  0.00    +0.000 C 
ENDBRANCH  15  18
BRANCH  16  20
ATOM     20  O   UNL     1      -4.590  12.724  24.573  0.00  0.00    +0.000 OA
ATOM     21  C   UNL     1      -5.720  12.984  23.757  0.00  0.00    +0.000 C 
ENDBRANCH  16  20
ENDBRANCH   2  12
BRANCH   1  22
ATOM     22  C   UNL     1      -0.594  12.525  19.646  0.00  0.00    +0.000 C 
BRANCH  22  24
ATOM     23  N   UNL     1      -3.019  12.609  19.379  0.00  0.00    +0.000 N 
ATOM     24  C   UNL     1      -1.810  12.340  18.764  0.00  0.00    +0.000 C 
ATOM     25  O   UNL     1      -1.709  12.032  17.576  0.00  0.00    +0.000 OA
ATOM     26  H   UNL     1      -3.099  13.094  20.270  0.00  0.00    +0.000 HD
BRANCH  23  27
ATOM     27  N   UNL     1      -4.196  12.420  18.665  0.00  0.00    +0.000 N 
ATOM     28  H   UNL     1      -4.124  12.159  17.680  0.00  0.00    +0.000 HD
BRANCH  27  29
ATOM     29  C   UNL     1      -5.428  12.478  19.269  0.00  0.00    +0.000 C 
ATOM     30  S   UNL     1      -5.935  13.911  19.949  0.00  0.00    +0.000 S 
BRANCH  29  32
ATOM     31  C   UNL     1      -7.158  10.929  20.210  0.00  0.00    +0.000 C 
ATOM     32  N   UNL     1      -6.110  11.281  19.275  0.00  0.00    +0.000 N 
ATOM     33  H   UNL     1      -6.172  10.843  18.367  0.00  0.00    +0.000 HD
ENDBRANCH  29  32
ENDBRANCH  27  29
ENDBRANCH  23  27
ENDBRANCH  22  24
ENDBRANCH   1  22
TORSDOF 8
ENDMDL
