MODEL 1
REMARK VINA RESULT:      -8.1      0.000      0.000
REMARK  Name = 
REMARK  14 active torsions:
REMARK  status: ('A' for Active; 'I' for Inactive)
REMARK    1  A    between atoms: C_1  and  C_2
REMARK    2  A    between atoms: C_2  and  C_3
REMARK    3  A    between atoms: C_2  and  C_4
REMARK    4  A    between atoms: C_2  and  C_5
REMARK    5  A    between atoms: C_8  and  C_9
REMARK    6  A    between atoms: C_9  and  N_10
REMARK    7  A    between atoms: N_10  and  C_11
REMARK    8  A    between atoms: N_10  and  S_23
REMARK    9  A    between atoms: C_11  and  C_12
REMARK   10  A    between atoms: C_16  and  O_17
REMARK   11  A    between atoms: O_17  and  C_18
REMARK   12  A    between atoms: C_18  and  C_19
REMARK   13  A    between atoms: C_19  and  O_21
REMARK   14  A    between atoms: S_23  and  C_24
REMARK                            x       y       z     vdW  Elec       q    Type
REMARK                         _______ _______ _______ _____ _____    ______ ____
ROOT
ATOM      1  N   UNL     1       3.015   4.278  18.764  0.00  0.00    +0.000 NA
ENDROOT
BRANCH   1   2
ATOM      2  S   UNL     1       1.810   3.268  18.130  0.00  0.00    +0.000 S 
ATOM      3  C   UNL     1       0.813   2.891  19.559  0.00  0.00    +0.000 C 
ATOM      4  O   UNL     1       0.981   4.051  17.240  0.00  0.00    +0.000 OA
ATOM      5  O   UNL     1       2.434   2.044  17.675  0.00  0.00    +0.000 OA
ENDBRANCH   1   2
BRANCH   1   6
ATOM      6  C   UNL     1       2.638   5.024  19.988  0.00  0.00    +0.000 C 
BRANCH   6  10
ATOM      7  C   UNL     1       1.201   9.089  19.424  0.00  0.00    +0.000 A 
ATOM      8  C   UNL     1       1.999   8.467  18.444  0.00  0.00    +0.000 A 
ATOM      9  C   UNL     1       2.567   7.195  18.645  0.00  0.00    +0.000 A 
ATOM     10  C   UNL     1       2.385   6.517  19.853  0.00  0.00    +0.000 A 
ATOM     11  C   UNL     1       1.738   7.204  20.890  0.00  0.00    +0.000 A 
ATOM     12  C   UNL     1       1.165   8.469  20.682  0.00  0.00    +0.000 A 
BRANCH   7  14
ATOM     13  C   UNL     1      -0.641  10.058  17.936  0.00  0.00    +0.000 C 
ATOM     14  C   UNL     1       0.339  10.334  19.103  0.00  0.00    +0.000 C 
ATOM     15  C   UNL     1       1.221  11.537  18.724  0.00  0.00    +0.000 C 
ATOM     16  C   UNL     1      -0.547  10.757  20.304  0.00  0.00    +0.000 C 
ENDBRANCH   7  14
ENDBRANCH   6  10
ENDBRANCH   1   6
BRANCH   1  17
ATOM     17  C   UNL     1       4.387   3.697  18.773  0.00  0.00    +0.000 C 
BRANCH  17  18
ATOM     18  C   UNL     1       5.543   4.550  18.273  0.00  0.00    +0.000 A 
ATOM     19  C   UNL     1       6.240   5.341  19.196  0.00  0.00    +0.000 A 
ATOM     20  C   UNL     1       7.283   6.173  18.784  0.00  0.00    +0.000 A 
ATOM     21  C   UNL     1       7.661   6.203  17.443  0.00  0.00    +0.000 A 
ATOM     22  C   UNL     1       6.977   5.438  16.497  0.00  0.00    +0.000 A 
ATOM     23  C   UNL     1       5.905   4.634  16.911  0.00  0.00    +0.000 A 
BRANCH  22  24
ATOM     24  O   UNL     1       7.484   5.522  15.225  0.00  0.00    +0.000 OA
BRANCH  24  25
ATOM     25  C   UNL     1       6.841   4.737  14.220  0.00  0.00    +0.000 C 
BRANCH  25  26
ATOM     26  C   UNL     1       7.493   4.983  12.866  0.00  0.00    +0.000 C 
ATOM     27  O   UNL     1       8.271   5.902  12.638  0.00  0.00    +0.000 OA
BRANCH  26  28
ATOM     28  O   UNL     1       7.125   4.101  11.906  0.00  0.00    +0.000 OA
ATOM     29  H   UNL     1       7.140   4.551  11.032  0.00  0.00    +0.000 HD
ENDBRANCH  26  28
ENDBRANCH  25  26
ENDBRANCH  24  25
ENDBRANCH  22  24
ENDBRANCH  17  18
ENDBRANCH   1  17
TORSDOF 10
ENDMDL
MODEL 2
REMARK VINA RESULT:      -8.0      0.989      1.422
REMARK  Name = 
REMARK  14 active torsions:
REMARK  status: ('A' for Active; 'I' for Inactive)
REMARK    1  A    between atoms: C_1  and  C_2
REMARK    2  A    between atoms: C_2  and  C_3
REMARK    3  A    between atoms: C_2  and  C_4
REMARK    4  A    between atoms: C_2  and  C_5
REMARK    5  A    between atoms: C_8  and  C_9
REMARK    6  A    between atoms: C_9  and  N_10
REMARK    7  A    between atoms: N_10  and  C_11
REMARK    8  A    between atoms: N_10  and  S_23
REMARK    9  A    between atoms: C_11  and  C_12
REMARK   10  A    between atoms: C_16  and  O_17
REMARK   11  A    between atoms: O_17  and  C_18
REMARK   12  A    between atoms: C_18  and  C_19
REMARK   13  A    between atoms: C_19  and  O_21
REMARK   14  A    between atoms: S_23  and  C_24
REMARK                            x       y       z     vdW  Elec       q    Type
REMARK                         _______ _______ _______ _____ _____    ______ ____
ROOT
ATOM      1  N   UNL     1       2.886   4.614  18.965  0.00  0.00    +0.000 NA
ENDROOT
BRANCH   1   2
ATOM      2  S   UNL     1       1.625   3.606  18.447  0.00  0.00    +0.000 S 
ATOM      3  C   UNL     1       2.469   2.093  18.029  0.00  0.00    +0.000 C 
ATOM      4  O   UNL     1       0.782   3.311  19.586  0.00  0.00    +0.000 OA
ATOM      5  O   UNL     1       1.063   4.164  17.236  0.00  0.00    +0.000 OA
ENDBRANCH   1   2
BRANCH   1   6
ATOM      6  C   UNL     1       2.598   5.423  20.173  0.00  0.00    +0.000 C 
BRANCH   6  10
ATOM      7  C   UNL     1       0.997   9.399  19.440  0.00  0.00    +0.000 A 
ATOM      8  C   UNL     1       1.818   8.767  18.484  0.00  0.00    +0.000 A 
ATOM      9  C   UNL     1       2.437   7.530  18.738  0.00  0.00    +0.000 A 
ATOM     10  C   UNL     1       2.285   6.897  19.975  0.00  0.00    +0.000 A 
ATOM     11  C   UNL     1       1.612   7.601  20.983  0.00  0.00    +0.000 A 
ATOM     12  C   UNL     1       0.988   8.832  20.723  0.00  0.00    +0.000 A 
BRANCH   7  14
ATOM     13  C   UNL     1      -0.820  11.004  20.257  0.00  0.00    +0.000 C 
ATOM     14  C   UNL     1       0.085  10.593  19.069  0.00  0.00    +0.000 C 
ATOM     15  C   UNL     1      -0.814  10.251  17.868  0.00  0.00    +0.000 C 
ATOM     16  C   UNL     1       0.901  11.860  18.704  0.00  0.00    +0.000 C 
ENDBRANCH   7  14
ENDBRANCH   6  10
ENDBRANCH   1   6
BRANCH   1  17
ATOM     17  C   UNL     1       4.243   4.001  18.923  0.00  0.00    +0.000 C 
BRANCH  17  18
ATOM     18  C   UNL     1       5.313   4.654  18.061  0.00  0.00    +0.000 A 
ATOM     19  C   UNL     1       6.185   5.575  18.658  0.00  0.00    +0.000 A 
ATOM     20  C   UNL     1       7.157   6.234  17.905  0.00  0.00    +0.000 A 
ATOM     21  C   UNL     1       7.290   5.958  16.544  0.00  0.00    +0.000 A 
ATOM     22  C   UNL     1       6.428   5.057  15.917  0.00  0.00    +0.000 A 
ATOM     23  C   UNL     1       5.427   4.427  16.672  0.00  0.00    +0.000 A 
BRANCH  22  24
ATOM     24  O   UNL     1       6.701   4.841  14.590  0.00  0.00    +0.000 OA
BRANCH  24  25
ATOM     25  C   UNL     1       5.891   3.878  13.913  0.00  0.00    +0.000 C 
BRANCH  25  26
ATOM     26  C   UNL     1       6.471   3.582  12.537  0.00  0.00    +0.000 C 
ATOM     27  O   UNL     1       7.207   4.347  11.925  0.00  0.00    +0.000 OA
BRANCH  26  28
ATOM     28  O   UNL     1       6.088   2.390  12.020  0.00  0.00    +0.000 OA
ATOM     29  H   UNL     1       6.347   2.352  11.072  0.00  0.00    +0.000 HD
ENDBRANCH  26  28
ENDBRANCH  25  26
ENDBRANCH  24  25
ENDBRANCH  22  24
ENDBRANCH  17  18
ENDBRANCH   1  17
TORSDOF 10
ENDMDL
MODEL 3
REMARK VINA RESULT:      -8.0      0.171      1.017
REMARK  Name = 
REMARK  14 active torsions:
REMARK  status: ('A' for Active; 'I' for Inactive)
REMARK    1  A    between atoms: C_1  and  C_2
REMARK    2  A    between atoms: C_2  and  C_3
REMARK    3  A    between atoms: C_2  and  C_4
REMARK    4  A    between atoms: C_2  and  C_5
REMARK    5  A    between atoms: C_8  and  C_9
REMARK    6  A    between atoms: C_9  and  N_10
REMARK    7  A    between atoms: N_10  and  C_11
REMARK    8  A    between atoms: N_10  and  S_23
REMARK    9  A    between atoms: C_11  and  C_12
REMARK   10  A    between atoms: C_16  and  O_17
REMARK   11  A    between atoms: O_17  and  C_18
REMARK   12  A    between atoms: C_18  and  C_19
REMARK   13  A    between atoms: C_19  and  O_21
REMARK   14  A    between atoms: S_23  and  C_24
REMARK                            x       y       z     vdW  Elec       q    Type
REMARK                         _______ _______ _______ _____ _____    ______ ____
ROOT
ATOM      1  N   UNL     1       3.044   4.221  18.819  0.00  0.00    +0.000 NA
ENDROOT
BRANCH   1   2
ATOM      2  S   UNL     1       1.958   3.157  18.070  0.00  0.00    +0.000 S 
ATOM      3  C   UNL     1       0.930   2.618  19.423  0.00  0.00    +0.000 C 
ATOM      4  O   UNL     1       1.109   3.922  17.183  0.00  0.00    +0.000 OA
ATOM      5  O   UNL     1       2.700   2.016  17.581  0.00  0.00    +0.000 OA
ENDBRANCH   1   2
BRANCH   1   6
ATOM      6  C   UNL     1       2.510   4.954  19.991  0.00  0.00    +0.000 C 
BRANCH   6  10
ATOM      7  C   UNL     1       1.270   9.087  19.451  0.00  0.00    +0.000 A 
ATOM      8  C   UNL     1       2.016   8.425  18.456  0.00  0.00    +0.000 A 
ATOM      9  C   UNL     1       2.523   7.126  18.648  0.00  0.00    +0.000 A 
ATOM     10  C   UNL     1       2.331   6.458  19.859  0.00  0.00    +0.000 A 
ATOM     11  C   UNL     1       1.739   7.176  20.908  0.00  0.00    +0.000 A 
ATOM     12  C   UNL     1       1.227   8.469  20.710  0.00  0.00    +0.000 A 
BRANCH   7  14
ATOM     13  C   UNL     1       1.394  11.523  18.678  0.00  0.00    +0.000 C 
ATOM     14  C   UNL     1       0.466  10.373  19.146  0.00  0.00    +0.000 C 
ATOM     15  C   UNL     1      -0.310  10.850  20.386  0.00  0.00    +0.000 C 
ATOM     16  C   UNL     1      -0.556  10.165  17.998  0.00  0.00    +0.000 C 
ENDBRANCH   7  14
ENDBRANCH   6  10
ENDBRANCH   1   6
BRANCH   1  17
ATOM     17  C   UNL     1       4.432   3.701  18.976  0.00  0.00    +0.000 C 
BRANCH  17  18
ATOM     18  C   UNL     1       5.585   4.517  18.412  0.00  0.00    +0.000 A 
ATOM     19  C   UNL     1       6.279   5.380  19.271  0.00  0.00    +0.000 A 
ATOM     20  C   UNL     1       7.318   6.181  18.797  0.00  0.00    +0.000 A 
ATOM     21  C   UNL     1       7.697   6.109  17.457  0.00  0.00    +0.000 A 
ATOM     22  C   UNL     1       7.017   5.270  16.573  0.00  0.00    +0.000 A 
ATOM     23  C   UNL     1       5.947   4.497  17.047  0.00  0.00    +0.000 A 
BRANCH  22  24
ATOM     24  O   UNL     1       7.523   5.259  15.298  0.00  0.00    +0.000 OA
BRANCH  24  25
ATOM     25  C   UNL     1       6.645   4.825  14.257  0.00  0.00    +0.000 C 
BRANCH  25  26
ATOM     26  C   UNL     1       7.363   4.866  12.916  0.00  0.00    +0.000 C 
ATOM     27  O   UNL     1       7.167   4.065  12.009  0.00  0.00    +0.000 OA
BRANCH  26  28
ATOM     28  O   UNL     1       8.270   5.866  12.804  0.00  0.00    +0.000 OA
ATOM     29  H   UNL     1       8.838   5.700  12.019  0.00  0.00    +0.000 HD
ENDBRANCH  26  28
ENDBRANCH  25  26
ENDBRANCH  24  25
ENDBRANCH  22  24
ENDBRANCH  17  18
ENDBRANCH   1  17
TORSDOF 10
ENDMDL
MODEL 4
REMARK VINA RESULT:      -7.8      1.147      1.278
REMARK  Name = 
REMARK  14 active torsions:
REMARK  status: ('A' for Active; 'I' for Inactive)
REMARK    1  A    between atoms: C_1  and  C_2
REMARK    2  A    between atoms: C_2  and  C_3
REMARK    3  A    between atoms: C_2  and  C_4
REMARK    4  A    between atoms: C_2  and  C_5
REMARK    5  A    between atoms: C_8  and  C_9
REMARK    6  A    between atoms: C_9  and  N_10
REMARK    7  A    between atoms: N_10  and  C_11
REMARK    8  A    between atoms: N_10  and  S_23
REMARK    9  A    between atoms: C_11  and  C_12
REMARK   10  A    between atoms: C_16  and  O_17
REMARK   11  A    between atoms: O_17  and  C_18
REMARK   12  A    between atoms: C_18  and  C_19
REMARK   13  A    between atoms: C_19  and  O_21
REMARK   14  A    between atoms: S_23  and  C_24
REMARK                            x       y       z     vdW  Elec       q    Type
REMARK                         _______ _______ _______ _____ _____    ______ ____
ROOT
ATOM      1  N   UNL     1       2.741   4.463  19.472  0.00  0.00    +0.000 NA
ENDROOT
BRANCH   1   2
ATOM      2  S   UNL     1       1.770   3.189  18.916  0.00  0.00    +0.000 S 
ATOM      3  C   UNL     1       2.954   1.894  18.601  0.00  0.00    +0.000 C 
ATOM      4  O   UNL     1       0.942   2.736  20.013  0.00  0.00    +0.000 OA
ATOM      5  O   UNL     1       1.178   3.582  17.656  0.00  0.00    +0.000 OA
ENDBRANCH   1   2
BRANCH   1   6
ATOM      6  C   UNL     1       2.148   5.289  20.550  0.00  0.00    +0.000 C 
BRANCH   6  10
ATOM      7  C   UNL     1       0.973   9.362  19.579  0.00  0.00    +0.000 A 
ATOM      8  C   UNL     1       1.810   8.630  18.714  0.00  0.00    +0.000 A 
ATOM      9  C   UNL     1       2.294   7.353  19.053  0.00  0.00    +0.000 A 
ATOM     10  C   UNL     1       1.985   6.777  20.287  0.00  0.00    +0.000 A 
ATOM     11  C   UNL     1       1.296   7.570  21.216  0.00  0.00    +0.000 A 
ATOM     12  C   UNL     1       0.807   8.842  20.872  0.00  0.00    +0.000 A 
BRANCH   7  14
ATOM     13  C   UNL     1      -0.713  10.293  17.895  0.00  0.00    +0.000 C 
ATOM     14  C   UNL     1       0.205  10.617  19.101  0.00  0.00    +0.000 C 
ATOM     15  C   UNL     1       1.175  11.737  18.687  0.00  0.00    +0.000 C 
ATOM     16  C   UNL     1      -0.731  11.184  20.200  0.00  0.00    +0.000 C 
ENDBRANCH   7  14
ENDBRANCH   6  10
ENDBRANCH   1   6
BRANCH   1  17
ATOM     17  C   UNL     1       4.182   4.129  19.650  0.00  0.00    +0.000 C 
BRANCH  17  18
ATOM     18  C   UNL     1       5.217   4.918  18.862  0.00  0.00    +0.000 A 
ATOM     19  C   UNL     1       6.439   5.220  19.478  0.00  0.00    +0.000 A 
ATOM     20  C   UNL     1       7.408   5.976  18.815  0.00  0.00    +0.000 A 
ATOM     21  C   UNL     1       7.176   6.418  17.513  0.00  0.00    +0.000 A 
ATOM     22  C   UNL     1       5.963   6.145  16.879  0.00  0.00    +0.000 A 
ATOM     23  C   UNL     1       4.978   5.419  17.564  0.00  0.00    +0.000 A 
BRANCH  22  24
ATOM     24  O   UNL     1       5.886   6.594  15.585  0.00  0.00    +0.000 OA
BRANCH  24  25
ATOM     25  C   UNL     1       5.527   5.635  14.588  0.00  0.00    +0.000 C 
BRANCH  25  26
ATOM     26  C   UNL     1       6.750   4.831  14.170  0.00  0.00    +0.000 C 
ATOM     27  O   UNL     1       7.851   5.322  13.954  0.00  0.00    +0.000 OA
BRANCH  26  28
ATOM     28  O   UNL     1       6.519   3.502  14.035  0.00  0.00    +0.000 OA
ATOM     29  H   UNL     1       5.870   3.360  13.310  0.00  0.00    +0.000 HD
ENDBRANCH  26  28
ENDBRANCH  25  26
ENDBRANCH  24  25
ENDBRANCH  22  24
ENDBRANCH  17  18
ENDBRANCH   1  17
TORSDOF 10
ENDMDL
MODEL 5
REMARK VINA RESULT:      -7.8      1.598      1.961
REMARK  Name = 
REMARK  14 active torsions:
REMARK  status: ('A' for Active; 'I' for Inactive)
REMARK    1  A    between atoms: C_1  and  C_2
REMARK    2  A    between atoms: C_2  and  C_3
REMARK    3  A    between atoms: C_2  and  C_4
REMARK    4  A    between atoms: C_2  and  C_5
REMARK    5  A    between atoms: C_8  and  C_9
REMARK    6  A    between atoms: C_9  and  N_10
REMARK    7  A    between atoms: N_10  and  C_11
REMARK    8  A    between atoms: N_10  and  S_23
REMARK    9  A    between atoms: C_11  and  C_12
REMARK   10  A    between atoms: C_16  and  O_17
REMARK   11  A    between atoms: O_17  and  C_18
REMARK   12  A    between atoms: C_18  and  C_19
REMARK   13  A    between atoms: C_19  and  O_21
REMARK   14  A    between atoms: S_23  and  C_24
REMARK                            x       y       z     vdW  Elec       q    Type
REMARK                         _______ _______ _______ _____ _____    ______ ____
ROOT
ATOM      1  N   UNL     1       2.670   4.834  19.267  0.00  0.00    +0.000 NA
ENDROOT
BRANCH   1   2
ATOM      2  S   UNL     1       1.941   3.320  19.042  0.00  0.00    +0.000 S 
ATOM      3  C   UNL     1       0.907   3.155  20.484  0.00  0.00    +0.000 C 
ATOM      4  O   UNL     1       1.053   3.407  17.903  0.00  0.00    +0.000 OA
ATOM      5  O   UNL     1       2.970   2.304  19.101  0.00  0.00    +0.000 OA
ENDBRANCH   1   2
BRANCH   1   6
ATOM      6  C   UNL     1       2.183   5.605  20.436  0.00  0.00    +0.000 C 
BRANCH   6  10
ATOM      7  C   UNL     1       0.732   9.634  19.684  0.00  0.00    +0.000 A 
ATOM      8  C   UNL     1       1.566   8.986  18.752  0.00  0.00    +0.000 A 
ATOM      9  C   UNL     1       2.138   7.727  19.016  0.00  0.00    +0.000 A 
ATOM     10  C   UNL     1       1.923   7.089  20.241  0.00  0.00    +0.000 A 
ATOM     11  C   UNL     1       1.237   7.806  21.232  0.00  0.00    +0.000 A 
ATOM     12  C   UNL     1       0.660   9.058  20.961  0.00  0.00    +0.000 A 
BRANCH   7  14
ATOM     13  C   UNL     1       0.750  12.035  18.801  0.00  0.00    +0.000 C 
ATOM     14  C   UNL     1      -0.129  10.859  19.292  0.00  0.00    +0.000 C 
ATOM     15  C   UNL     1      -0.974  11.347  20.483  0.00  0.00    +0.000 C 
ATOM     16  C   UNL     1      -1.098  10.542  18.123  0.00  0.00    +0.000 C 
ENDBRANCH   7  14
ENDBRANCH   6  10
ENDBRANCH   1   6
BRANCH   1  17
ATOM     17  C   UNL     1       4.145   4.862  19.059  0.00  0.00    +0.000 C 
BRANCH  17  18
ATOM     18  C   UNL     1       4.679   5.116  17.658  0.00  0.00    +0.000 A 
ATOM     19  C   UNL     1       4.706   6.434  17.180  0.00  0.00    +0.000 A 
ATOM     20  C   UNL     1       5.148   6.719  15.887  0.00  0.00    +0.000 A 
ATOM     21  C   UNL     1       5.596   5.688  15.062  0.00  0.00    +0.000 A 
ATOM     22  C   UNL     1       5.569   4.365  15.503  0.00  0.00    +0.000 A 
ATOM     23  C   UNL     1       5.087   4.081  16.789  0.00  0.00    +0.000 A 
BRANCH  22  24
ATOM     24  O   UNL     1       6.084   3.458  14.612  0.00  0.00    +0.000 OA
BRANCH  24  25
ATOM     25  C   UNL     1       6.509   3.967  13.346  0.00  0.00    +0.000 C 
BRANCH  25  26
ATOM     26  C   UNL     1       5.895   3.146  12.220  0.00  0.00    +0.000 C 
ATOM     27  O   UNL     1       4.758   3.312  11.793  0.00  0.00    +0.000 OA
BRANCH  26  28
ATOM     28  O   UNL     1       6.713   2.185  11.727  0.00  0.00    +0.000 OA
ATOM     29  H   UNL     1       7.636   2.372  12.009  0.00  0.00    +0.000 HD
ENDBRANCH  26  28
ENDBRANCH  25  26
ENDBRANCH  24  25
ENDBRANCH  22  24
ENDBRANCH  17  18
ENDBRANCH   1  17
TORSDOF 10
ENDMDL
MODEL 6
REMARK VINA RESULT:      -7.7      1.054      1.280
REMARK  Name = 
REMARK  14 active torsions:
REMARK  status: ('A' for Active; 'I' for Inactive)
REMARK    1  A    between atoms: C_1  and  C_2
REMARK    2  A    between atoms: C_2  and  C_3
REMARK    3  A    between atoms: C_2  and  C_4
REMARK    4  A    between atoms: C_2  and  C_5
REMARK    5  A    between atoms: C_8  and  C_9
REMARK    6  A    between atoms: C_9  and  N_10
REMARK    7  A    between atoms: N_10  and  C_11
REMARK    8  A    between atoms: N_10  and  S_23
REMARK    9  A    between atoms: C_11  and  C_12
REMARK   10  A    between atoms: C_16  and  O_17
REMARK   11  A    between atoms: O_17  and  C_18
REMARK   12  A    between atoms: C_18  and  C_19
REMARK   13  A    between atoms: C_19  and  O_21
REMARK   14  A    between atoms: S_23  and  C_24
REMARK                            x       y       z     vdW  Elec       q    Type
REMARK                         _______ _______ _______ _____ _____    ______ ____
ROOT
ATOM      1  N   UNL     1       2.854   4.655  19.120  0.00  0.00    +0.000 NA
ENDROOT
BRANCH   1   2
ATOM      2  S   UNL     1       1.907   3.376  18.537  0.00  0.00    +0.000 S 
ATOM      3  C   UNL     1       0.818   3.029  19.905  0.00  0.00    +0.000 C 
ATOM      4  O   UNL     1       1.077   3.876  17.463  0.00  0.00    +0.000 OA
ATOM      5  O   UNL     1       2.764   2.228  18.335  0.00  0.00    +0.000 OA
ENDBRANCH   1   2
BRANCH   1   6
ATOM      6  C   UNL     1       2.274   5.407  20.259  0.00  0.00    +0.000 C 
BRANCH   6  10
ATOM      7  C   UNL     1       0.938   9.484  19.552  0.00  0.00    +0.000 A 
ATOM      8  C   UNL     1       1.748   8.820  18.610  0.00  0.00    +0.000 A 
ATOM      9  C   UNL     1       2.284   7.543  18.859  0.00  0.00    +0.000 A 
ATOM     10  C   UNL     1       2.056   6.900  20.078  0.00  0.00    +0.000 A 
ATOM     11  C   UNL     1       1.397   7.627  21.080  0.00  0.00    +0.000 A 
ATOM     12  C   UNL     1       0.856   8.898  20.824  0.00  0.00    +0.000 A 
BRANCH   7  14
ATOM     13  C   UNL     1      -0.910  10.426  18.055  0.00  0.00    +0.000 C 
ATOM     14  C   UNL     1       0.112  10.737  19.177  0.00  0.00    +0.000 C 
ATOM     15  C   UNL     1       1.024  11.882  18.701  0.00  0.00    +0.000 C 
ATOM     16  C   UNL     1      -0.725  11.265  20.372  0.00  0.00    +0.000 C 
ENDBRANCH   7  14
ENDBRANCH   6  10
ENDBRANCH   1   6
BRANCH   1  17
ATOM     17  C   UNL     1       4.311   4.365  19.230  0.00  0.00    +0.000 C 
BRANCH  17  18
ATOM     18  C   UNL     1       5.229   4.800  18.097  0.00  0.00    +0.000 A 
ATOM     19  C   UNL     1       6.416   5.473  18.418  0.00  0.00    +0.000 A 
ATOM     20  C   UNL     1       7.274   5.930  17.417  0.00  0.00    +0.000 A 
ATOM     21  C   UNL     1       6.968   5.696  16.077  0.00  0.00    +0.000 A 
ATOM     22  C   UNL     1       5.787   5.042  15.725  0.00  0.00    +0.000 A 
ATOM     23  C   UNL     1       4.909   4.619  16.734  0.00  0.00    +0.000 A 
BRANCH  22  24
ATOM     24  O   UNL     1       5.634   4.832  14.378  0.00  0.00    +0.000 OA
BRANCH  24  25
ATOM     25  C   UNL     1       6.508   3.880  13.768  0.00  0.00    +0.000 C 
BRANCH  25  26
ATOM     26  C   UNL     1       5.867   3.311  12.510  0.00  0.00    +0.000 C 
ATOM     27  O   UNL     1       4.711   3.535  12.170  0.00  0.00    +0.000 OA
BRANCH  26  28
ATOM     28  O   UNL     1       6.684   2.506  11.789  0.00  0.00    +0.000 OA
ATOM     29  H   UNL     1       6.373   2.485  10.856  0.00  0.00    +0.000 HD
ENDBRANCH  26  28
ENDBRANCH  25  26
ENDBRANCH  24  25
ENDBRANCH  22  24
ENDBRANCH  17  18
ENDBRANCH   1  17
TORSDOF 10
ENDMDL
MODEL 7
REMARK VINA RESULT:      -7.7      2.057      3.097
REMARK  Name = 
REMARK  14 active torsions:
REMARK  status: ('A' for Active; 'I' for Inactive)
REMARK    1  A    between atoms: C_1  and  C_2
REMARK    2  A    between atoms: C_2  and  C_3
REMARK    3  A    between atoms: C_2  and  C_4
REMARK    4  A    between atoms: C_2  and  C_5
REMARK    5  A    between atoms: C_8  and  C_9
REMARK    6  A    between atoms: C_9  and  N_10
REMARK    7  A    between atoms: N_10  and  C_11
REMARK    8  A    between atoms: N_10  and  S_23
REMARK    9  A    between atoms: C_11  and  C_12
REMARK   10  A    between atoms: C_16  and  O_17
REMARK   11  A    between atoms: O_17  and  C_18
REMARK   12  A    between atoms: C_18  and  C_19
REMARK   13  A    between atoms: C_19  and  O_21
REMARK   14  A    between atoms: S_23  and  C_24
REMARK                            x       y       z     vdW  Elec       q    Type
REMARK                         _______ _______ _______ _____ _____    ______ ____
ROOT
ATOM      1  N   UNL     1       3.024   4.389  18.864  0.00  0.00    +0.000 NA
ENDROOT
BRANCH   1   2
ATOM      2  S   UNL     1       1.953   3.232  18.239  0.00  0.00    +0.000 S 
ATOM      3  C   UNL     1       1.019   2.737  19.674  0.00  0.00    +0.000 C 
ATOM      4  O   UNL     1       1.028   3.902  17.352  0.00  0.00    +0.000 OA
ATOM      5  O   UNL     1       2.724   2.096  17.783  0.00  0.00    +0.000 OA
ENDBRANCH   1   2
BRANCH   1   6
ATOM      6  C   UNL     1       2.541   5.122  20.058  0.00  0.00    +0.000 C 
BRANCH   6  10
ATOM      7  C   UNL     1       1.154   9.207  19.514  0.00  0.00    +0.000 A 
ATOM      8  C   UNL     1       1.904   8.563  18.510  0.00  0.00    +0.000 A 
ATOM      9  C   UNL     1       2.458   7.283  18.701  0.00  0.00    +0.000 A 
ATOM     10  C   UNL     1       2.309   6.617  19.920  0.00  0.00    +0.000 A 
ATOM     11  C   UNL     1       1.713   7.323  20.975  0.00  0.00    +0.000 A 
ATOM     12  C   UNL     1       1.154   8.597  20.778  0.00  0.00    +0.000 A 
BRANCH   7  14
ATOM     13  C   UNL     1      -0.705  10.204  18.067  0.00  0.00    +0.000 C 
ATOM     14  C   UNL     1       0.302  10.463  19.215  0.00  0.00    +0.000 C 
ATOM     15  C   UNL     1       1.192  11.656  18.823  0.00  0.00    +0.000 C 
ATOM     16  C   UNL     1      -0.554  10.893  20.435  0.00  0.00    +0.000 C 
ENDBRANCH   7  14
ENDBRANCH   6  10
ENDBRANCH   1   6
BRANCH   1  17
ATOM     17  C   UNL     1       4.452   3.966  18.915  0.00  0.00    +0.000 C 
BRANCH  17  18
ATOM     18  C   UNL     1       5.475   4.753  18.110  0.00  0.00    +0.000 A 
ATOM     19  C   UNL     1       5.618   4.468  16.745  0.00  0.00    +0.000 A 
ATOM     20  C   UNL     1       6.569   5.132  15.970  0.00  0.00    +0.000 A 
ATOM     21  C   UNL     1       7.375   6.113  16.546  0.00  0.00    +0.000 A 
ATOM     22  C   UNL     1       7.267   6.410  17.905  0.00  0.00    +0.000 A 
ATOM     23  C   UNL     1       6.336   5.712  18.688  0.00  0.00    +0.000 A 
BRANCH  22  24
ATOM     24  O   UNL     1       8.082   7.429  18.330  0.00  0.00    +0.000 OA
BRANCH  24  25
ATOM     25  C   UNL     1       7.802   8.735  17.823  0.00  0.00    +0.000 C 
BRANCH  25  26
ATOM     26  C   UNL     1       8.772   9.746  18.417  0.00  0.00    +0.000 C 
ATOM     27  O   UNL     1       9.118  10.777  17.852  0.00  0.00    +0.000 OA
BRANCH  26  28
ATOM     28  O   UNL     1       9.251   9.403  19.637  0.00  0.00    +0.000 OA
ATOM     29  H   UNL     1       8.938   8.498  19.863  0.00  0.00    +0.000 HD
ENDBRANCH  26  28
ENDBRANCH  25  26
ENDBRANCH  24  25
ENDBRANCH  22  24
ENDBRANCH  17  18
ENDBRANCH   1  17
TORSDOF 10
ENDMDL
MODEL 8
REMARK VINA RESULT:      -7.6      1.009      1.437
REMARK  Name = 
REMARK  14 active torsions:
REMARK  status: ('A' for Active; 'I' for Inactive)
REMARK    1  A    between atoms: C_1  and  C_2
REMARK    2  A    between atoms: C_2  and  C_3
REMARK    3  A    between atoms: C_2  and  C_4
REMARK    4  A    between atoms: C_2  and  C_5
REMARK    5  A    between atoms: C_8  and  C_9
REMARK    6  A    between atoms: C_9  and  N_10
REMARK    7  A    between atoms: N_10  and  C_11
REMARK    8  A    between atoms: N_10  and  S_23
REMARK    9  A    between atoms: C_11  and  C_12
REMARK   10  A    between atoms: C_16  and  O_17
REMARK   11  A    between atoms: O_17  and  C_18
REMARK   12  A    between atoms: C_18  and  C_19
REMARK   13  A    between atoms: C_19  and  O_21
REMARK   14  A    between atoms: S_23  and  C_24
REMARK                            x       y       z     vdW  Elec       q    Type
REMARK                         _______ _______ _______ _____ _____    ______ ____
ROOT
ATOM      1  N   UNL     1       2.916   4.663  19.247  0.00  0.00    +0.000 NA
ENDROOT
BRANCH   1   2
ATOM      2  S   UNL     1       2.166   3.319  18.536  0.00  0.00    +0.000 S 
ATOM      3  C   UNL     1       0.866   2.929  19.691  0.00  0.00    +0.000 C 
ATOM      4  O   UNL     1       1.522   3.751  17.315  0.00  0.00    +0.000 OA
ATOM      5  O   UNL     1       3.110   2.222  18.526  0.00  0.00    +0.000 OA
ENDBRANCH   1   2
BRANCH   1   6
ATOM      6  C   UNL     1       2.105   5.380  20.261  0.00  0.00    +0.000 C 
BRANCH   6  10
ATOM      7  C   UNL     1       0.949   9.521  19.611  0.00  0.00    +0.000 A 
ATOM      8  C   UNL     1       1.741   8.839  18.666  0.00  0.00    +0.000 A 
ATOM      9  C   UNL     1       2.221   7.536  18.898  0.00  0.00    +0.000 A 
ATOM     10  C   UNL     1       1.952   6.884  20.104  0.00  0.00    +0.000 A 
ATOM     11  C   UNL     1       1.313   7.620  21.111  0.00  0.00    +0.000 A 
ATOM     12  C   UNL     1       0.828   8.917  20.871  0.00  0.00    +0.000 A 
BRANCH   7  14
ATOM     13  C   UNL     1       1.137  11.915  18.730  0.00  0.00    +0.000 C 
ATOM     14  C   UNL     1       0.180  10.813  19.248  0.00  0.00    +0.000 C 
ATOM     15  C   UNL     1      -0.583  11.365  20.466  0.00  0.00    +0.000 C 
ATOM     16  C   UNL     1      -0.849  10.581  18.110  0.00  0.00    +0.000 C 
ENDBRANCH   7  14
ENDBRANCH   6  10
ENDBRANCH   1   6
BRANCH   1  17
ATOM     17  C   UNL     1       4.350   4.472  19.603  0.00  0.00    +0.000 C 
BRANCH  17  18
ATOM     18  C   UNL     1       5.412   5.095  18.710  0.00  0.00    +0.000 A 
ATOM     19  C   UNL     1       6.595   5.561  19.301  0.00  0.00    +0.000 A 
ATOM     20  C   UNL     1       7.585   6.177  18.534  0.00  0.00    +0.000 A 
ATOM     21  C   UNL     1       7.416   6.311  17.157  0.00  0.00    +0.000 A 
ATOM     22  C   UNL     1       6.244   5.869  16.541  0.00  0.00    +0.000 A 
ATOM     23  C   UNL     1       5.236   5.286  17.322  0.00  0.00    +0.000 A 
BRANCH  22  24
ATOM     24  O   UNL     1       6.230   6.016  15.177  0.00  0.00    +0.000 OA
BRANCH  24  25
ATOM     25  C   UNL     1       7.044   5.117  14.422  0.00  0.00    +0.000 C 
BRANCH  25  26
ATOM     26  C   UNL     1       6.255   3.864  14.072  0.00  0.00    +0.000 C 
ATOM     27  O   UNL     1       5.758   3.653  12.971  0.00  0.00    +0.000 OA
BRANCH  26  28
ATOM     28  O   UNL     1       6.123   2.988  15.097  0.00  0.00    +0.000 OA
ATOM     29  H   UNL     1       5.404   2.351  14.887  0.00  0.00    +0.000 HD
ENDBRANCH  26  28
ENDBRANCH  25  26
ENDBRANCH  24  25
ENDBRANCH  22  24
ENDBRANCH  17  18
ENDBRANCH   1  17
TORSDOF 10
ENDMDL
MODEL 9
REMARK VINA RESULT:      -7.5      1.445      2.172
REMARK  Name = 
REMARK  14 active torsions:
REMARK  status: ('A' for Active; 'I' for Inactive)
REMARK    1  A    between atoms: C_1  and  C_2
REMARK    2  A    between atoms: C_2  and  C_3
REMARK    3  A    between atoms: C_2  and  C_4
REMARK    4  A    between atoms: C_2  and  C_5
REMARK    5  A    between atoms: C_8  and  C_9
REMARK    6  A    between atoms: C_9  and  N_10
REMARK    7  A    between atoms: N_10  and  C_11
REMARK    8  A    between atoms: N_10  and  S_23
REMARK    9  A    between atoms: C_11  and  C_12
REMARK   10  A    between atoms: C_16  and  O_17
REMARK   11  A    between atoms: O_17  and  C_18
REMARK   12  A    between atoms: C_18  and  C_19
REMARK   13  A    between atoms: C_19  and  O_21
REMARK   14  A    between atoms: S_23  and  C_24
REMARK                            x       y       z     vdW  Elec       q    Type
REMARK                         _______ _______ _______ _____ _____    ______ ____
ROOT
ATOM      1  N   UNL     1       3.194   4.777  18.782  0.00  0.00    +0.000 NA
ENDROOT
BRANCH   1   2
ATOM      2  S   UNL     1       1.945   3.666  18.501  0.00  0.00    +0.000 S 
ATOM      3  C   UNL     1       0.962   3.787  19.983  0.00  0.00    +0.000 C 
ATOM      4  O   UNL     1       1.126   4.167  17.418  0.00  0.00    +0.000 OA
ATOM      5  O   UNL     1       2.519   2.340  18.442  0.00  0.00    +0.000 OA
ENDBRANCH   1   2
BRANCH   1   6
ATOM      6  C   UNL     1       2.976   5.705  19.918  0.00  0.00    +0.000 C 
BRANCH   6  10
ATOM      7  C   UNL     1       1.267   9.656  19.305  0.00  0.00    +0.000 A 
ATOM      8  C   UNL     1       1.024   8.945  20.497  0.00  0.00    +0.000 A 
ATOM      9  C   UNL     1       1.472   7.623  20.679  0.00  0.00    +0.000 A 
ATOM     10  C   UNL     1       2.151   6.954  19.658  0.00  0.00    +0.000 A 
ATOM     11  C   UNL     1       2.245   7.596  18.414  0.00  0.00    +0.000 A 
ATOM     12  C   UNL     1       1.803   8.918  18.239  0.00  0.00    +0.000 A 
BRANCH   7  14
ATOM     13  C   UNL     1       2.068  11.846  18.252  0.00  0.00    +0.000 C 
ATOM     14  C   UNL     1       1.045  11.184  19.208  0.00  0.00    +0.000 C 
ATOM     15  C   UNL     1       1.168  11.851  20.590  0.00  0.00    +0.000 C 
ATOM     16  C   UNL     1      -0.353  11.536  18.635  0.00  0.00    +0.000 C 
ENDBRANCH   7  14
ENDBRANCH   6  10
ENDBRANCH   1   6
BRANCH   1  17
ATOM     17  C   UNL     1       4.572   4.219  18.677  0.00  0.00    +0.000 C 
BRANCH  17  18
ATOM     18  C   UNL     1       5.361   4.462  17.399  0.00  0.00    +0.000 A 
ATOM     19  C   UNL     1       6.651   5.001  17.500  0.00  0.00    +0.000 A 
ATOM     20  C   UNL     1       7.402   5.280  16.357  0.00  0.00    +0.000 A 
ATOM     21  C   UNL     1       6.882   4.998  15.095  0.00  0.00    +0.000 A 
ATOM     22  C   UNL     1       5.595   4.474  14.961  0.00  0.00    +0.000 A 
ATOM     23  C   UNL     1       4.830   4.232  16.111  0.00  0.00    +0.000 A 
BRANCH  22  24
ATOM     24  O   UNL     1       5.227   4.197  13.668  0.00  0.00    +0.000 OA
BRANCH  24  25
ATOM     25  C   UNL     1       6.151   3.444  12.881  0.00  0.00    +0.000 C 
BRANCH  25  26
ATOM     26  C   UNL     1       5.405   2.632  11.832  0.00  0.00    +0.000 C 
ATOM     27  O   UNL     1       5.846   1.614  11.312  0.00  0.00    +0.000 OA
BRANCH  26  28
ATOM     28  O   UNL     1       4.196   3.143  11.495  0.00  0.00    +0.000 OA
ATOM     29  H   UNL     1       4.328   3.977  10.991  0.00  0.00    +0.000 HD
ENDBRANCH  26  28
ENDBRANCH  25  26
ENDBRANCH  24  25
ENDBRANCH  22  24
ENDBRANCH  17  18
ENDBRANCH   1  17
TORSDOF 10
ENDMDL
