MODEL 1
REMARK VINA RESULT:      -9.2      0.000      0.000
REMARK  Name = 
REMARK  3 active torsions:
REMARK  status: ('A' for Active; 'I' for Inactive)
REMARK    1  A    between atoms: C_5  and  C_6
REMARK    2  A    between atoms: N_10  and  C_11
REMARK    3  A    between atoms: C_18  and  C_19
REMARK                            x       y       z     vdW  Elec       q    Type
REMARK                         _______ _______ _______ _____ _____    ______ ____
ROOT
ATOM      1  N   UNL     1       0.855   1.623  18.898  0.00  0.00    +0.000 N 
ATOM      2  C   UNL     1       1.996   2.374  18.821  0.00  0.00    +0.000 A 
ATOM      3  N   UNL     1       3.149   1.720  18.717  0.00  0.00    +0.000 NA
ATOM      4  C   UNL     1       4.253   2.472  18.732  0.00  0.00    +0.000 A 
ATOM      5  C   UNL     1       4.285   3.864  18.781  0.00  0.00    +0.000 A 
ATOM      6  C   UNL     1       3.030   4.455  18.815  0.00  0.00    +0.000 A 
ATOM      7  N   UNL     1       1.890   3.703  18.835  0.00  0.00    +0.000 NA
ATOM      8  H   UNL     1       0.998   0.717  18.481  0.00  0.00    +0.000 HD
ATOM      9  H   UNL     1       0.048   2.158  18.607  0.00  0.00    +0.000 HD
ENDROOT
BRANCH   6  10
ATOM     10  C   UNL     1       2.750   5.923  18.774  0.00  0.00    +0.000 A 
ATOM     11  C   UNL     1       3.001   6.720  17.640  0.00  0.00    +0.000 A 
ATOM     12  C   UNL     1       2.723   8.090  17.615  0.00  0.00    +0.000 A 
ATOM     13  C   UNL     1       2.126   8.691  18.715  0.00  0.00    +0.000 A 
ATOM     14 CL   UNL     1       1.701  10.354  18.647  0.00  0.00    +0.000 Cl
ATOM     15  C   UNL     1       1.849   7.941  19.852  0.00  0.00    +0.000 A 
ATOM     16  C   UNL     1       2.167   6.577  19.884  0.00  0.00    +0.000 A 
ENDBRANCH   6  10
BRANCH   5  17
ATOM     17  C   UNL     1       5.561   4.570  18.899  0.00  0.00    +0.000 A 
ATOM     18  N   UNL     1       6.082   5.041  20.023  0.00  0.00    +0.000 NA
ATOM     19  N   UNL     1       7.351   5.452  19.740  0.00  0.00    +0.000 NA
ATOM     20  N   UNL     1       7.656   5.200  18.480  0.00  0.00    +0.000 NA
ATOM     21  N   UNL     1       6.514   4.758  17.908  0.00  0.00    +0.000 N 
BRANCH  21  22
ATOM     22  C   UNL     1       6.433   4.599  16.508  0.00  0.00    +0.000 A 
ATOM     23  C   UNL     1       5.316   3.946  15.970  0.00  0.00    +0.000 A 
ATOM     24  C   UNL     1       5.236   3.739  14.594  0.00  0.00    +0.000 A 
ATOM     25  C   UNL     1       6.278   4.157  13.769  0.00  0.00    +0.000 A 
ATOM     26 CL   UNL     1       6.230   3.796  12.088  0.00  0.00    +0.000 Cl
ATOM     27  C   UNL     1       7.377   4.837  14.296  0.00  0.00    +0.000 A 
ATOM     28  C   UNL     1       7.454   5.070  15.670  0.00  0.00    +0.000 A 
ENDBRANCH  21  22
ENDBRANCH   5  17
TORSDOF 3
ENDMDL
MODEL 2
REMARK VINA RESULT:      -8.6      0.210      1.355
REMARK  Name = 
REMARK  3 active torsions:
REMARK  status: ('A' for Active; 'I' for Inactive)
REMARK    1  A    between atoms: C_5  and  C_6
REMARK    2  A    between atoms: N_10  and  C_11
REMARK    3  A    between atoms: C_18  and  C_19
REMARK                            x       y       z     vdW  Elec       q    Type
REMARK                         _______ _______ _______ _____ _____    ______ ____
ROOT
ATOM      1  N   UNL     1       1.046   1.466  19.181  0.00  0.00    +0.000 N 
ATOM      2  C   UNL     1       2.161   2.247  19.045  0.00  0.00    +0.000 A 
ATOM      3  N   UNL     1       3.334   1.627  18.969  0.00  0.00    +0.000 NA
ATOM      4  C   UNL     1       4.413   2.414  18.925  0.00  0.00    +0.000 A 
ATOM      5  C   UNL     1       4.399   3.806  18.887  0.00  0.00    +0.000 A 
ATOM      6  C   UNL     1       3.125   4.357  18.898  0.00  0.00    +0.000 A 
ATOM      7  N   UNL     1       2.011   3.571  18.977  0.00  0.00    +0.000 NA
ATOM      8  H   UNL     1       1.216   0.541  18.820  0.00  0.00    +0.000 HD
ATOM      9  H   UNL     1       0.220   1.954  18.866  0.00  0.00    +0.000 HD
ENDROOT
BRANCH   6  10
ATOM     10  C   UNL     1       2.795   5.810  18.768  0.00  0.00    +0.000 A 
ATOM     11  C   UNL     1       2.221   6.561  19.811  0.00  0.00    +0.000 A 
ATOM     12  C   UNL     1       1.928   7.922  19.677  0.00  0.00    +0.000 A 
ATOM     13  C   UNL     1       2.259   8.584  18.502  0.00  0.00    +0.000 A 
ATOM     14 CL   UNL     1       1.982  10.274  18.373  0.00  0.00    +0.000 Cl
ATOM     15  C   UNL     1       2.837   7.885  17.449  0.00  0.00    +0.000 A 
ATOM     16  C   UNL     1       3.092   6.513  17.578  0.00  0.00    +0.000 A 
ENDBRANCH   6  10
BRANCH   5  17
ATOM     17  C   UNL     1       5.652   4.560  18.947  0.00  0.00    +0.000 A 
ATOM     18  N   UNL     1       6.169   5.112  20.035  0.00  0.00    +0.000 NA
ATOM     19  N   UNL     1       7.421   5.548  19.712  0.00  0.00    +0.000 NA
ATOM     20  N   UNL     1       7.718   5.234  18.464  0.00  0.00    +0.000 NA
ATOM     21  N   UNL     1       6.585   4.722  17.934  0.00  0.00    +0.000 N 
BRANCH  21  22
ATOM     22  C   UNL     1       6.493   4.481  16.546  0.00  0.00    +0.000 A 
ATOM     23  C   UNL     1       7.514   4.957  15.713  0.00  0.00    +0.000 A 
ATOM     24  C   UNL     1       7.422   4.768  14.335  0.00  0.00    +0.000 A 
ATOM     25  C   UNL     1       6.305   4.135  13.795  0.00  0.00    +0.000 A 
ATOM     26 CL   UNL     1       6.140   4.008  12.088  0.00  0.00    +0.000 Cl
ATOM     27  C   UNL     1       5.302   3.630  14.623  0.00  0.00    +0.000 A 
ATOM     28  C   UNL     1       5.396   3.793  16.006  0.00  0.00    +0.000 A 
ENDBRANCH  21  22
ENDBRANCH   5  17
TORSDOF 3
ENDMDL
MODEL 3
REMARK VINA RESULT:      -8.5      2.797      5.302
REMARK  Name = 
REMARK  3 active torsions:
REMARK  status: ('A' for Active; 'I' for Inactive)
REMARK    1  A    between atoms: C_5  and  C_6
REMARK    2  A    between atoms: N_10  and  C_11
REMARK    3  A    between atoms: C_18  and  C_19
REMARK                            x       y       z     vdW  Elec       q    Type
REMARK                         _______ _______ _______ _____ _____    ______ ____
ROOT
ATOM      1  N   UNL     1       5.760   3.406  12.442  0.00  0.00    +0.000 N 
ATOM      2  C   UNL     1       5.960   3.813  13.733  0.00  0.00    +0.000 A 
ATOM      3  N   UNL     1       7.043   4.542  13.981  0.00  0.00    +0.000 NA
ATOM      4  C   UNL     1       7.261   4.852  15.262  0.00  0.00    +0.000 A 
ATOM      5  C   UNL     1       6.423   4.531  16.327  0.00  0.00    +0.000 A 
ATOM      6  C   UNL     1       5.284   3.831  15.957  0.00  0.00    +0.000 A 
ATOM      7  N   UNL     1       5.059   3.476  14.656  0.00  0.00    +0.000 NA
ATOM      8  H   UNL     1       6.231   4.023  11.799  0.00  0.00    +0.000 HD
ATOM      9  H   UNL     1       4.786   3.198  12.273  0.00  0.00    +0.000 HD
ENDROOT
BRANCH   6  10
ATOM     10  C   UNL     1       4.161   3.438  16.862  0.00  0.00    +0.000 A 
ATOM     11  C   UNL     1       4.320   2.540  17.934  0.00  0.00    +0.000 A 
ATOM     12  C   UNL     1       3.261   2.190  18.779  0.00  0.00    +0.000 A 
ATOM     13  C   UNL     1       2.018   2.782  18.603  0.00  0.00    +0.000 A 
ATOM     14 CL   UNL     1       0.744   2.420  19.697  0.00  0.00    +0.000 Cl
ATOM     15  C   UNL     1       1.817   3.682  17.564  0.00  0.00    +0.000 A 
ATOM     16  C   UNL     1       2.873   3.998  16.698  0.00  0.00    +0.000 A 
ENDBRANCH   6  10
BRANCH   5  17
ATOM     17  C   UNL     1       6.825   4.835  17.701  0.00  0.00    +0.000 A 
ATOM     18  N   UNL     1       7.940   4.425  18.288  0.00  0.00    +0.000 NA
ATOM     19  N   UNL     1       8.031   5.074  19.484  0.00  0.00    +0.000 NA
ATOM     20  N   UNL     1       7.028   5.920  19.635  0.00  0.00    +0.000 NA
ATOM     21  N   UNL     1       6.202   5.701  18.588  0.00  0.00    +0.000 N 
BRANCH  21  22
ATOM     22  C   UNL     1       4.921   6.292  18.555  0.00  0.00    +0.000 A 
ATOM     23  C   UNL     1       4.632   7.212  17.539  0.00  0.00    +0.000 A 
ATOM     24  C   UNL     1       3.389   7.842  17.512  0.00  0.00    +0.000 A 
ATOM     25  C   UNL     1       2.454   7.572  18.510  0.00  0.00    +0.000 A 
ATOM     26 CL   UNL     1       0.968   8.435  18.540  0.00  0.00    +0.000 Cl
ATOM     27  C   UNL     1       2.724   6.631  19.504  0.00  0.00    +0.000 A 
ATOM     28  C   UNL     1       3.958   5.979  19.526  0.00  0.00    +0.000 A 
ENDBRANCH  21  22
ENDBRANCH   5  17
TORSDOF 3
ENDMDL
MODEL 4
REMARK VINA RESULT:      -7.7      5.487      7.951
REMARK  Name = 
REMARK  3 active torsions:
REMARK  status: ('A' for Active; 'I' for Inactive)
REMARK    1  A    between atoms: C_5  and  C_6
REMARK    2  A    between atoms: N_10  and  C_11
REMARK    3  A    between atoms: C_18  and  C_19
REMARK                            x       y       z     vdW  Elec       q    Type
REMARK                         _______ _______ _______ _____ _____    ______ ____
ROOT
ATOM      1  N   UNL     1      -3.186  11.503  16.072  0.00  0.00    +0.000 N 
ATOM      2  C   UNL     1      -2.369  11.227  17.134  0.00  0.00    +0.000 A 
ATOM      3  N   UNL     1      -2.577  10.085  17.782  0.00  0.00    +0.000 NA
ATOM      4  C   UNL     1      -1.825   9.881  18.867  0.00  0.00    +0.000 A 
ATOM      5  C   UNL     1      -0.816  10.725  19.324  0.00  0.00    +0.000 A 
ATOM      6  C   UNL     1      -0.628  11.854  18.540  0.00  0.00    +0.000 A 
ATOM      7  N   UNL     1      -1.409  12.098  17.446  0.00  0.00    +0.000 NA
ATOM      8  H   UNL     1      -3.566  10.652  15.687  0.00  0.00    +0.000 HD
ATOM      9  H   UNL     1      -2.750  12.157  15.438  0.00  0.00    +0.000 HD
ENDROOT
BRANCH   6  10
ATOM     10  C   UNL     1       0.439  12.885  18.726  0.00  0.00    +0.000 A 
ATOM     11  C   UNL     1       1.780  12.675  18.355  0.00  0.00    +0.000 A 
ATOM     12  C   UNL     1       2.764  13.655  18.526  0.00  0.00    +0.000 A 
ATOM     13  C   UNL     1       2.413  14.902  19.024  0.00  0.00    +0.000 A 
ATOM     14 CL   UNL     1       3.605  16.133  19.148  0.00  0.00    +0.000 Cl
ATOM     15  C   UNL     1       1.098  15.158  19.393  0.00  0.00    +0.000 A 
ATOM     16  C   UNL     1       0.126  14.159  19.255  0.00  0.00    +0.000 A 
ENDBRANCH   6  10
BRANCH   5  17
ATOM     17  C   UNL     1      -0.133  10.444  20.588  0.00  0.00    +0.000 A 
ATOM     18  N   UNL     1      -0.358  11.058  21.740  0.00  0.00    +0.000 NA
ATOM     19  N   UNL     1       0.334  10.381  22.701  0.00  0.00    +0.000 NA
ATOM     20  N   UNL     1       0.943   9.328  22.187  0.00  0.00    +0.000 NA
ATOM     21  N   UNL     1       0.760   9.416  20.850  0.00  0.00    +0.000 N 
BRANCH  21  22
ATOM     22  C   UNL     1       1.466   8.560  19.977  0.00  0.00    +0.000 A 
ATOM     23  C   UNL     1       1.834   7.289  20.436  0.00  0.00    +0.000 A 
ATOM     24  C   UNL     1       2.569   6.443  19.606  0.00  0.00    +0.000 A 
ATOM     25  C   UNL     1       2.955   6.879  18.341  0.00  0.00    +0.000 A 
ATOM     26 CL   UNL     1       3.960   5.880  17.366  0.00  0.00    +0.000 Cl
ATOM     27  C   UNL     1       2.562   8.131  17.866  0.00  0.00    +0.000 A 
ATOM     28  C   UNL     1       1.806   8.975  18.681  0.00  0.00    +0.000 A 
ENDBRANCH  21  22
ENDBRANCH   5  17
TORSDOF 3
ENDMDL
MODEL 5
REMARK VINA RESULT:      -7.7      5.729      8.319
REMARK  Name = 
REMARK  3 active torsions:
REMARK  status: ('A' for Active; 'I' for Inactive)
REMARK    1  A    between atoms: C_5  and  C_6
REMARK    2  A    between atoms: N_10  and  C_11
REMARK    3  A    between atoms: C_18  and  C_19
REMARK                            x       y       z     vdW  Elec       q    Type
REMARK                         _______ _______ _______ _____ _____    ______ ____
ROOT
ATOM      1  N   UNL     1      -3.214  11.405  15.833  0.00  0.00    +0.000 N 
ATOM      2  C   UNL     1      -2.454  11.243  16.959  0.00  0.00    +0.000 A 
ATOM      3  N   UNL     1      -2.662  10.147  17.682  0.00  0.00    +0.000 NA
ATOM      4  C   UNL     1      -1.969  10.055  18.821  0.00  0.00    +0.000 A 
ATOM      5  C   UNL     1      -1.018  10.970  19.266  0.00  0.00    +0.000 A 
ATOM      6  C   UNL     1      -0.822  12.042  18.408  0.00  0.00    +0.000 A 
ATOM      7  N   UNL     1      -1.544  12.171  17.255  0.00  0.00    +0.000 NA
ATOM      8  H   UNL     1      -3.542  10.514  15.496  0.00  0.00    +0.000 HD
ATOM      9  H   UNL     1      -2.763  12.026  15.176  0.00  0.00    +0.000 HD
ENDROOT
BRANCH   6  10
ATOM     10  C   UNL     1       0.198  13.124  18.572  0.00  0.00    +0.000 A 
ATOM     11  C   UNL     1       1.574  12.917  18.362  0.00  0.00    +0.000 A 
ATOM     12  C   UNL     1       2.513  13.944  18.510  0.00  0.00    +0.000 A 
ATOM     13  C   UNL     1       2.086  15.228  18.818  0.00  0.00    +0.000 A 
ATOM     14 CL   UNL     1       3.231  16.505  18.909  0.00  0.00    +0.000 Cl
ATOM     15  C   UNL     1       0.735  15.480  19.024  0.00  0.00    +0.000 A 
ATOM     16  C   UNL     1      -0.196  14.439  18.912  0.00  0.00    +0.000 A 
ENDBRANCH   6  10
BRANCH   5  17
ATOM     17  C   UNL     1      -0.403  10.813  20.585  0.00  0.00    +0.000 A 
ATOM     18  N   UNL     1      -0.685  11.534  21.659  0.00  0.00    +0.000 NA
ATOM     19  N   UNL     1      -0.047  10.954  22.716  0.00  0.00    +0.000 NA
ATOM     20  N   UNL     1       0.583   9.857  22.338  0.00  0.00    +0.000 NA
ATOM     21  N   UNL     1       0.471   9.815  20.991  0.00  0.00    +0.000 N 
BRANCH  21  22
ATOM     22  C   UNL     1       1.217   8.879  20.242  0.00  0.00    +0.000 A 
ATOM     23  C   UNL     1       1.604   9.218  18.940  0.00  0.00    +0.000 A 
ATOM     24  C   UNL     1       2.304   8.293  18.166  0.00  0.00    +0.000 A 
ATOM     25  C   UNL     1       2.587   7.031  18.683  0.00  0.00    +0.000 A 
ATOM     26 CL   UNL     1       3.346   5.853  17.687  0.00  0.00    +0.000 Cl
ATOM     27  C   UNL     1       2.232   6.700  19.992  0.00  0.00    +0.000 A 
ATOM     28  C   UNL     1       1.553   7.629  20.782  0.00  0.00    +0.000 A 
ENDBRANCH  21  22
ENDBRANCH   5  17
TORSDOF 3
ENDMDL
MODEL 6
REMARK VINA RESULT:      -7.6      5.948      8.800
REMARK  Name = 
REMARK  3 active torsions:
REMARK  status: ('A' for Active; 'I' for Inactive)
REMARK    1  A    between atoms: C_5  and  C_6
REMARK    2  A    between atoms: N_10  and  C_11
REMARK    3  A    between atoms: C_18  and  C_19
REMARK                            x       y       z     vdW  Elec       q    Type
REMARK                         _______ _______ _______ _____ _____    ______ ____
ROOT
ATOM      1  N   UNL     1       2.609  14.557  17.669  0.00  0.00    +0.000 N 
ATOM      2  C   UNL     1       2.000  13.803  18.634  0.00  0.00    +0.000 A 
ATOM      3  N   UNL     1       2.685  13.572  19.749  0.00  0.00    +0.000 NA
ATOM      4  C   UNL     1       2.104  12.761  20.638  0.00  0.00    +0.000 A 
ATOM      5  C   UNL     1       0.834  12.202  20.516  0.00  0.00    +0.000 A 
ATOM      6  C   UNL     1       0.171  12.560  19.351  0.00  0.00    +0.000 A 
ATOM      7  N   UNL     1       0.761  13.361  18.414  0.00  0.00    +0.000 NA
ATOM      8  H   UNL     1       3.314  15.150  18.076  0.00  0.00    +0.000 HD
ATOM      9  H   UNL     1       1.927  14.982  17.056  0.00  0.00    +0.000 HD
ENDROOT
BRANCH   6  10
ATOM     10  C   UNL     1      -1.235  12.196  18.992  0.00  0.00    +0.000 A 
ATOM     11  C   UNL     1      -2.347  12.585  19.763  0.00  0.00    +0.000 A 
ATOM     12  C   UNL     1      -3.656  12.244  19.407  0.00  0.00    +0.000 A 
ATOM     13  C   UNL     1      -3.890  11.549  18.229  0.00  0.00    +0.000 A 
ATOM     14 CL   UNL     1      -5.505  11.212  17.748  0.00  0.00    +0.000 Cl
ATOM     15  C   UNL     1      -2.823  11.154  17.431  0.00  0.00    +0.000 A 
ATOM     16  C   UNL     1      -1.511  11.466  17.814  0.00  0.00    +0.000 A 
ENDBRANCH   6  10
BRANCH   5  17
ATOM     17  C   UNL     1       0.350  11.243  21.509  0.00  0.00    +0.000 A 
ATOM     18  N   UNL     1      -0.284  11.548  22.632  0.00  0.00    +0.000 NA
ATOM     19  N   UNL     1      -0.731  10.380  23.175  0.00  0.00    +0.000 NA
ATOM     20  N   UNL     1      -0.440   9.357  22.392  0.00  0.00    +0.000 NA
ATOM     21  N   UNL     1       0.336   9.860  21.406  0.00  0.00    +0.000 N 
BRANCH  21  22
ATOM     22  C   UNL     1       1.001   8.994  20.511  0.00  0.00    +0.000 A 
ATOM     23  C   UNL     1       1.436   7.748  20.981  0.00  0.00    +0.000 A 
ATOM     24  C   UNL     1       2.134   6.895  20.127  0.00  0.00    +0.000 A 
ATOM     25  C   UNL     1       2.417   7.298  18.825  0.00  0.00    +0.000 A 
ATOM     26 CL   UNL     1       3.377   6.294  17.812  0.00  0.00    +0.000 Cl
ATOM     27  C   UNL     1       1.958   8.524  18.342  0.00  0.00    +0.000 A 
ATOM     28  C   UNL     1       1.238   9.375  19.182  0.00  0.00    +0.000 A 
ENDBRANCH  21  22
ENDBRANCH   5  17
TORSDOF 3
ENDMDL
MODEL 7
REMARK VINA RESULT:      -7.6      6.495      9.523
REMARK  Name = 
REMARK  3 active torsions:
REMARK  status: ('A' for Active; 'I' for Inactive)
REMARK    1  A    between atoms: C_5  and  C_6
REMARK    2  A    between atoms: N_10  and  C_11
REMARK    3  A    between atoms: C_18  and  C_19
REMARK                            x       y       z     vdW  Elec       q    Type
REMARK                         _______ _______ _______ _____ _____    ______ ____
ROOT
ATOM      1  N   UNL     1       3.566  15.018  21.833  0.00  0.00    +0.000 N 
ATOM      2  C   UNL     1       2.645  14.227  21.202  0.00  0.00    +0.000 A 
ATOM      3  N   UNL     1       2.975  13.739  20.011  0.00  0.00    +0.000 NA
ATOM      4  C   UNL     1       2.026  13.043  19.378  0.00  0.00    +0.000 A 
ATOM      5  C   UNL     1       0.766  12.741  19.890  0.00  0.00    +0.000 A 
ATOM      6  C   UNL     1       0.544  13.233  21.168  0.00  0.00    +0.000 A 
ATOM      7  N   UNL     1       1.489  13.976  21.818  0.00  0.00    +0.000 NA
ATOM      8  H   UNL     1       4.495  14.811  21.503  0.00  0.00    +0.000 HD
ATOM      9  H   UNL     1       3.409  15.035  22.831  0.00  0.00    +0.000 HD
ENDROOT
BRANCH   6  10
ATOM     10  C   UNL     1      -0.670  12.987  22.006  0.00  0.00    +0.000 A 
ATOM     11  C   UNL     1      -0.987  11.724  22.542  0.00  0.00    +0.000 A 
ATOM     12  C   UNL     1      -2.121  11.513  23.333  0.00  0.00    +0.000 A 
ATOM     13  C   UNL     1      -2.942  12.584  23.657  0.00  0.00    +0.000 A 
ATOM     14 CL   UNL     1      -4.283  12.340  24.704  0.00  0.00    +0.000 Cl
ATOM     15  C   UNL     1      -2.662  13.851  23.160  0.00  0.00    +0.000 A 
ATOM     16  C   UNL     1      -1.545  14.047  22.336  0.00  0.00    +0.000 A 
ENDBRANCH   6  10
BRANCH   5  17
ATOM     17  C   UNL     1      -0.226  12.060  19.057  0.00  0.00    +0.000 A 
ATOM     18  N   UNL     1      -1.312  12.615  18.541  0.00  0.00    +0.000 NA
ATOM     19  N   UNL     1      -1.861  11.710  17.681  0.00  0.00    +0.000 NA
ATOM     20  N   UNL     1      -1.115  10.622  17.607  0.00  0.00    +0.000 NA
ATOM     21  N   UNL     1      -0.154  10.773  18.545  0.00  0.00    +0.000 N 
BRANCH  21  22
ATOM     22  C   UNL     1       0.691   9.692  18.880  0.00  0.00    +0.000 A 
ATOM     23  C   UNL     1       1.465   9.108  17.869  0.00  0.00    +0.000 A 
ATOM     24  C   UNL     1       2.273   8.012  18.167  0.00  0.00    +0.000 A 
ATOM     25  C   UNL     1       2.283   7.489  19.458  0.00  0.00    +0.000 A 
ATOM     26 CL   UNL     1       3.190   6.067  19.794  0.00  0.00    +0.000 Cl
ATOM     27  C   UNL     1       1.539   8.087  20.475  0.00  0.00    +0.000 A 
ATOM     28  C   UNL     1       0.745   9.200  20.192  0.00  0.00    +0.000 A 
ENDBRANCH  21  22
ENDBRANCH   5  17
TORSDOF 3
ENDMDL
MODEL 8
REMARK VINA RESULT:      -7.5      1.280      1.384
REMARK  Name = 
REMARK  3 active torsions:
REMARK  status: ('A' for Active; 'I' for Inactive)
REMARK    1  A    between atoms: C_5  and  C_6
REMARK    2  A    between atoms: N_10  and  C_11
REMARK    3  A    between atoms: C_18  and  C_19
REMARK                            x       y       z     vdW  Elec       q    Type
REMARK                         _______ _______ _______ _____ _____    ______ ____
ROOT
ATOM      1  N   UNL     1       1.855   1.739  18.898  0.00  0.00    +0.000 N 
ATOM      2  C   UNL     1       2.717   2.712  18.472  0.00  0.00    +0.000 A 
ATOM      3  N   UNL     1       3.824   2.317  17.852  0.00  0.00    +0.000 NA
ATOM      4  C   UNL     1       4.689   3.281  17.525  0.00  0.00    +0.000 A 
ATOM      5  C   UNL     1       4.494   4.646  17.722  0.00  0.00    +0.000 A 
ATOM      6  C   UNL     1       3.278   4.962  18.311  0.00  0.00    +0.000 A 
ATOM      7  N   UNL     1       2.394   3.989  18.683  0.00  0.00    +0.000 NA
ATOM      8  H   UNL     1       1.974   0.898  18.355  0.00  0.00    +0.000 HD
ATOM      9  H   UNL     1       0.920   2.104  19.010  0.00  0.00    +0.000 HD
ENDROOT
BRANCH   6  10
ATOM     10  C   UNL     1       2.752   6.340  18.556  0.00  0.00    +0.000 A 
ATOM     11  C   UNL     1       2.598   7.294  17.532  0.00  0.00    +0.000 A 
ATOM     12  C   UNL     1       2.094   8.576  17.777  0.00  0.00    +0.000 A 
ATOM     13  C   UNL     1       1.675   8.917  19.055  0.00  0.00    +0.000 A 
ATOM     14 CL   UNL     1       0.972  10.460  19.334  0.00  0.00    +0.000 Cl
ATOM     15  C   UNL     1       1.798   8.003  20.095  0.00  0.00    +0.000 A 
ATOM     16  C   UNL     1       2.340   6.735  19.849  0.00  0.00    +0.000 A 
ENDBRANCH   6  10
BRANCH   5  17
ATOM     17  C   UNL     1       5.564   5.597  17.417  0.00  0.00    +0.000 A 
ATOM     18  N   UNL     1       6.021   6.532  18.236  0.00  0.00    +0.000 NA
ATOM     19  N   UNL     1       7.132   7.071  17.655  0.00  0.00    +0.000 NA
ATOM     20  N   UNL     1       7.410   6.459  16.519  0.00  0.00    +0.000 NA
ATOM     21  N   UNL     1       6.378   5.615  16.294  0.00  0.00    +0.000 N 
BRANCH  21  22
ATOM     22  C   UNL     1       6.252   4.958  15.051  0.00  0.00    +0.000 A 
ATOM     23  C   UNL     1       5.002   4.439  14.690  0.00  0.00    +0.000 A 
ATOM     24  C   UNL     1       4.864   3.748  13.487  0.00  0.00    +0.000 A 
ATOM     25  C   UNL     1       5.975   3.555  12.669  0.00  0.00    +0.000 A 
ATOM     26 CL   UNL     1       5.827   2.603  11.244  0.00  0.00    +0.000 Cl
ATOM     27  C   UNL     1       7.214   4.098  13.008  0.00  0.00    +0.000 A 
ATOM     28  C   UNL     1       7.356   4.812  14.199  0.00  0.00    +0.000 A 
ENDBRANCH  21  22
ENDBRANCH   5  17
TORSDOF 3
ENDMDL
MODEL 9
REMARK VINA RESULT:      -7.4      6.270     10.230
REMARK  Name = 
REMARK  3 active torsions:
REMARK  status: ('A' for Active; 'I' for Inactive)
REMARK    1  A    between atoms: C_5  and  C_6
REMARK    2  A    between atoms: N_10  and  C_11
REMARK    3  A    between atoms: C_18  and  C_19
REMARK                            x       y       z     vdW  Elec       q    Type
REMARK                         _______ _______ _______ _____ _____    ______ ____
ROOT
ATOM      1  N   UNL     1      -2.931  10.339  16.040  0.00  0.00    +0.000 N 
ATOM      2  C   UNL     1      -2.088  10.735  17.042  0.00  0.00    +0.000 A 
ATOM      3  N   UNL     1      -2.314  11.922  17.596  0.00  0.00    +0.000 NA
ATOM      4  C   UNL     1      -1.425  12.322  18.510  0.00  0.00    +0.000 A 
ATOM      5  C   UNL     1      -0.339  11.578  18.964  0.00  0.00    +0.000 A 
ATOM      6  C   UNL     1      -0.231  10.325  18.378  0.00  0.00    +0.000 A 
ATOM      7  N   UNL     1      -1.109   9.910  17.417  0.00  0.00    +0.000 NA
ATOM      8  H   UNL     1      -3.820  10.808  16.121  0.00  0.00    +0.000 HD
ATOM      9  H   UNL     1      -2.931   9.334  15.940  0.00  0.00    +0.000 HD
ENDROOT
BRANCH   6  10
ATOM     10  C   UNL     1       0.770   9.272  18.734  0.00  0.00    +0.000 A 
ATOM     11  C   UNL     1       0.866   8.710  20.021  0.00  0.00    +0.000 A 
ATOM     12  C   UNL     1       1.801   7.718  20.334  0.00  0.00    +0.000 A 
ATOM     13  C   UNL     1       2.633   7.220  19.341  0.00  0.00    +0.000 A 
ATOM     14 CL   UNL     1       3.718   5.939  19.707  0.00  0.00    +0.000 Cl
ATOM     15  C   UNL     1       2.567   7.738  18.053  0.00  0.00    +0.000 A 
ATOM     16  C   UNL     1       1.654   8.758  17.757  0.00  0.00    +0.000 A 
ENDBRANCH   6  10
BRANCH   5  17
ATOM     17  C   UNL     1       0.625  12.169  19.893  0.00  0.00    +0.000 A 
ATOM     18  N   UNL     1       1.908  12.382  19.641  0.00  0.00    +0.000 NA
ATOM     19  N   UNL     1       2.408  13.116  20.676  0.00  0.00    +0.000 NA
ATOM     20  N   UNL     1       1.457  13.412  21.543  0.00  0.00    +0.000 NA
ATOM     21  N   UNL     1       0.362  12.732  21.133  0.00  0.00    +0.000 N 
BRANCH  21  22
ATOM     22  C   UNL     1      -0.780  12.656  21.958  0.00  0.00    +0.000 A 
ATOM     23  C   UNL     1      -1.495  13.831  22.224  0.00  0.00    +0.000 A 
ATOM     24  C   UNL     1      -2.601  13.787  23.072  0.00  0.00    +0.000 A 
ATOM     25  C   UNL     1      -2.969  12.584  23.669  0.00  0.00    +0.000 A 
ATOM     26 CL   UNL     1      -4.261  12.556  24.804  0.00  0.00    +0.000 Cl
ATOM     27  C   UNL     1      -2.280  11.405  23.381  0.00  0.00    +0.000 A 
ATOM     28  C   UNL     1      -1.186  11.434  22.515  0.00  0.00    +0.000 A 
ENDBRANCH  21  22
ENDBRANCH   5  17
TORSDOF 3
ENDMDL
