MODEL 1
REMARK VINA RESULT:      -6.7      0.000      0.000
REMARK  Name = 
REMARK  6 active torsions:
REMARK  status: ('A' for Active; 'I' for Inactive)
REMARK    1  A    between atoms: C_2  and  C_3
REMARK    2  A    between atoms: C_5  and  C_6
REMARK    3  A    between atoms: C_6  and  C_7
REMARK    4  A    between atoms: C_7  and  C_8
REMARK    5  A    between atoms: CA_15  and  C_16
REMARK    6  A    between atoms: C_16  and  O_17
REMARK                            x       y       z     vdW  Elec       q    Type
REMARK                         _______ _______ _______ _____ _____    ______ ____
ROOT
ATOM      1  C   UNL     1       6.357   6.642  16.946  0.00  0.00    +0.000 C 
ATOM      2  O   UNL     1       5.177   7.152  17.575  0.00  0.00    +0.000 OA
ATOM      3  C   UNL     1       4.273   6.154  17.474  0.00  0.00    +0.000 C 
ATOM      4  N   UNL     1       4.660   4.978  17.083  0.00  0.00    +0.000 NA
ATOM      5  CA  UNL     1       6.135   5.134  16.983  0.00  0.00    +0.000 C 
ENDROOT
BRANCH   1   7
ATOM      6  C   UNL     1       7.944   8.511  17.690  0.00  0.00    +0.000 C 
ATOM      7  C   UNL     1       7.556   7.228  17.639  0.00  0.00    +0.000 C 
ENDBRANCH   1   7
BRANCH   3   8
ATOM      8  C   UNL     1       2.867   6.458  17.898  0.00  0.00    +0.000 C 
BRANCH   8   9
ATOM      9  C   UNL     1       2.636   6.397  19.405  0.00  0.00    +0.000 C 
BRANCH   9  10
ATOM     10  C   UNL     1       2.130   5.038  19.836  0.00  0.00    +0.000 A 
ATOM     11  C   UNL     1       2.299   4.606  21.158  0.00  0.00    +0.000 A 
ATOM     12  C   UNL     1       1.853   3.342  21.560  0.00  0.00    +0.000 A 
ATOM     13  C   UNL     1       1.240   2.494  20.639  0.00  0.00    +0.000 A 
ATOM     14  C   UNL     1       1.073   2.909  19.322  0.00  0.00    +0.000 A 
ATOM     15  C   UNL     1       1.516   4.172  18.919  0.00  0.00    +0.000 A 
ENDBRANCH   9  10
ENDBRANCH   8   9
ENDBRANCH   3   8
BRANCH   5  16
ATOM     16  C   UNL     1       6.644   4.424  15.731  0.00  0.00    +0.000 C 
BRANCH  16  17
ATOM     17  O   UNL     1       6.104   3.105  15.665  0.00  0.00    +0.000 OA
ATOM     18  H   UNL     1       6.808   2.559  15.260  0.00  0.00    +0.000 HD
ENDBRANCH  16  17
ENDBRANCH   5  16
TORSDOF 6
ENDMDL
MODEL 2
REMARK VINA RESULT:      -6.7      1.444      2.363
REMARK  Name = 
REMARK  6 active torsions:
REMARK  status: ('A' for Active; 'I' for Inactive)
REMARK    1  A    between atoms: C_2  and  C_3
REMARK    2  A    between atoms: C_5  and  C_6
REMARK    3  A    between atoms: C_6  and  C_7
REMARK    4  A    between atoms: C_7  and  C_8
REMARK    5  A    between atoms: CA_15  and  C_16
REMARK    6  A    between atoms: C_16  and  O_17
REMARK                            x       y       z     vdW  Elec       q    Type
REMARK                         _______ _______ _______ _____ _____    ______ ____
ROOT
ATOM      1  C   UNL     1       5.973   4.766  16.434  0.00  0.00    +0.000 C 
ATOM      2  O   UNL     1       4.593   5.147  16.420  0.00  0.00    +0.000 OA
ATOM      3  C   UNL     1       4.415   5.841  17.564  0.00  0.00    +0.000 C 
ATOM      4  N   UNL     1       5.448   6.192  18.268  0.00  0.00    +0.000 NA
ATOM      5  CA  UNL     1       6.587   5.758  17.416  0.00  0.00    +0.000 C 
ENDROOT
BRANCH   1   7
ATOM      6  C   UNL     1       6.013   3.992  13.992  0.00  0.00    +0.000 C 
ATOM      7  C   UNL     1       6.470   4.729  15.016  0.00  0.00    +0.000 C 
ENDBRANCH   1   7
BRANCH   3   8
ATOM      8  C   UNL     1       3.010   6.231  17.918  0.00  0.00    +0.000 C 
BRANCH   8   9
ATOM      9  C   UNL     1       1.990   5.105  17.775  0.00  0.00    +0.000 C 
BRANCH   9  10
ATOM     10  C   UNL     1       1.889   4.281  19.040  0.00  0.00    +0.000 A 
ATOM     11  C   UNL     1       2.208   4.847  20.281  0.00  0.00    +0.000 A 
ATOM     12  C   UNL     1       2.136   4.086  21.453  0.00  0.00    +0.000 A 
ATOM     13  C   UNL     1       1.752   2.747  21.392  0.00  0.00    +0.000 A 
ATOM     14  C   UNL     1       1.441   2.172  20.165  0.00  0.00    +0.000 A 
ATOM     15  C   UNL     1       1.509   2.932  18.993  0.00  0.00    +0.000 A 
ENDBRANCH   9  10
ENDBRANCH   8   9
ENDBRANCH   3   8
BRANCH   5  16
ATOM     16  C   UNL     1       7.676   5.138  18.289  0.00  0.00    +0.000 C 
BRANCH  16  17
ATOM     17  O   UNL     1       8.240   4.004  17.632  0.00  0.00    +0.000 OA
ATOM     18  H   UNL     1       7.522   3.650  17.069  0.00  0.00    +0.000 HD
ENDBRANCH  16  17
ENDBRANCH   5  16
TORSDOF 6
ENDMDL
MODEL 3
REMARK VINA RESULT:      -6.6      1.956      2.923
REMARK  Name = 
REMARK  6 active torsions:
REMARK  status: ('A' for Active; 'I' for Inactive)
REMARK    1  A    between atoms: C_2  and  C_3
REMARK    2  A    between atoms: C_5  and  C_6
REMARK    3  A    between atoms: C_6  and  C_7
REMARK    4  A    between atoms: C_7  and  C_8
REMARK    5  A    between atoms: CA_15  and  C_16
REMARK    6  A    between atoms: C_16  and  O_17
REMARK                            x       y       z     vdW  Elec       q    Type
REMARK                         _______ _______ _______ _____ _____    ______ ____
ROOT
ATOM      1  C   UNL     1       7.566   7.090  17.501  0.00  0.00    +0.000 C 
ATOM      2  O   UNL     1       6.449   6.879  16.631  0.00  0.00    +0.000 OA
ATOM      3  C   UNL     1       5.846   5.768  17.108  0.00  0.00    +0.000 C 
ATOM      4  N   UNL     1       6.206   5.288  18.259  0.00  0.00    +0.000 NA
ATOM      5  CA  UNL     1       7.177   6.302  18.748  0.00  0.00    +0.000 C 
ENDROOT
BRANCH   1   7
ATOM      6  C   UNL     1       8.607   9.221  18.469  0.00  0.00    +0.000 C 
ATOM      7  C   UNL     1       7.809   8.570  17.610  0.00  0.00    +0.000 C 
ENDBRANCH   1   7
BRANCH   3   8
ATOM      8  C   UNL     1       4.728   5.192  16.291  0.00  0.00    +0.000 C 
BRANCH   8   9
ATOM      9  C   UNL     1       4.521   3.692  16.477  0.00  0.00    +0.000 C 
BRANCH   9  10
ATOM     10  C   UNL     1       3.352   3.400  17.393  0.00  0.00    +0.000 A 
ATOM     11  C   UNL     1       3.187   2.124  17.945  0.00  0.00    +0.000 A 
ATOM     12  C   UNL     1       2.097   1.840  18.777  0.00  0.00    +0.000 A 
ATOM     13  C   UNL     1       1.158   2.832  19.057  0.00  0.00    +0.000 A 
ATOM     14  C   UNL     1       1.308   4.101  18.508  0.00  0.00    +0.000 A 
ATOM     15  C   UNL     1       2.397   4.387  17.679  0.00  0.00    +0.000 A 
ENDBRANCH   9  10
ENDBRANCH   8   9
ENDBRANCH   3   8
BRANCH   5  16
ATOM     16  C   UNL     1       8.364   5.603  19.407  0.00  0.00    +0.000 C 
BRANCH  16  17
ATOM     17  O   UNL     1       8.099   5.395  20.793  0.00  0.00    +0.000 OA
ATOM     18  H   UNL     1       8.877   4.909  21.133  0.00  0.00    +0.000 HD
ENDBRANCH  16  17
ENDBRANCH   5  16
TORSDOF 6
ENDMDL
MODEL 4
REMARK VINA RESULT:      -6.6      1.255      1.314
REMARK  Name = 
REMARK  6 active torsions:
REMARK  status: ('A' for Active; 'I' for Inactive)
REMARK    1  A    between atoms: C_2  and  C_3
REMARK    2  A    between atoms: C_5  and  C_6
REMARK    3  A    between atoms: C_6  and  C_7
REMARK    4  A    between atoms: C_7  and  C_8
REMARK    5  A    between atoms: CA_15  and  C_16
REMARK    6  A    between atoms: C_16  and  O_17
REMARK                            x       y       z     vdW  Elec       q    Type
REMARK                         _______ _______ _______ _____ _____    ______ ____
ROOT
ATOM      1  C   UNL     1       6.727   5.623  17.308  0.00  0.00    +0.000 C 
ATOM      2  O   UNL     1       5.622   6.212  18.001  0.00  0.00    +0.000 OA
ATOM      3  C   UNL     1       4.532   5.836  17.298  0.00  0.00    +0.000 C 
ATOM      4  N   UNL     1       4.649   4.932  16.373  0.00  0.00    +0.000 NA
ATOM      5  CA  UNL     1       6.066   4.505  16.508  0.00  0.00    +0.000 C 
ENDROOT
BRANCH   1   7
ATOM      6  C   UNL     1       7.892   5.687  19.589  0.00  0.00    +0.000 C 
ATOM      7  C   UNL     1       7.791   5.281  18.314  0.00  0.00    +0.000 C 
ENDBRANCH   1   7
BRANCH   3   8
ATOM      8  C   UNL     1       3.220   6.449  17.687  0.00  0.00    +0.000 C 
BRANCH   8   9
ATOM      9  C   UNL     1       2.917   6.392  19.181  0.00  0.00    +0.000 C 
BRANCH   9  10
ATOM     10  C   UNL     1       2.259   5.085  19.567  0.00  0.00    +0.000 A 
ATOM     11  C   UNL     1       2.262   4.657  20.901  0.00  0.00    +0.000 A 
ATOM     12  C   UNL     1       1.674   3.440  21.262  0.00  0.00    +0.000 A 
ATOM     13  C   UNL     1       1.084   2.635  20.289  0.00  0.00    +0.000 A 
ATOM     14  C   UNL     1       1.082   3.046  18.960  0.00  0.00    +0.000 A 
ATOM     15  C   UNL     1       1.667   4.263  18.597  0.00  0.00    +0.000 A 
ENDBRANCH   9  10
ENDBRANCH   8   9
ENDBRANCH   3   8
BRANCH   5  16
ATOM     16  C   UNL     1       6.682   4.317  15.124  0.00  0.00    +0.000 C 
BRANCH  16  17
ATOM     17  O   UNL     1       7.527   5.424  14.812  0.00  0.00    +0.000 OA
ATOM     18  H   UNL     1       6.960   6.215  14.911  0.00  0.00    +0.000 HD
ENDBRANCH  16  17
ENDBRANCH   5  16
TORSDOF 6
ENDMDL
MODEL 5
REMARK VINA RESULT:      -6.6      1.425      2.494
REMARK  Name = 
REMARK  6 active torsions:
REMARK  status: ('A' for Active; 'I' for Inactive)
REMARK    1  A    between atoms: C_2  and  C_3
REMARK    2  A    between atoms: C_5  and  C_6
REMARK    3  A    between atoms: C_6  and  C_7
REMARK    4  A    between atoms: C_7  and  C_8
REMARK    5  A    between atoms: CA_15  and  C_16
REMARK    6  A    between atoms: C_16  and  O_17
REMARK                            x       y       z     vdW  Elec       q    Type
REMARK                         _______ _______ _______ _____ _____    ______ ____
ROOT
ATOM      1  C   UNL     1       5.771   5.048  16.290  0.00  0.00    +0.000 C 
ATOM      2  O   UNL     1       4.484   5.670  16.350  0.00  0.00    +0.000 OA
ATOM      3  C   UNL     1       4.477   6.337  17.525  0.00  0.00    +0.000 C 
ATOM      4  N   UNL     1       5.582   6.467  18.193  0.00  0.00    +0.000 NA
ATOM      5  CA  UNL     1       6.591   5.872  17.277  0.00  0.00    +0.000 C 
ENDROOT
BRANCH   1   7
ATOM      6  C   UNL     1       6.263   3.908  14.049  0.00  0.00    +0.000 C 
ATOM      7  C   UNL     1       6.200   4.982  14.850  0.00  0.00    +0.000 C 
ENDBRANCH   1   7
BRANCH   3   8
ATOM      8  C   UNL     1       3.180   6.956  17.954  0.00  0.00    +0.000 C 
BRANCH   8   9
ATOM      9  C   UNL     1       2.765   6.621  19.383  0.00  0.00    +0.000 C 
BRANCH   9  10
ATOM     10  C   UNL     1       2.129   5.250  19.472  0.00  0.00    +0.000 A 
ATOM     11  C   UNL     1       1.827   4.533  18.307  0.00  0.00    +0.000 A 
ATOM     12  C   UNL     1       1.221   3.274  18.380  0.00  0.00    +0.000 A 
ATOM     13  C   UNL     1       0.903   2.724  19.621  0.00  0.00    +0.000 A 
ATOM     14  C   UNL     1       1.192   3.430  20.784  0.00  0.00    +0.000 A 
ATOM     15  C   UNL     1       1.800   4.688  20.714  0.00  0.00    +0.000 A 
ENDBRANCH   9  10
ENDBRANCH   8   9
ENDBRANCH   3   8
BRANCH   5  16
ATOM     16  C   UNL     1       7.582   5.032  18.079  0.00  0.00    +0.000 C 
BRANCH  16  17
ATOM     17  O   UNL     1       8.182   4.050  17.235  0.00  0.00    +0.000 OA
ATOM     18  H   UNL     1       7.485   3.380  17.085  0.00  0.00    +0.000 HD
ENDBRANCH  16  17
ENDBRANCH   5  16
TORSDOF 6
ENDMDL
MODEL 6
REMARK VINA RESULT:      -6.6      2.855      7.501
REMARK  Name = 
REMARK  6 active torsions:
REMARK  status: ('A' for Active; 'I' for Inactive)
REMARK    1  A    between atoms: C_2  and  C_3
REMARK    2  A    between atoms: C_5  and  C_6
REMARK    3  A    between atoms: C_6  and  C_7
REMARK    4  A    between atoms: C_7  and  C_8
REMARK    5  A    between atoms: CA_15  and  C_16
REMARK    6  A    between atoms: C_16  and  O_17
REMARK                            x       y       z     vdW  Elec       q    Type
REMARK                         _______ _______ _______ _____ _____    ______ ____
ROOT
ATOM      1  C   UNL     1       6.330   5.137  17.741  0.00  0.00    +0.000 C 
ATOM      2  O   UNL     1       6.816   6.145  18.632  0.00  0.00    +0.000 OA
ATOM      3  C   UNL     1       7.593   6.939  17.864  0.00  0.00    +0.000 C 
ATOM      4  N   UNL     1       7.573   6.798  16.574  0.00  0.00    +0.000 NA
ATOM      5  CA  UNL     1       6.507   5.782  16.371  0.00  0.00    +0.000 C 
ENDROOT
BRANCH   1   7
ATOM      6  C   UNL     1       4.335   5.020  19.345  0.00  0.00    +0.000 C 
ATOM      7  C   UNL     1       4.954   4.728  18.191  0.00  0.00    +0.000 C 
ENDBRANCH   1   7
BRANCH   3   8
ATOM      8  C   UNL     1       8.389   8.001  18.563  0.00  0.00    +0.000 C 
BRANCH   8   9
ATOM      9  C   UNL     1       8.257   9.392  17.949  0.00  0.00    +0.000 C 
BRANCH   9  10
ATOM     10  C   UNL     1       9.221  10.373  18.581  0.00  0.00    +0.000 A 
ATOM     11  C   UNL     1       9.298  10.492  19.975  0.00  0.00    +0.000 A 
ATOM     12  C   UNL     1      10.172  11.411  20.567  0.00  0.00    +0.000 A 
ATOM     13  C   UNL     1      10.972  12.226  19.768  0.00  0.00    +0.000 A 
ATOM     14  C   UNL     1      10.899  12.121  18.382  0.00  0.00    +0.000 A 
ATOM     15  C   UNL     1      10.029  11.202  17.789  0.00  0.00    +0.000 A 
ENDBRANCH   9  10
ENDBRANCH   8   9
ENDBRANCH   3   8
BRANCH   5  16
ATOM     16  C   UNL     1       6.939   4.789  15.294  0.00  0.00    +0.000 C 
BRANCH  16  17
ATOM     17  O   UNL     1       7.751   5.447  14.323  0.00  0.00    +0.000 OA
ATOM     18  H   UNL     1       7.130   5.984  13.791  0.00  0.00    +0.000 HD
ENDBRANCH  16  17
ENDBRANCH   5  16
TORSDOF 6
ENDMDL
MODEL 7
REMARK VINA RESULT:      -6.6      1.605      2.749
REMARK  Name = 
REMARK  6 active torsions:
REMARK  status: ('A' for Active; 'I' for Inactive)
REMARK    1  A    between atoms: C_2  and  C_3
REMARK    2  A    between atoms: C_5  and  C_6
REMARK    3  A    between atoms: C_6  and  C_7
REMARK    4  A    between atoms: C_7  and  C_8
REMARK    5  A    between atoms: CA_15  and  C_16
REMARK    6  A    between atoms: C_16  and  O_17
REMARK                            x       y       z     vdW  Elec       q    Type
REMARK                         _______ _______ _______ _____ _____    ______ ____
ROOT
ATOM      1  C   UNL     1       5.744   4.147  16.630  0.00  0.00    +0.000 C 
ATOM      2  O   UNL     1       4.461   4.773  16.737  0.00  0.00    +0.000 OA
ATOM      3  C   UNL     1       4.631   5.755  17.648  0.00  0.00    +0.000 C 
ATOM      4  N   UNL     1       5.829   6.064  18.040  0.00  0.00    +0.000 NA
ATOM      5  CA  UNL     1       6.687   5.216  17.171  0.00  0.00    +0.000 C 
ENDROOT
BRANCH   1   7
ATOM      6  C   UNL     1       5.725   4.329  14.075  0.00  0.00    +0.000 C 
ATOM      7  C   UNL     1       5.916   3.657  15.219  0.00  0.00    +0.000 C 
ENDBRANCH   1   7
BRANCH   3   8
ATOM      8  C   UNL     1       3.404   6.486  18.105  0.00  0.00    +0.000 C 
BRANCH   8   9
ATOM      9  C   UNL     1       2.102   5.715  17.910  0.00  0.00    +0.000 C 
BRANCH   9  10
ATOM     10  C   UNL     1       1.904   4.676  18.992  0.00  0.00    +0.000 A 
ATOM     11  C   UNL     1       1.403   3.407  18.673  0.00  0.00    +0.000 A 
ATOM     12  C   UNL     1       1.197   2.448  19.671  0.00  0.00    +0.000 A 
ATOM     13  C   UNL     1       1.483   2.753  21.000  0.00  0.00    +0.000 A 
ATOM     14  C   UNL     1       1.974   4.012  21.331  0.00  0.00    +0.000 A 
ATOM     15  C   UNL     1       2.183   4.971  20.335  0.00  0.00    +0.000 A 
ENDBRANCH   9  10
ENDBRANCH   8   9
ENDBRANCH   3   8
BRANCH   5  16
ATOM     16  C   UNL     1       7.839   4.638  17.990  0.00  0.00    +0.000 C 
BRANCH  16  17
ATOM     17  O   UNL     1       7.837   5.202  19.300  0.00  0.00    +0.000 OA
ATOM     18  H   UNL     1       8.738   5.049  19.647  0.00  0.00    +0.000 HD
ENDBRANCH  16  17
ENDBRANCH   5  16
TORSDOF 6
ENDMDL
MODEL 8
REMARK VINA RESULT:      -6.6      1.306      2.455
REMARK  Name = 
REMARK  6 active torsions:
REMARK  status: ('A' for Active; 'I' for Inactive)
REMARK    1  A    between atoms: C_2  and  C_3
REMARK    2  A    between atoms: C_5  and  C_6
REMARK    3  A    between atoms: C_6  and  C_7
REMARK    4  A    between atoms: C_7  and  C_8
REMARK    5  A    between atoms: CA_15  and  C_16
REMARK    6  A    between atoms: C_16  and  O_17
REMARK                            x       y       z     vdW  Elec       q    Type
REMARK                         _______ _______ _______ _____ _____    ______ ____
ROOT
ATOM      1  C   UNL     1       5.409   4.928  16.626  0.00  0.00    +0.000 C 
ATOM      2  O   UNL     1       4.019   5.044  16.943  0.00  0.00    +0.000 OA
ATOM      3  C   UNL     1       3.897   6.257  17.524  0.00  0.00    +0.000 C 
ATOM      4  N   UNL     1       4.893   7.088  17.485  0.00  0.00    +0.000 NA
ATOM      5  CA  UNL     1       5.878   6.379  16.626  0.00  0.00    +0.000 C 
ENDROOT
BRANCH   1   7
ATOM      6  C   UNL     1       6.490   4.186  14.425  0.00  0.00    +0.000 C 
ATOM      7  C   UNL     1       5.543   4.109  15.373  0.00  0.00    +0.000 C 
ENDBRANCH   1   7
BRANCH   3   8
ATOM      8  C   UNL     1       2.567   6.598  18.128  0.00  0.00    +0.000 C 
BRANCH   8   9
ATOM      9  C   UNL     1       2.499   6.424  19.642  0.00  0.00    +0.000 C 
BRANCH   9  10
ATOM     10  C   UNL     1       2.062   5.026  20.023  0.00  0.00    +0.000 A 
ATOM     11  C   UNL     1       2.385   4.502  21.281  0.00  0.00    +0.000 A 
ATOM     12  C   UNL     1       2.002   3.202  21.633  0.00  0.00    +0.000 A 
ATOM     13  C   UNL     1       1.300   2.413  20.725  0.00  0.00    +0.000 A 
ATOM     14  C   UNL     1       0.981   2.920  19.469  0.00  0.00    +0.000 A 
ATOM     15  C   UNL     1       1.360   4.219  19.116  0.00  0.00    +0.000 A 
ENDBRANCH   9  10
ENDBRANCH   8   9
ENDBRANCH   3   8
BRANCH   5  16
ATOM     16  C   UNL     1       7.283   6.553  17.200  0.00  0.00    +0.000 C 
BRANCH  16  17
ATOM     17  O   UNL     1       7.677   7.922  17.116  0.00  0.00    +0.000 OA
ATOM     18  H   UNL     1       7.022   8.410  17.654  0.00  0.00    +0.000 HD
ENDBRANCH  16  17
ENDBRANCH   5  16
TORSDOF 6
ENDMDL
MODEL 9
REMARK VINA RESULT:      -6.5      0.932      1.269
REMARK  Name = 
REMARK  6 active torsions:
REMARK  status: ('A' for Active; 'I' for Inactive)
REMARK    1  A    between atoms: C_2  and  C_3
REMARK    2  A    between atoms: C_5  and  C_6
REMARK    3  A    between atoms: C_6  and  C_7
REMARK    4  A    between atoms: C_7  and  C_8
REMARK    5  A    between atoms: CA_15  and  C_16
REMARK    6  A    between atoms: C_16  and  O_17
REMARK                            x       y       z     vdW  Elec       q    Type
REMARK                         _______ _______ _______ _____ _____    ______ ____
ROOT
ATOM      1  C   UNL     1       6.230   6.327  17.076  0.00  0.00    +0.000 C 
ATOM      2  O   UNL     1       5.053   6.798  17.739  0.00  0.00    +0.000 OA
ATOM      3  C   UNL     1       4.104   5.881  17.450  0.00  0.00    +0.000 C 
ATOM      4  N   UNL     1       4.446   4.762  16.888  0.00  0.00    +0.000 NA
ATOM      5  CA  UNL     1       5.930   4.848  16.863  0.00  0.00    +0.000 C 
ENDROOT
BRANCH   1   7
ATOM      6  C   UNL     1       7.927   6.128  18.985  0.00  0.00    +0.000 C 
ATOM      7  C   UNL     1       7.427   6.727  17.894  0.00  0.00    +0.000 C 
ENDBRANCH   1   7
BRANCH   3   8
ATOM      8  C   UNL     1       2.698   6.194  17.870  0.00  0.00    +0.000 C 
BRANCH   8   9
ATOM      9  C   UNL     1       1.742   5.007  17.801  0.00  0.00    +0.000 C 
BRANCH   9  10
ATOM     10  C   UNL     1       1.747   4.212  19.089  0.00  0.00    +0.000 A 
ATOM     11  C   UNL     1       2.106   4.824  20.297  0.00  0.00    +0.000 A 
ATOM     12  C   UNL     1       2.133   4.091  21.489  0.00  0.00    +0.000 A 
ATOM     13  C   UNL     1       1.809   2.736  21.481  0.00  0.00    +0.000 A 
ATOM     14  C   UNL     1       1.459   2.116  20.286  0.00  0.00    +0.000 A 
ATOM     15  C   UNL     1       1.429   2.846  19.095  0.00  0.00    +0.000 A 
ENDBRANCH   9  10
ENDBRANCH   8   9
ENDBRANCH   3   8
BRANCH   5  16
ATOM     16  C   UNL     1       6.454   4.317  15.531  0.00  0.00    +0.000 C 
BRANCH  16  17
ATOM     17  O   UNL     1       7.711   4.921  15.227  0.00  0.00    +0.000 OA
ATOM     18  H   UNL     1       8.384   4.283  15.540  0.00  0.00    +0.000 HD
ENDBRANCH  16  17
ENDBRANCH   5  16
TORSDOF 6
ENDMDL
