MODEL 1
REMARK VINA RESULT:      -6.8      0.000      0.000
REMARK  Name = 
REMARK  11 active torsions:
REMARK  status: ('A' for Active; 'I' for Inactive)
REMARK    1  A    between atoms: C_1  and  C_2
REMARK    2  A    between atoms: C_2  and  C_3
REMARK    3  A    between atoms: C_3  and  C_4
REMARK    4  A    between atoms: C_4  and  C_5
REMARK    5  A    between atoms: C_5  and  C_6
REMARK    6  A    between atoms: C_6  and  C_7
REMARK    7  A    between atoms: C_7  and  C_8
REMARK    8  A    between atoms: N_15  and  C_16
REMARK    9  A    between atoms: C_16  and  C_17
REMARK   10  A    between atoms: C_17  and  C_18
REMARK   11  A    between atoms: C_18  and  C_19
REMARK                            x       y       z     vdW  Elec       q    Type
REMARK                         _______ _______ _______ _____ _____    ______ ____
ROOT
ATOM      1  C   UNL     1       6.090   5.495  16.663  0.00  0.00    +0.000 A 
ATOM      2  N   UNL     1       7.235   6.010  17.082  0.00  0.00    +0.000 NA
ATOM      3  C   UNL     1       7.376   5.621  18.378  0.00  0.00    +0.000 A 
ATOM      4  C   UNL     1       6.314   4.837  18.764  0.00  0.00    +0.000 A 
ATOM      5  N   UNL     1       5.475   4.761  17.664  0.00  0.00    +0.000 N 
ATOM      6  C   UNL     1       4.232   4.116  17.626  0.00  0.00    +0.000 C 
ATOM      7  O   UNL     1       3.248   4.696  17.179  0.00  0.00    +0.000 OA
ATOM      8  N   UNL     1       4.313   2.831  18.111  0.00  0.00    +0.000 N 
ATOM      9  H   UNL     1       5.223   2.381  18.111  0.00  0.00    +0.000 HD
ENDROOT
BRANCH   1  10
ATOM     10  C   UNL     1       5.595   5.590  15.254  0.00  0.00    +0.000 C 
BRANCH  10  11
ATOM     11  C   UNL     1       6.542   4.842  14.305  0.00  0.00    +0.000 C 
BRANCH  11  12
ATOM     12  C   UNL     1       5.865   3.622  13.684  0.00  0.00    +0.000 C 
BRANCH  12  13
ATOM     13  C   UNL     1       6.331   3.399  12.247  0.00  0.00    +0.000 C 
BRANCH  13  14
ATOM     14  C   UNL     1       5.230   2.735  11.422  0.00  0.00    +0.000 C 
BRANCH  14  16
ATOM     15  C   UNL     1       3.249   3.540  10.107  0.00  0.00    +0.000 C 
ATOM     16  C   UNL     1       3.933   3.540  11.463  0.00  0.00    +0.000 C 
ENDBRANCH  14  16
ENDBRANCH  13  14
ENDBRANCH  12  13
ENDBRANCH  11  12
ENDBRANCH  10  11
ENDBRANCH   1  10
BRANCH   8  17
ATOM     17  C   UNL     1       3.139   1.981  18.186  0.00  0.00    +0.000 C 
BRANCH  17  18
ATOM     18  C   UNL     1       2.416   2.127  19.526  0.00  0.00    +0.000 C 
BRANCH  18  19
ATOM     19  C   UNL     1       1.090   2.877  19.375  0.00  0.00    +0.000 C 
ATOM     20  C   UNL     1       1.029   4.111  20.261  0.00  0.00    +0.000 C 
ENDBRANCH  18  19
ENDBRANCH  17  18
ENDBRANCH   8  17
TORSDOF 9
ENDMDL
MODEL 2
REMARK VINA RESULT:      -6.6      3.217      6.353
REMARK  Name = 
REMARK  11 active torsions:
REMARK  status: ('A' for Active; 'I' for Inactive)
REMARK    1  A    between atoms: C_1  and  C_2
REMARK    2  A    between atoms: C_2  and  C_3
REMARK    3  A    between atoms: C_3  and  C_4
REMARK    4  A    between atoms: C_4  and  C_5
REMARK    5  A    between atoms: C_5  and  C_6
REMARK    6  A    between atoms: C_6  and  C_7
REMARK    7  A    between atoms: C_7  and  C_8
REMARK    8  A    between atoms: N_15  and  C_16
REMARK    9  A    between atoms: C_16  and  C_17
REMARK   10  A    between atoms: C_17  and  C_18
REMARK   11  A    between atoms: C_18  and  C_19
REMARK                            x       y       z     vdW  Elec       q    Type
REMARK                         _______ _______ _______ _____ _____    ______ ____
ROOT
ATOM      1  C   UNL     1       6.960   5.511  16.859  0.00  0.00    +0.000 A 
ATOM      2  N   UNL     1       7.331   5.433  15.591  0.00  0.00    +0.000 NA
ATOM      3  C   UNL     1       6.375   4.700  14.959  0.00  0.00    +0.000 A 
ATOM      4  C   UNL     1       5.385   4.336  15.842  0.00  0.00    +0.000 A 
ATOM      5  N   UNL     1       5.763   4.847  17.072  0.00  0.00    +0.000 N 
ATOM      6  C   UNL     1       5.081   4.659  18.282  0.00  0.00    +0.000 C 
ATOM      7  O   UNL     1       5.687   4.293  19.283  0.00  0.00    +0.000 OA
ATOM      8  N   UNL     1       3.742   4.956  18.159  0.00  0.00    +0.000 N 
ATOM      9  H   UNL     1       3.460   5.566  17.399  0.00  0.00    +0.000 HD
ENDROOT
BRANCH   1  10
ATOM     10  C   UNL     1       7.676   6.322  17.893  0.00  0.00    +0.000 C 
BRANCH  10  11
ATOM     11  C   UNL     1       7.553   7.819  17.575  0.00  0.00    +0.000 C 
BRANCH  11  12
ATOM     12  C   UNL     1       8.487   8.656  18.446  0.00  0.00    +0.000 C 
BRANCH  12  13
ATOM     13  C   UNL     1       8.481  10.123  18.020  0.00  0.00    +0.000 C 
BRANCH  13  14
ATOM     14  C   UNL     1       9.727  10.839  18.537  0.00  0.00    +0.000 C 
BRANCH  14  16
ATOM     15  C   UNL     1      10.839  11.905  20.521  0.00  0.00    +0.000 C 
ATOM     16  C   UNL     1       9.640  11.105  20.039  0.00  0.00    +0.000 C 
ENDBRANCH  14  16
ENDBRANCH  13  14
ENDBRANCH  12  13
ENDBRANCH  11  12
ENDBRANCH  10  11
ENDBRANCH   1  10
BRANCH   8  17
ATOM     17  C   UNL     1       2.836   4.812  19.283  0.00  0.00    +0.000 C 
BRANCH  17  18
ATOM     18  C   UNL     1       1.911   3.604  19.116  0.00  0.00    +0.000 C 
BRANCH  18  19
ATOM     19  C   UNL     1       0.925   3.481  20.281  0.00  0.00    +0.000 C 
ATOM     20  C   UNL     1       1.535   2.754  21.470  0.00  0.00    +0.000 C 
ENDBRANCH  18  19
ENDBRANCH  17  18
ENDBRANCH   8  17
TORSDOF 9
ENDMDL
MODEL 3
REMARK VINA RESULT:      -6.6      1.203      1.385
REMARK  Name = 
REMARK  11 active torsions:
REMARK  status: ('A' for Active; 'I' for Inactive)
REMARK    1  A    between atoms: C_1  and  C_2
REMARK    2  A    between atoms: C_2  and  C_3
REMARK    3  A    between atoms: C_3  and  C_4
REMARK    4  A    between atoms: C_4  and  C_5
REMARK    5  A    between atoms: C_5  and  C_6
REMARK    6  A    between atoms: C_6  and  C_7
REMARK    7  A    between atoms: C_7  and  C_8
REMARK    8  A    between atoms: N_15  and  C_16
REMARK    9  A    between atoms: C_16  and  C_17
REMARK   10  A    between atoms: C_17  and  C_18
REMARK   11  A    between atoms: C_18  and  C_19
REMARK                            x       y       z     vdW  Elec       q    Type
REMARK                         _______ _______ _______ _____ _____    ______ ____
ROOT
ATOM      1  C   UNL     1       6.443   5.120  16.260  0.00  0.00    +0.000 A 
ATOM      2  N   UNL     1       7.701   4.773  16.480  0.00  0.00    +0.000 NA
ATOM      3  C   UNL     1       7.816   4.593  17.825  0.00  0.00    +0.000 A 
ATOM      4  C   UNL     1       6.608   4.812  18.445  0.00  0.00    +0.000 A 
ATOM      5  N   UNL     1       5.721   5.163  17.441  0.00  0.00    +0.000 N 
ATOM      6  C   UNL     1       4.384   5.540  17.625  0.00  0.00    +0.000 C 
ATOM      7  O   UNL     1       3.950   6.558  17.096  0.00  0.00    +0.000 OA
ATOM      8  N   UNL     1       3.706   4.635  18.410  0.00  0.00    +0.000 N 
ATOM      9  H   UNL     1       4.079   3.694  18.478  0.00  0.00    +0.000 HD
ENDROOT
BRANCH   1  10
ATOM     10  C   UNL     1       5.855   5.313  14.897  0.00  0.00    +0.000 C 
BRANCH  10  11
ATOM     11  C   UNL     1       6.798   4.749  13.825  0.00  0.00    +0.000 C 
BRANCH  11  12
ATOM     12  C   UNL     1       6.235   3.478  13.195  0.00  0.00    +0.000 C 
BRANCH  12  13
ATOM     13  C   UNL     1       4.829   3.706  12.641  0.00  0.00    +0.000 C 
BRANCH  13  14
ATOM     14  C   UNL     1       4.725   3.186  11.209  0.00  0.00    +0.000 C 
BRANCH  14  16
ATOM     15  C   UNL     1       3.031   4.168   9.638  0.00  0.00    +0.000 C 
ATOM     16  C   UNL     1       3.274   3.142  10.730  0.00  0.00    +0.000 C 
ENDBRANCH  14  16
ENDBRANCH  13  14
ENDBRANCH  12  13
ENDBRANCH  11  12
ENDBRANCH  10  11
ENDBRANCH   1  10
BRANCH   8  17
ATOM     17  C   UNL     1       2.310   4.836  18.752  0.00  0.00    +0.000 C 
BRANCH  17  18
ATOM     18  C   UNL     1       1.405   3.806  18.073  0.00  0.00    +0.000 C 
BRANCH  18  19
ATOM     19  C   UNL     1       1.023   2.672  19.027  0.00  0.00    +0.000 C 
ATOM     20  C   UNL     1       1.148   3.086  20.485  0.00  0.00    +0.000 C 
ENDBRANCH  18  19
ENDBRANCH  17  18
ENDBRANCH   8  17
TORSDOF 9
ENDMDL
MODEL 4
REMARK VINA RESULT:      -6.6      3.452      6.280
REMARK  Name = 
REMARK  11 active torsions:
REMARK  status: ('A' for Active; 'I' for Inactive)
REMARK    1  A    between atoms: C_1  and  C_2
REMARK    2  A    between atoms: C_2  and  C_3
REMARK    3  A    between atoms: C_3  and  C_4
REMARK    4  A    between atoms: C_4  and  C_5
REMARK    5  A    between atoms: C_5  and  C_6
REMARK    6  A    between atoms: C_6  and  C_7
REMARK    7  A    between atoms: C_7  and  C_8
REMARK    8  A    between atoms: N_15  and  C_16
REMARK    9  A    between atoms: C_16  and  C_17
REMARK   10  A    between atoms: C_17  and  C_18
REMARK   11  A    between atoms: C_18  and  C_19
REMARK                            x       y       z     vdW  Elec       q    Type
REMARK                         _______ _______ _______ _____ _____    ______ ____
ROOT
ATOM      1  C   UNL     1       6.805   5.854  17.041  0.00  0.00    +0.000 A 
ATOM      2  N   UNL     1       6.951   5.913  15.727  0.00  0.00    +0.000 NA
ATOM      3  C   UNL     1       5.936   5.176  15.198  0.00  0.00    +0.000 A 
ATOM      4  C   UNL     1       5.137   4.670  16.197  0.00  0.00    +0.000 A 
ATOM      5  N   UNL     1       5.699   5.096  17.389  0.00  0.00    +0.000 N 
ATOM      6  C   UNL     1       5.251   4.757  18.673  0.00  0.00    +0.000 C 
ATOM      7  O   UNL     1       6.041   4.345  19.515  0.00  0.00    +0.000 OA
ATOM      8  N   UNL     1       3.898   4.974  18.810  0.00  0.00    +0.000 N 
ATOM      9  H   UNL     1       3.456   5.628  18.172  0.00  0.00    +0.000 HD
ENDROOT
BRANCH   1  10
ATOM     10  C   UNL     1       7.650   6.617  18.012  0.00  0.00    +0.000 C 
BRANCH  10  11
ATOM     11  C   UNL     1       7.840   8.063  17.532  0.00  0.00    +0.000 C 
BRANCH  11  12
ATOM     12  C   UNL     1       8.599   8.900  18.559  0.00  0.00    +0.000 C 
BRANCH  12  13
ATOM     13  C   UNL     1       8.757  10.346  18.092  0.00  0.00    +0.000 C 
BRANCH  13  14
ATOM     14  C   UNL     1       9.826  11.063  18.915  0.00  0.00    +0.000 C 
BRANCH  14  16
ATOM     15  C   UNL     1      10.722  12.845  17.391  0.00  0.00    +0.000 C 
ATOM     16  C   UNL     1      11.003  11.504  18.046  0.00  0.00    +0.000 C 
ENDBRANCH  14  16
ENDBRANCH  13  14
ENDBRANCH  12  13
ENDBRANCH  11  12
ENDBRANCH  10  11
ENDBRANCH   1  10
BRANCH   8  17
ATOM     17  C   UNL     1       3.212   4.671  20.052  0.00  0.00    +0.000 C 
BRANCH  17  18
ATOM     18  C   UNL     1       1.692   4.751  19.896  0.00  0.00    +0.000 C 
BRANCH  18  19
ATOM     19  C   UNL     1       1.009   3.453  20.335  0.00  0.00    +0.000 C 
ATOM     20  C   UNL     1       1.627   2.884  21.602  0.00  0.00    +0.000 C 
ENDBRANCH  18  19
ENDBRANCH  17  18
ENDBRANCH   8  17
TORSDOF 9
ENDMDL
MODEL 5
REMARK VINA RESULT:      -6.5      3.117      6.205
REMARK  Name = 
REMARK  11 active torsions:
REMARK  status: ('A' for Active; 'I' for Inactive)
REMARK    1  A    between atoms: C_1  and  C_2
REMARK    2  A    between atoms: C_2  and  C_3
REMARK    3  A    between atoms: C_3  and  C_4
REMARK    4  A    between atoms: C_4  and  C_5
REMARK    5  A    between atoms: C_5  and  C_6
REMARK    6  A    between atoms: C_6  and  C_7
REMARK    7  A    between atoms: C_7  and  C_8
REMARK    8  A    between atoms: N_15  and  C_16
REMARK    9  A    between atoms: C_16  and  C_17
REMARK   10  A    between atoms: C_17  and  C_18
REMARK   11  A    between atoms: C_18  and  C_19
REMARK                            x       y       z     vdW  Elec       q    Type
REMARK                         _______ _______ _______ _____ _____    ______ ____
ROOT
ATOM      1  C   UNL     1       6.751   5.422  16.650  0.00  0.00    +0.000 A 
ATOM      2  N   UNL     1       7.496   5.549  15.564  0.00  0.00    +0.000 NA
ATOM      3  C   UNL     1       7.048   4.612  14.683  0.00  0.00    +0.000 A 
ATOM      4  C   UNL     1       5.996   3.909  15.223  0.00  0.00    +0.000 A 
ATOM      5  N   UNL     1       5.807   4.420  16.496  0.00  0.00    +0.000 N 
ATOM      6  C   UNL     1       4.879   3.953  17.437  0.00  0.00    +0.000 C 
ATOM      7  O   UNL     1       5.232   3.711  18.586  0.00  0.00    +0.000 OA
ATOM      8  N   UNL     1       3.618   3.848  16.895  0.00  0.00    +0.000 N 
ATOM      9  H   UNL     1       3.410   4.400  16.069  0.00  0.00    +0.000 HD
ENDROOT
BRANCH   1  10
ATOM     10  C   UNL     1       6.836   6.333  17.834  0.00  0.00    +0.000 C 
BRANCH  10  11
ATOM     11  C   UNL     1       7.351   7.715  17.408  0.00  0.00    +0.000 C 
BRANCH  11  12
ATOM     12  C   UNL     1       8.370   8.266  18.402  0.00  0.00    +0.000 C 
BRANCH  12  13
ATOM     13  C   UNL     1       8.575   9.768  18.215  0.00  0.00    +0.000 C 
BRANCH  13  14
ATOM     14  C   UNL     1       9.371  10.352  19.381  0.00  0.00    +0.000 C 
BRANCH  14  16
ATOM     15  C   UNL     1      11.567  11.559  19.236  0.00  0.00    +0.000 C 
ATOM     16  C   UNL     1      10.071  11.651  18.990  0.00  0.00    +0.000 C 
ENDBRANCH  14  16
ENDBRANCH  13  14
ENDBRANCH  12  13
ENDBRANCH  11  12
ENDBRANCH  10  11
ENDBRANCH   1  10
BRANCH   8  17
ATOM     17  C   UNL     1       2.501   3.362  17.683  0.00  0.00    +0.000 C 
BRANCH  17  18
ATOM     18  C   UNL     1       1.741   4.505  18.359  0.00  0.00    +0.000 C 
BRANCH  18  19
ATOM     19  C   UNL     1       1.364   4.159  19.801  0.00  0.00    +0.000 C 
ATOM     20  C   UNL     1       1.844   5.214  20.786  0.00  0.00    +0.000 C 
ENDBRANCH  18  19
ENDBRANCH  17  18
ENDBRANCH   8  17
TORSDOF 9
ENDMDL
MODEL 6
REMARK VINA RESULT:      -6.5      1.208      1.368
REMARK  Name = 
REMARK  11 active torsions:
REMARK  status: ('A' for Active; 'I' for Inactive)
REMARK    1  A    between atoms: C_1  and  C_2
REMARK    2  A    between atoms: C_2  and  C_3
REMARK    3  A    between atoms: C_3  and  C_4
REMARK    4  A    between atoms: C_4  and  C_5
REMARK    5  A    between atoms: C_5  and  C_6
REMARK    6  A    between atoms: C_6  and  C_7
REMARK    7  A    between atoms: C_7  and  C_8
REMARK    8  A    between atoms: N_15  and  C_16
REMARK    9  A    between atoms: C_16  and  C_17
REMARK   10  A    between atoms: C_17  and  C_18
REMARK   11  A    between atoms: C_18  and  C_19
REMARK                            x       y       z     vdW  Elec       q    Type
REMARK                         _______ _______ _______ _____ _____    ______ ____
ROOT
ATOM      1  C   UNL     1       5.228   5.130  16.007  0.00  0.00    +0.000 A 
ATOM      2  N   UNL     1       5.894   6.271  15.939  0.00  0.00    +0.000 NA
ATOM      3  C   UNL     1       5.759   6.864  17.157  0.00  0.00    +0.000 A 
ATOM      4  C   UNL     1       5.016   6.070  17.999  0.00  0.00    +0.000 A 
ATOM      5  N   UNL     1       4.661   4.954  17.259  0.00  0.00    +0.000 N 
ATOM      6  C   UNL     1       3.841   3.907  17.698  0.00  0.00    +0.000 C 
ATOM      7  O   UNL     1       2.904   3.522  17.006  0.00  0.00    +0.000 OA
ATOM      8  N   UNL     1       4.253   3.419  18.918  0.00  0.00    +0.000 N 
ATOM      9  H   UNL     1       5.215   3.585  19.194  0.00  0.00    +0.000 HD
ENDROOT
BRANCH   1  10
ATOM     10  C   UNL     1       5.204   4.108  14.914  0.00  0.00    +0.000 C 
BRANCH  10  11
ATOM     11  C   UNL     1       6.596   3.974  14.279  0.00  0.00    +0.000 C 
BRANCH  11  12
ATOM     12  C   UNL     1       6.520   3.982  12.755  0.00  0.00    +0.000 C 
BRANCH  12  13
ATOM     13  C   UNL     1       5.325   3.173  12.252  0.00  0.00    +0.000 C 
BRANCH  13  14
ATOM     14  C   UNL     1       4.381   4.058  11.440  0.00  0.00    +0.000 C 
BRANCH  14  16
ATOM     15  C   UNL     1       2.762   4.059   9.521  0.00  0.00    +0.000 C 
ATOM     16  C   UNL     1       3.394   3.226  10.622  0.00  0.00    +0.000 C 
ENDBRANCH  14  16
ENDBRANCH  13  14
ENDBRANCH  12  13
ENDBRANCH  11  12
ENDBRANCH  10  11
ENDBRANCH   1  10
BRANCH   8  17
ATOM     17  C   UNL     1       3.535   2.344  19.577  0.00  0.00    +0.000 C 
BRANCH  17  18
ATOM     18  C   UNL     1       3.006   2.770  20.948  0.00  0.00    +0.000 C 
BRANCH  18  19
ATOM     19  C   UNL     1       1.476   2.758  20.993  0.00  0.00    +0.000 C 
ATOM     20  C   UNL     1       0.870   3.827  20.097  0.00  0.00    +0.000 C 
ENDBRANCH  18  19
ENDBRANCH  17  18
ENDBRANCH   8  17
TORSDOF 9
ENDMDL
MODEL 7
REMARK VINA RESULT:      -6.4      3.358      6.417
REMARK  Name = 
REMARK  11 active torsions:
REMARK  status: ('A' for Active; 'I' for Inactive)
REMARK    1  A    between atoms: C_1  and  C_2
REMARK    2  A    between atoms: C_2  and  C_3
REMARK    3  A    between atoms: C_3  and  C_4
REMARK    4  A    between atoms: C_4  and  C_5
REMARK    5  A    between atoms: C_5  and  C_6
REMARK    6  A    between atoms: C_6  and  C_7
REMARK    7  A    between atoms: C_7  and  C_8
REMARK    8  A    between atoms: N_15  and  C_16
REMARK    9  A    between atoms: C_16  and  C_17
REMARK   10  A    between atoms: C_17  and  C_18
REMARK   11  A    between atoms: C_18  and  C_19
REMARK                            x       y       z     vdW  Elec       q    Type
REMARK                         _______ _______ _______ _____ _____    ______ ____
ROOT
ATOM      1  C   UNL     1       6.973   5.719  16.805  0.00  0.00    +0.000 A 
ATOM      2  N   UNL     1       7.565   5.689  15.621  0.00  0.00    +0.000 NA
ATOM      3  C   UNL     1       6.753   4.959  14.809  0.00  0.00    +0.000 A 
ATOM      4  C   UNL     1       5.632   4.547  15.492  0.00  0.00    +0.000 A 
ATOM      5  N   UNL     1       5.774   5.026  16.784  0.00  0.00    +0.000 N 
ATOM      6  C   UNL     1       4.894   4.786  17.847  0.00  0.00    +0.000 C 
ATOM      7  O   UNL     1       5.322   4.398  18.929  0.00  0.00    +0.000 OA
ATOM      8  N   UNL     1       3.591   5.061  17.498  0.00  0.00    +0.000 N 
ATOM      9  H   UNL     1       3.433   5.690  16.718  0.00  0.00    +0.000 HD
ENDROOT
BRANCH   1  10
ATOM     10  C   UNL     1       7.476   6.509  17.972  0.00  0.00    +0.000 C 
BRANCH  10  11
ATOM     11  C   UNL     1       7.745   7.962  17.556  0.00  0.00    +0.000 C 
BRANCH  11  12
ATOM     12  C   UNL     1       8.653   8.674  18.556  0.00  0.00    +0.000 C 
BRANCH  12  13
ATOM     13  C   UNL     1       8.779  10.162  18.233  0.00  0.00    +0.000 C 
BRANCH  13  14
ATOM     14  C   UNL     1       9.567  10.884  19.325  0.00  0.00    +0.000 C 
BRANCH  14  16
ATOM     15  C   UNL     1      10.820  13.007  18.850  0.00  0.00    +0.000 C 
ATOM     16  C   UNL     1      10.858  11.490  18.779  0.00  0.00    +0.000 C 
ENDBRANCH  14  16
ENDBRANCH  13  14
ENDBRANCH  12  13
ENDBRANCH  11  12
ENDBRANCH  10  11
ENDBRANCH   1  10
BRANCH   8  17
ATOM     17  C   UNL     1       2.504   4.863  18.439  0.00  0.00    +0.000 C 
BRANCH  17  18
ATOM     18  C   UNL     1       1.376   4.024  17.835  0.00  0.00    +0.000 C 
BRANCH  18  19
ATOM     19  C   UNL     1       1.134   2.742  18.635  0.00  0.00    +0.000 C 
ATOM     20  C   UNL     1       2.419   1.960  18.861  0.00  0.00    +0.000 C 
ENDBRANCH  18  19
ENDBRANCH  17  18
ENDBRANCH   8  17
TORSDOF 9
ENDMDL
MODEL 8
REMARK VINA RESULT:      -6.4      1.162      1.640
REMARK  Name = 
REMARK  11 active torsions:
REMARK  status: ('A' for Active; 'I' for Inactive)
REMARK    1  A    between atoms: C_1  and  C_2
REMARK    2  A    between atoms: C_2  and  C_3
REMARK    3  A    between atoms: C_3  and  C_4
REMARK    4  A    between atoms: C_4  and  C_5
REMARK    5  A    between atoms: C_5  and  C_6
REMARK    6  A    between atoms: C_6  and  C_7
REMARK    7  A    between atoms: C_7  and  C_8
REMARK    8  A    between atoms: N_15  and  C_16
REMARK    9  A    between atoms: C_16  and  C_17
REMARK   10  A    between atoms: C_17  and  C_18
REMARK   11  A    between atoms: C_18  and  C_19
REMARK                            x       y       z     vdW  Elec       q    Type
REMARK                         _______ _______ _______ _____ _____    ______ ____
ROOT
ATOM      1  C   UNL     1       6.370   4.507  16.936  0.00  0.00    +0.000 A 
ATOM      2  N   UNL     1       7.682   4.519  17.111  0.00  0.00    +0.000 NA
ATOM      3  C   UNL     1       7.899   5.092  18.327  0.00  0.00    +0.000 A 
ATOM      4  C   UNL     1       6.704   5.420  18.924  0.00  0.00    +0.000 A 
ATOM      5  N   UNL     1       5.714   5.055  18.027  0.00  0.00    +0.000 N 
ATOM      6  C   UNL     1       4.340   5.269  18.192  0.00  0.00    +0.000 C 
ATOM      7  O   UNL     1       3.680   5.779  17.293  0.00  0.00    +0.000 OA
ATOM      8  N   UNL     1       3.902   4.822  19.419  0.00  0.00    +0.000 N 
ATOM      9  H   UNL     1       4.464   4.124  19.896  0.00  0.00    +0.000 HD
ENDROOT
BRANCH   1  10
ATOM     10  C   UNL     1       5.687   3.866  15.769  0.00  0.00    +0.000 C 
BRANCH  10  11
ATOM     11  C   UNL     1       5.721   4.801  14.552  0.00  0.00    +0.000 C 
BRANCH  11  12
ATOM     12  C   UNL     1       6.609   4.245  13.442  0.00  0.00    +0.000 C 
BRANCH  12  13
ATOM     13  C   UNL     1       5.858   3.228  12.585  0.00  0.00    +0.000 C 
BRANCH  13  14
ATOM     14  C   UNL     1       4.514   3.795  12.131  0.00  0.00    +0.000 C 
BRANCH  14  16
ATOM     15  C   UNL     1       3.220   3.881   9.981  0.00  0.00    +0.000 C 
ATOM     16  C   UNL     1       3.916   2.979  10.986  0.00  0.00    +0.000 C 
ENDBRANCH  14  16
ENDBRANCH  13  14
ENDBRANCH  12  13
ENDBRANCH  11  12
ENDBRANCH  10  11
ENDBRANCH   1  10
BRANCH   8  17
ATOM     17  C   UNL     1       2.514   4.961  19.817  0.00  0.00    +0.000 C 
BRANCH  17  18
ATOM     18  C   UNL     1       1.759   3.633  19.722  0.00  0.00    +0.000 C 
BRANCH  18  19
ATOM     19  C   UNL     1       2.660   2.505  19.213  0.00  0.00    +0.000 C 
ATOM     20  C   UNL     1       2.343   2.127  17.775  0.00  0.00    +0.000 C 
ENDBRANCH  18  19
ENDBRANCH  17  18
ENDBRANCH   8  17
TORSDOF 9
ENDMDL
MODEL 9
REMARK VINA RESULT:      -6.3      1.744      6.516
REMARK  Name = 
REMARK  11 active torsions:
REMARK  status: ('A' for Active; 'I' for Inactive)
REMARK    1  A    between atoms: C_1  and  C_2
REMARK    2  A    between atoms: C_2  and  C_3
REMARK    3  A    between atoms: C_3  and  C_4
REMARK    4  A    between atoms: C_4  and  C_5
REMARK    5  A    between atoms: C_5  and  C_6
REMARK    6  A    between atoms: C_6  and  C_7
REMARK    7  A    between atoms: C_7  and  C_8
REMARK    8  A    between atoms: N_15  and  C_16
REMARK    9  A    between atoms: C_16  and  C_17
REMARK   10  A    between atoms: C_17  and  C_18
REMARK   11  A    between atoms: C_18  and  C_19
REMARK                            x       y       z     vdW  Elec       q    Type
REMARK                         _______ _______ _______ _____ _____    ______ ____
ROOT
ATOM      1  C   UNL     1       4.289   5.079  17.575  0.00  0.00    +0.000 A 
ATOM      2  N   UNL     1       3.467   6.002  18.047  0.00  0.00    +0.000 NA
ATOM      3  C   UNL     1       3.836   7.174  17.462  0.00  0.00    +0.000 A 
ATOM      4  C   UNL     1       4.888   6.972  16.599  0.00  0.00    +0.000 A 
ATOM      5  N   UNL     1       5.191   5.623  16.677  0.00  0.00    +0.000 N 
ATOM      6  C   UNL     1       6.246   4.982  16.014  0.00  0.00    +0.000 C 
ATOM      7  O   UNL     1       7.008   4.245  16.631  0.00  0.00    +0.000 OA
ATOM      8  N   UNL     1       6.256   5.281  14.670  0.00  0.00    +0.000 N 
ATOM      9  H   UNL     1       5.390   5.602  14.250  0.00  0.00    +0.000 HD
ENDROOT
BRANCH   1  10
ATOM     10  C   UNL     1       4.169   3.618  17.879  0.00  0.00    +0.000 C 
BRANCH  10  11
ATOM     11  C   UNL     1       2.892   3.046  17.249  0.00  0.00    +0.000 C 
BRANCH  11  12
ATOM     12  C   UNL     1       2.248   1.991  18.145  0.00  0.00    +0.000 C 
BRANCH  12  13
ATOM     13  C   UNL     1       0.907   2.472  18.697  0.00  0.00    +0.000 C 
BRANCH  13  14
ATOM     14  C   UNL     1       1.022   2.794  20.186  0.00  0.00    +0.000 C 
BRANCH  14  16
ATOM     15  C   UNL     1       2.354   4.700  21.134  0.00  0.00    +0.000 C 
ATOM     16  C   UNL     1       1.067   4.301  20.434  0.00  0.00    +0.000 C 
ENDBRANCH  14  16
ENDBRANCH  13  14
ENDBRANCH  12  13
ENDBRANCH  11  12
ENDBRANCH  10  11
ENDBRANCH   1  10
BRANCH   8  17
ATOM     17  C   UNL     1       7.276   4.743  13.789  0.00  0.00    +0.000 C 
BRANCH  17  18
ATOM     18  C   UNL     1       6.666   4.001  12.598  0.00  0.00    +0.000 C 
BRANCH  18  19
ATOM     19  C   UNL     1       5.204   3.626  12.853  0.00  0.00    +0.000 C 
ATOM     20  C   UNL     1       4.479   3.248  11.571  0.00  0.00    +0.000 C 
ENDBRANCH  18  19
ENDBRANCH  17  18
ENDBRANCH   8  17
TORSDOF 9
ENDMDL
