MODEL 1
REMARK VINA RESULT:      -4.7      0.000      0.000
REMARK  Name = 
REMARK  2 active torsions:
REMARK  status: ('A' for Active; 'I' for Inactive)
REMARK    1  A    between atoms: N_1  and  C_2
REMARK    2  A    between atoms: C_2  and  C_3
REMARK                            x       y       z     vdW  Elec       q    Type
REMARK                         _______ _______ _______ _____ _____    ______ ____
ROOT
ATOM      1  C   UNL     1       6.981   5.269  18.135  0.00  0.00    +0.000 A 
ATOM      2  C   UNL     1       7.269   4.630  16.936  0.00  0.00    +0.000 A 
ATOM      3  N   UNL     1       6.162   4.002  16.399  0.00  0.00    +0.000 NA
ATOM      4  C   UNL     1       5.227   4.262  17.270  0.00  0.00    +0.000 A 
ATOM      5  S   UNL     1       3.541   3.870  17.406  0.00  0.00    +0.000 S 
ATOM      6  C   UNL     1       3.494   4.760  18.937  0.00  0.00    +0.000 A 
ATOM      7  C   UNL     1       4.682   5.295  19.269  0.00  0.00    +0.000 A 
ATOM      8  N   UNL     1       5.649   5.012  18.328  0.00  0.00    +0.000 N 
ENDROOT
BRANCH   1   9
ATOM      9  C   UNL     1       7.821   6.069  19.045  0.00  0.00    +0.000 C 
BRANCH   9  10
ATOM     10  N   UNL     1       8.004   5.366  20.305  0.00  0.00    +0.000 NA
ATOM     11  H   UNL     1       8.806   4.743  20.227  0.00  0.00    +0.000 HD
ATOM     12  H   UNL     1       7.196   4.765  20.465  0.00  0.00    +0.000 HD
ENDBRANCH   9  10
ENDBRANCH   1   9
TORSDOF 2
ENDMDL
MODEL 2
REMARK VINA RESULT:      -4.6      1.590      2.861
REMARK  Name = 
REMARK  2 active torsions:
REMARK  status: ('A' for Active; 'I' for Inactive)
REMARK    1  A    between atoms: N_1  and  C_2
REMARK    2  A    between atoms: C_2  and  C_3
REMARK                            x       y       z     vdW  Elec       q    Type
REMARK                         _______ _______ _______ _____ _____    ______ ____
ROOT
ATOM      1  C   UNL     1       6.564   4.439  16.475  0.00  0.00    +0.000 A 
ATOM      2  C   UNL     1       7.465   4.667  17.508  0.00  0.00    +0.000 A 
ATOM      3  N   UNL     1       6.860   4.615  18.749  0.00  0.00    +0.000 NA
ATOM      4  C   UNL     1       5.616   4.362  18.458  0.00  0.00    +0.000 A 
ATOM      5  S   UNL     1       4.165   4.138  19.386  0.00  0.00    +0.000 S 
ATOM      6  C   UNL     1       3.276   3.900  17.873  0.00  0.00    +0.000 A 
ATOM      7  C   UNL     1       4.060   3.988  16.784  0.00  0.00    +0.000 A 
ATOM      8  N   UNL     1       5.372   4.246  17.121  0.00  0.00    +0.000 N 
ENDROOT
BRANCH   1   9
ATOM      9  C   UNL     1       6.746   4.379  15.012  0.00  0.00    +0.000 C 
BRANCH   9  10
ATOM     10  N   UNL     1       7.642   5.437  14.575  0.00  0.00    +0.000 NA
ATOM     11  H   UNL     1       8.437   5.024  14.092  0.00  0.00    +0.000 HD
ATOM     12  H   UNL     1       8.026   5.903  15.398  0.00  0.00    +0.000 HD
ENDBRANCH   9  10
ENDBRANCH   1   9
TORSDOF 2
ENDMDL
MODEL 3
REMARK VINA RESULT:      -4.5      2.358      4.235
REMARK  Name = 
REMARK  2 active torsions:
REMARK  status: ('A' for Active; 'I' for Inactive)
REMARK    1  A    between atoms: N_1  and  C_2
REMARK    2  A    between atoms: C_2  and  C_3
REMARK                            x       y       z     vdW  Elec       q    Type
REMARK                         _______ _______ _______ _____ _____    ______ ____
ROOT
ATOM      1  C   UNL     1       3.877   3.635  17.979  0.00  0.00    +0.000 A 
ATOM      2  C   UNL     1       4.264   3.852  19.295  0.00  0.00    +0.000 A 
ATOM      3  N   UNL     1       5.562   4.314  19.388  0.00  0.00    +0.000 NA
ATOM      4  C   UNL     1       5.944   4.368  18.144  0.00  0.00    +0.000 A 
ATOM      5  S   UNL     1       7.411   4.826  17.334  0.00  0.00    +0.000 S 
ATOM      6  C   UNL     1       6.635   4.445  15.788  0.00  0.00    +0.000 A 
ATOM      7  C   UNL     1       5.368   4.016  15.928  0.00  0.00    +0.000 A 
ATOM      8  N   UNL     1       4.988   3.977  17.253  0.00  0.00    +0.000 N 
ENDROOT
BRANCH   1   9
ATOM      9  C   UNL     1       2.604   3.172  17.395  0.00  0.00    +0.000 C 
BRANCH   9  10
ATOM     10  N   UNL     1       2.332   1.804  17.809  0.00  0.00    +0.000 NA
ATOM     11  H   UNL     1       3.091   1.478  18.405  0.00  0.00    +0.000 HD
ATOM     12  H   UNL     1       2.346   1.203  16.984  0.00  0.00    +0.000 HD
ENDBRANCH   9  10
ENDBRANCH   1   9
TORSDOF 2
ENDMDL
MODEL 4
REMARK VINA RESULT:      -4.5      2.939      4.511
REMARK  Name = 
REMARK  2 active torsions:
REMARK  status: ('A' for Active; 'I' for Inactive)
REMARK    1  A    between atoms: N_1  and  C_2
REMARK    2  A    between atoms: C_2  and  C_3
REMARK                            x       y       z     vdW  Elec       q    Type
REMARK                         _______ _______ _______ _____ _____    ______ ____
ROOT
ATOM      1  C   UNL     1       1.904   3.394  19.616  0.00  0.00    +0.000 A 
ATOM      2  C   UNL     1       1.420   2.566  18.610  0.00  0.00    +0.000 A 
ATOM      3  N   UNL     1       2.196   2.624  17.469  0.00  0.00    +0.000 NA
ATOM      4  C   UNL     1       3.127   3.477  17.791  0.00  0.00    +0.000 A 
ATOM      5  S   UNL     1       4.506   4.147  16.973  0.00  0.00    +0.000 S 
ATOM      6  C   UNL     1       4.859   5.099  18.425  0.00  0.00    +0.000 A 
ATOM      7  C   UNL     1       3.979   4.886  19.419  0.00  0.00    +0.000 A 
ATOM      8  N   UNL     1       3.011   3.974  19.056  0.00  0.00    +0.000 N 
ENDROOT
BRANCH   1   9
ATOM      9  C   UNL     1       1.429   3.646  20.990  0.00  0.00    +0.000 C 
BRANCH   9  10
ATOM     10  N   UNL     1       2.148   2.802  21.930  0.00  0.00    +0.000 NA
ATOM     11  H   UNL     1       1.745   2.915  22.858  0.00  0.00    +0.000 HD
ATOM     12  H   UNL     1       3.111   3.134  22.000  0.00  0.00    +0.000 HD
ENDBRANCH   9  10
ENDBRANCH   1   9
TORSDOF 2
ENDMDL
MODEL 5
REMARK VINA RESULT:      -4.5      2.635      3.563
REMARK  Name = 
REMARK  2 active torsions:
REMARK  status: ('A' for Active; 'I' for Inactive)
REMARK    1  A    between atoms: N_1  and  C_2
REMARK    2  A    between atoms: C_2  and  C_3
REMARK                            x       y       z     vdW  Elec       q    Type
REMARK                         _______ _______ _______ _____ _____    ______ ____
ROOT
ATOM      1  C   UNL     1       4.047   3.406  18.210  0.00  0.00    +0.000 A 
ATOM      2  C   UNL     1       3.590   2.117  17.967  0.00  0.00    +0.000 A 
ATOM      3  N   UNL     1       2.537   1.773  18.792  0.00  0.00    +0.000 NA
ATOM      4  C   UNL     1       2.372   2.842  19.518  0.00  0.00    +0.000 A 
ATOM      5  S   UNL     1       1.291   3.293  20.801  0.00  0.00    +0.000 S 
ATOM      6  C   UNL     1       2.098   4.868  20.878  0.00  0.00    +0.000 A 
ATOM      7  C   UNL     1       3.092   4.993  19.983  0.00  0.00    +0.000 A 
ATOM      8  N   UNL     1       3.240   3.852  19.223  0.00  0.00    +0.000 N 
ENDROOT
BRANCH   1   9
ATOM      9  C   UNL     1       5.117   4.202  17.578  0.00  0.00    +0.000 C 
BRANCH   9  10
ATOM     10  N   UNL     1       6.343   4.094  18.351  0.00  0.00    +0.000 NA
ATOM     11  H   UNL     1       6.557   3.110  18.506  0.00  0.00    +0.000 HD
ATOM     12  H   UNL     1       6.184   4.494  19.277  0.00  0.00    +0.000 HD
ENDBRANCH   9  10
ENDBRANCH   1   9
TORSDOF 2
ENDMDL
MODEL 6
REMARK VINA RESULT:      -4.5      2.532      3.285
REMARK  Name = 
REMARK  2 active torsions:
REMARK  status: ('A' for Active; 'I' for Inactive)
REMARK    1  A    between atoms: N_1  and  C_2
REMARK    2  A    between atoms: C_2  and  C_3
REMARK                            x       y       z     vdW  Elec       q    Type
REMARK                         _______ _______ _______ _____ _____    ______ ____
ROOT
ATOM      1  C   UNL     1       4.132   3.978  18.445  0.00  0.00    +0.000 A 
ATOM      2  C   UNL     1       3.744   3.817  17.120  0.00  0.00    +0.000 A 
ATOM      3  N   UNL     1       2.492   3.246  17.009  0.00  0.00    +0.000 NA
ATOM      4  C   UNL     1       2.140   3.066  18.250  0.00  0.00    +0.000 A 
ATOM      5  S   UNL     1       0.740   2.409  19.040  0.00  0.00    +0.000 S 
ATOM      6  C   UNL     1       1.514   2.731  20.601  0.00  0.00    +0.000 A 
ATOM      7  C   UNL     1       2.728   3.295  20.478  0.00  0.00    +0.000 A 
ATOM      8  N   UNL     1       3.072   3.481  19.156  0.00  0.00    +0.000 N 
ENDROOT
BRANCH   1   9
ATOM      9  C   UNL     1       5.351   4.549  19.046  0.00  0.00    +0.000 C 
BRANCH   9  10
ATOM     10  N   UNL     1       6.522   4.142  18.286  0.00  0.00    +0.000 NA
ATOM     11  H   UNL     1       6.735   3.168  18.495  0.00  0.00    +0.000 HD
ATOM     12  H   UNL     1       7.327   4.680  18.609  0.00  0.00    +0.000 HD
ENDBRANCH   9  10
ENDBRANCH   1   9
TORSDOF 2
ENDMDL
MODEL 7
REMARK VINA RESULT:      -4.4      2.866      4.364
REMARK  Name = 
REMARK  2 active torsions:
REMARK  status: ('A' for Active; 'I' for Inactive)
REMARK    1  A    between atoms: N_1  and  C_2
REMARK    2  A    between atoms: C_2  and  C_3
REMARK                            x       y       z     vdW  Elec       q    Type
REMARK                         _______ _______ _______ _____ _____    ______ ____
ROOT
ATOM      1  C   UNL     1       2.899   3.034  20.057  0.00  0.00    +0.000 A 
ATOM      2  C   UNL     1       4.167   2.468  20.095  0.00  0.00    +0.000 A 
ATOM      3  N   UNL     1       5.105   3.246  19.445  0.00  0.00    +0.000 NA
ATOM      4  C   UNL     1       4.403   4.259  19.022  0.00  0.00    +0.000 A 
ATOM      5  S   UNL     1       4.758   5.699  18.118  0.00  0.00    +0.000 S 
ATOM      6  C   UNL     1       3.048   6.148  18.230  0.00  0.00    +0.000 A 
ATOM      7  C   UNL     1       2.314   5.251  18.911  0.00  0.00    +0.000 A 
ATOM      8  N   UNL     1       3.082   4.195  19.353  0.00  0.00    +0.000 N 
ENDROOT
BRANCH   1   9
ATOM      9  C   UNL     1       1.610   2.588  20.620  0.00  0.00    +0.000 C 
BRANCH   9  10
ATOM     10  N   UNL     1       1.673   2.585  22.072  0.00  0.00    +0.000 NA
ATOM     11  H   UNL     1       2.481   2.042  22.371  0.00  0.00    +0.000 HD
ATOM     12  H   UNL     1       0.855   2.093  22.435  0.00  0.00    +0.000 HD
ENDBRANCH   9  10
ENDBRANCH   1   9
TORSDOF 2
ENDMDL
MODEL 8
REMARK VINA RESULT:      -4.4      2.887      4.534
REMARK  Name = 
REMARK  2 active torsions:
REMARK  status: ('A' for Active; 'I' for Inactive)
REMARK    1  A    between atoms: N_1  and  C_2
REMARK    2  A    between atoms: C_2  and  C_3
REMARK                            x       y       z     vdW  Elec       q    Type
REMARK                         _______ _______ _______ _____ _____    ______ ____
ROOT
ATOM      1  C   UNL     1       2.670   2.983  19.159  0.00  0.00    +0.000 A 
ATOM      2  C   UNL     1       3.711   2.303  19.778  0.00  0.00    +0.000 A 
ATOM      3  N   UNL     1       4.913   2.974  19.664  0.00  0.00    +0.000 NA
ATOM      4  C   UNL     1       4.591   4.037  18.983  0.00  0.00    +0.000 A 
ATOM      5  S   UNL     1       5.463   5.415  18.385  0.00  0.00    +0.000 S 
ATOM      6  C   UNL     1       3.953   6.023  17.687  0.00  0.00    +0.000 A 
ATOM      7  C   UNL     1       2.904   5.216  17.922  0.00  0.00    +0.000 A 
ATOM      8  N   UNL     1       3.270   4.104  18.650  0.00  0.00    +0.000 N 
ENDROOT
BRANCH   1   9
ATOM      9  C   UNL     1       1.233   2.672  19.037  0.00  0.00    +0.000 C 
BRANCH   9  10
ATOM     10  N   UNL     1       0.517   3.148  20.210  0.00  0.00    +0.000 NA
ATOM     11  H   UNL     1       1.167   3.229  20.989  0.00  0.00    +0.000 HD
ATOM     12  H   UNL     1      -0.166   2.442  20.486  0.00  0.00    +0.000 HD
ENDBRANCH   9  10
ENDBRANCH   1   9
TORSDOF 2
ENDMDL
MODEL 9
REMARK VINA RESULT:      -4.4      2.476      3.674
REMARK  Name = 
REMARK  2 active torsions:
REMARK  status: ('A' for Active; 'I' for Inactive)
REMARK    1  A    between atoms: N_1  and  C_2
REMARK    2  A    between atoms: C_2  and  C_3
REMARK                            x       y       z     vdW  Elec       q    Type
REMARK                         _______ _______ _______ _____ _____    ______ ____
ROOT
ATOM      1  C   UNL     1       3.522   5.440  19.096  0.00  0.00    +0.000 A 
ATOM      2  C   UNL     1       4.867   5.175  19.325  0.00  0.00    +0.000 A 
ATOM      3  N   UNL     1       5.168   3.836  19.173  0.00  0.00    +0.000 NA
ATOM      4  C   UNL     1       4.018   3.311  18.861  0.00  0.00    +0.000 A 
ATOM      5  S   UNL     1       3.466   1.703  18.501  0.00  0.00    +0.000 S 
ATOM      6  C   UNL     1       1.831   2.351  18.287  0.00  0.00    +0.000 A 
ATOM      7  C   UNL     1       1.764   3.680  18.478  0.00  0.00    +0.000 A 
ATOM      8  N   UNL     1       2.996   4.211  18.798  0.00  0.00    +0.000 N 
ENDROOT
BRANCH   1   9
ATOM      9  C   UNL     1       2.753   6.699  19.121  0.00  0.00    +0.000 C 
BRANCH   9  10
ATOM     10  N   UNL     1       2.209   6.925  20.450  0.00  0.00    +0.000 NA
ATOM     11  H   UNL     1       1.409   6.313  20.593  0.00  0.00    +0.000 HD
ATOM     12  H   UNL     1       1.845   7.878  20.498  0.00  0.00    +0.000 HD
ENDBRANCH   9  10
ENDBRANCH   1   9
TORSDOF 2
ENDMDL
