MODEL 1
REMARK VINA RESULT:      -7.4      0.000      0.000
REMARK  Name = 
REMARK  2 active torsions:
REMARK  status: ('A' for Active; 'I' for Inactive)
REMARK    1  A    between atoms: N_3  and  C_4
REMARK    2  A    between atoms: C_6  and  C_7
REMARK                            x       y       z     vdW  Elec       q    Type
REMARK                         _______ _______ _______ _____ _____    ______ ____
ROOT
ATOM      1  O   UNL     1       2.261   8.918  17.463  0.00  0.00    +0.000 OA
ATOM      2  C   UNL     1       1.777   8.636  18.554  0.00  0.00    +0.000 C 
ATOM      3  N   UNL     1       2.097   7.473  19.217  0.00  0.00    +0.000 N 
ATOM      4  N   UNL     1       0.893   9.480  19.207  0.00  0.00    +0.000 N 
ATOM      5  C   UNL     1       0.459  10.699  18.506  0.00  0.00    +0.000 C 
ATOM      6  C   UNL     1       0.985  11.958  19.168  0.00  0.00    +0.000 C 
ATOM      7  S   UNL     1       0.438  12.014  20.851  0.00  0.00    +0.000 S 
ATOM      8  O   UNL     1       1.186  13.049  21.542  0.00  0.00    +0.000 OA
ATOM      9  O   UNL     1      -1.015  12.020  20.874  0.00  0.00    +0.000 OA
ATOM     10  C   UNL     1       0.995  10.445  21.465  0.00  0.00    +0.000 C 
ATOM     11  C   UNL     1       0.442   9.338  20.595  0.00  0.00    +0.000 C 
ATOM     12  H   UNL     1       1.349   7.089  19.775  0.00  0.00    +0.000 HD
ENDROOT
BRANCH   3  13
ATOM     13  C   UNL     1       2.993   6.501  18.564  0.00  0.00    +0.000 C 
ATOM     14  C   UNL     1       3.731   5.551  19.539  0.00  0.00    +0.000 C 
ATOM     15  C   UNL     1       3.663   4.486  18.398  0.00  0.00    +0.000 C 
ATOM     16  C   UNL     1       2.339   5.222  17.988  0.00  0.00    +0.000 C 
BRANCH  15  17
ATOM     17  C   UNL     1       4.920   4.468  17.398  0.00  0.00    +0.000 A 
ATOM     18  C   UNL     1       6.234   4.597  17.896  0.00  0.00    +0.000 A 
ATOM     19  C   UNL     1       7.351   4.637  17.056  0.00  0.00    +0.000 A 
ATOM     20  C   UNL     1       7.187   4.536  15.681  0.00  0.00    +0.000 A 
ATOM     21  C   UNL     1       5.909   4.397  15.151  0.00  0.00    +0.000 A 
ATOM     22  C   UNL     1       4.798   4.362  15.999  0.00  0.00    +0.000 A 
ENDBRANCH  15  17
ENDBRANCH   3  13
TORSDOF 2
ENDMDL
MODEL 2
REMARK VINA RESULT:      -7.4      0.084      1.048
REMARK  Name = 
REMARK  2 active torsions:
REMARK  status: ('A' for Active; 'I' for Inactive)
REMARK    1  A    between atoms: N_3  and  C_4
REMARK    2  A    between atoms: C_6  and  C_7
REMARK                            x       y       z     vdW  Elec       q    Type
REMARK                         _______ _______ _______ _____ _____    ______ ____
ROOT
ATOM      1  O   UNL     1       2.232   8.953  17.503  0.00  0.00    +0.000 OA
ATOM      2  C   UNL     1       1.750   8.672  18.596  0.00  0.00    +0.000 C 
ATOM      3  N   UNL     1       2.081   7.516  19.265  0.00  0.00    +0.000 N 
ATOM      4  N   UNL     1       0.857   9.510  19.244  0.00  0.00    +0.000 N 
ATOM      5  C   UNL     1       0.412  10.721  18.537  0.00  0.00    +0.000 C 
ATOM      6  C   UNL     1       0.924  11.988  19.193  0.00  0.00    +0.000 C 
ATOM      7  S   UNL     1       0.376  12.048  20.875  0.00  0.00    +0.000 S 
ATOM      8  O   UNL     1       1.114  13.093  21.560  0.00  0.00    +0.000 OA
ATOM      9  O   UNL     1      -1.077  12.040  20.897  0.00  0.00    +0.000 OA
ATOM     10  C   UNL     1       0.949  10.488  21.498  0.00  0.00    +0.000 C 
ATOM     11  C   UNL     1       0.408   9.371  20.633  0.00  0.00    +0.000 C 
ATOM     12  H   UNL     1       1.337   7.127  19.825  0.00  0.00    +0.000 HD
ENDROOT
BRANCH   3  13
ATOM     13  C   UNL     1       2.987   6.549  18.617  0.00  0.00    +0.000 C 
ATOM     14  C   UNL     1       3.668   5.554  19.590  0.00  0.00    +0.000 C 
ATOM     15  C   UNL     1       3.630   4.529  18.412  0.00  0.00    +0.000 C 
ATOM     16  C   UNL     1       2.337   5.302  17.973  0.00  0.00    +0.000 C 
BRANCH  15  17
ATOM     17  C   UNL     1       4.927   4.520  17.464  0.00  0.00    +0.000 A 
ATOM     18  C   UNL     1       4.799   4.312  16.075  0.00  0.00    +0.000 A 
ATOM     19  C   UNL     1       5.906   4.247  15.223  0.00  0.00    +0.000 A 
ATOM     20  C   UNL     1       7.186   4.402  15.739  0.00  0.00    +0.000 A 
ATOM     21  C   UNL     1       7.354   4.621  17.102  0.00  0.00    +0.000 A 
ATOM     22  C   UNL     1       6.240   4.680  17.946  0.00  0.00    +0.000 A 
ENDBRANCH  15  17
ENDBRANCH   3  13
TORSDOF 2
ENDMDL
MODEL 3
REMARK VINA RESULT:      -6.9      3.514      8.458
REMARK  Name = 
REMARK  2 active torsions:
REMARK  status: ('A' for Active; 'I' for Inactive)
REMARK    1  A    between atoms: N_3  and  C_4
REMARK    2  A    between atoms: C_6  and  C_7
REMARK                            x       y       z     vdW  Elec       q    Type
REMARK                         _______ _______ _______ _____ _____    ______ ____
ROOT
ATOM      1  O   UNL     1       2.381   7.984  18.972  0.00  0.00    +0.000 OA
ATOM      2  C   UNL     1       2.282   7.099  19.816  0.00  0.00    +0.000 C 
ATOM      3  N   UNL     1       1.530   7.260  20.958  0.00  0.00    +0.000 N 
ATOM      4  N   UNL     1       2.900   5.869  19.668  0.00  0.00    +0.000 N 
ATOM      5  C   UNL     1       3.778   5.674  18.503  0.00  0.00    +0.000 C 
ATOM      6  C   UNL     1       3.209   4.671  17.519  0.00  0.00    +0.000 C 
ATOM      7  S   UNL     1       2.953   3.120  18.335  0.00  0.00    +0.000 S 
ATOM      8  O   UNL     1       2.141   2.279  17.474  0.00  0.00    +0.000 OA
ATOM      9  O   UNL     1       4.227   2.639  18.841  0.00  0.00    +0.000 OA
ATOM     10  C   UNL     1       1.951   3.601  19.719  0.00  0.00    +0.000 C 
ATOM     11  C   UNL     1       2.659   4.685  20.500  0.00  0.00    +0.000 C 
ATOM     12  H   UNL     1       1.885   6.771  21.766  0.00  0.00    +0.000 HD
ENDROOT
BRANCH   3  13
ATOM     13  C   UNL     1       0.882   8.560  21.211  0.00  0.00    +0.000 C 
ATOM     14  C   UNL     1      -0.548   8.463  21.796  0.00  0.00    +0.000 C 
ATOM     15  C   UNL     1      -0.229   9.800  22.539  0.00  0.00    +0.000 C 
ATOM     16  C   UNL     1       1.252   9.284  22.527  0.00  0.00    +0.000 C 
BRANCH  15  17
ATOM     17  C   UNL     1      -0.624  11.140  21.745  0.00  0.00    +0.000 A 
ATOM     18  C   UNL     1      -0.735  12.371  22.427  0.00  0.00    +0.000 A 
ATOM     19  C   UNL     1      -1.126  13.549  21.782  0.00  0.00    +0.000 A 
ATOM     20  C   UNL     1      -1.407  13.534  20.423  0.00  0.00    +0.000 A 
ATOM     21  C   UNL     1      -1.298  12.343  19.713  0.00  0.00    +0.000 A 
ATOM     22  C   UNL     1      -0.911  11.169  20.367  0.00  0.00    +0.000 A 
ENDBRANCH  15  17
ENDBRANCH   3  13
TORSDOF 2
ENDMDL
MODEL 4
REMARK VINA RESULT:      -6.9      3.541      8.308
REMARK  Name = 
REMARK  2 active torsions:
REMARK  status: ('A' for Active; 'I' for Inactive)
REMARK    1  A    between atoms: N_3  and  C_4
REMARK    2  A    between atoms: C_6  and  C_7
REMARK                            x       y       z     vdW  Elec       q    Type
REMARK                         _______ _______ _______ _____ _____    ______ ____
ROOT
ATOM      1  O   UNL     1       2.251   6.211  19.033  0.00  0.00    +0.000 OA
ATOM      2  C   UNL     1       2.951   6.753  18.183  0.00  0.00    +0.000 C 
ATOM      3  N   UNL     1       2.863   8.100  17.915  0.00  0.00    +0.000 N 
ATOM      4  N   UNL     1       3.896   6.052  17.452  0.00  0.00    +0.000 N 
ATOM      5  C   UNL     1       3.977   4.596  17.647  0.00  0.00    +0.000 C 
ATOM      6  C   UNL     1       5.272   4.178  18.314  0.00  0.00    +0.000 C 
ATOM      7  S   UNL     1       6.644   4.723  17.336  0.00  0.00    +0.000 S 
ATOM      8  O   UNL     1       7.854   4.584  18.126  0.00  0.00    +0.000 OA
ATOM      9  O   UNL     1       6.554   4.115  16.019  0.00  0.00    +0.000 OA
ATOM     10  C   UNL     1       6.304   6.457  17.171  0.00  0.00    +0.000 C 
ATOM     11  C   UNL     1       4.921   6.646  16.588  0.00  0.00    +0.000 C 
ATOM     12  H   UNL     1       3.046   8.349  16.954  0.00  0.00    +0.000 HD
ENDROOT
BRANCH   3  13
ATOM     13  C   UNL     1       1.845   8.904  18.617  0.00  0.00    +0.000 C 
ATOM     14  C   UNL     1       2.006  10.435  18.448  0.00  0.00    +0.000 C 
ATOM     15  C   UNL     1       0.449  10.512  18.554  0.00  0.00    +0.000 C 
ATOM     16  C   UNL     1       0.481   9.081  17.911  0.00  0.00    +0.000 C 
BRANCH  15  17
ATOM     17  C   UNL     1      -0.129  10.718  20.039  0.00  0.00    +0.000 A 
ATOM     18  C   UNL     1      -0.853  11.883  20.370  0.00  0.00    +0.000 A 
ATOM     19  C   UNL     1      -1.329  12.124  21.663  0.00  0.00    +0.000 A 
ATOM     20  C   UNL     1      -1.104  11.193  22.669  0.00  0.00    +0.000 A 
ATOM     21  C   UNL     1      -0.405  10.026  22.379  0.00  0.00    +0.000 A 
ATOM     22  C   UNL     1       0.071   9.796  21.084  0.00  0.00    +0.000 A 
ENDBRANCH  15  17
ENDBRANCH   3  13
TORSDOF 2
ENDMDL
MODEL 5
REMARK VINA RESULT:      -6.8      3.684      8.268
REMARK  Name = 
REMARK  2 active torsions:
REMARK  status: ('A' for Active; 'I' for Inactive)
REMARK    1  A    between atoms: N_3  and  C_4
REMARK    2  A    between atoms: C_6  and  C_7
REMARK                            x       y       z     vdW  Elec       q    Type
REMARK                         _______ _______ _______ _____ _____    ______ ____
ROOT
ATOM      1  O   UNL     1       2.537   5.948  18.697  0.00  0.00    +0.000 OA
ATOM      2  C   UNL     1       3.205   6.559  17.869  0.00  0.00    +0.000 C 
ATOM      3  N   UNL     1       3.110   7.924  17.717  0.00  0.00    +0.000 N 
ATOM      4  N   UNL     1       4.119   5.922  17.046  0.00  0.00    +0.000 N 
ATOM      5  C   UNL     1       4.203   4.454  17.116  0.00  0.00    +0.000 C 
ATOM      6  C   UNL     1       5.523   3.983  17.696  0.00  0.00    +0.000 C 
ATOM      7  S   UNL     1       6.857   4.608  16.714  0.00  0.00    +0.000 S 
ATOM      8  O   UNL     1       8.096   4.405  17.443  0.00  0.00    +0.000 OA
ATOM      9  O   UNL     1       6.715   4.112  15.356  0.00  0.00    +0.000 OA
ATOM     10  C   UNL     1       6.516   6.350  16.707  0.00  0.00    +0.000 C 
ATOM     11  C   UNL     1       5.112   6.586  16.196  0.00  0.00    +0.000 C 
ATOM     12  H   UNL     1       3.257   8.252  16.774  0.00  0.00    +0.000 HD
ENDROOT
BRANCH   3  13
ATOM     13  C   UNL     1       2.122   8.666  18.523  0.00  0.00    +0.000 C 
ATOM     14  C   UNL     1       2.197  10.205  18.371  0.00  0.00    +0.000 C 
ATOM     15  C   UNL     1       0.653  10.205  18.615  0.00  0.00    +0.000 C 
ATOM     16  C   UNL     1       0.694   8.789  17.942  0.00  0.00    +0.000 C 
BRANCH  15  17
ATOM     17  C   UNL     1       0.199  10.358  20.149  0.00  0.00    +0.000 A 
ATOM     18  C   UNL     1       0.048   9.219  20.968  0.00  0.00    +0.000 A 
ATOM     19  C   UNL     1      -0.394   9.305  22.292  0.00  0.00    +0.000 A 
ATOM     20  C   UNL     1      -0.688  10.545  22.845  0.00  0.00    +0.000 A 
ATOM     21  C   UNL     1      -0.541  11.692  22.074  0.00  0.00    +0.000 A 
ATOM     22  C   UNL     1      -0.102  11.595  20.749  0.00  0.00    +0.000 A 
ENDBRANCH  15  17
ENDBRANCH   3  13
TORSDOF 2
ENDMDL
MODEL 6
REMARK VINA RESULT:      -6.8      3.533      8.440
REMARK  Name = 
REMARK  2 active torsions:
REMARK  status: ('A' for Active; 'I' for Inactive)
REMARK    1  A    between atoms: N_3  and  C_4
REMARK    2  A    between atoms: C_6  and  C_7
REMARK                            x       y       z     vdW  Elec       q    Type
REMARK                         _______ _______ _______ _____ _____    ______ ____
ROOT
ATOM      1  O   UNL     1       2.432   7.890  18.928  0.00  0.00    +0.000 OA
ATOM      2  C   UNL     1       2.308   7.023  19.787  0.00  0.00    +0.000 C 
ATOM      3  N   UNL     1       1.544   7.215  20.915  0.00  0.00    +0.000 N 
ATOM      4  N   UNL     1       2.909   5.780  19.669  0.00  0.00    +0.000 N 
ATOM      5  C   UNL     1       3.799   5.550  18.519  0.00  0.00    +0.000 C 
ATOM      6  C   UNL     1       3.227   4.538  17.546  0.00  0.00    +0.000 C 
ATOM      7  S   UNL     1       2.936   3.007  18.386  0.00  0.00    +0.000 S 
ATOM      8  O   UNL     1       2.123   2.163  17.531  0.00  0.00    +0.000 OA
ATOM      9  O   UNL     1       4.197   2.516  18.919  0.00  0.00    +0.000 OA
ATOM     10  C   UNL     1       1.925   3.529  19.748  0.00  0.00    +0.000 C 
ATOM     11  C   UNL     1       2.639   4.616  20.519  0.00  0.00    +0.000 C 
ATOM     12  H   UNL     1       1.881   6.736  21.736  0.00  0.00    +0.000 HD
ENDROOT
BRANCH   3  13
ATOM     13  C   UNL     1       0.913   8.530  21.135  0.00  0.00    +0.000 C 
ATOM     14  C   UNL     1      -0.523   8.466  21.710  0.00  0.00    +0.000 C 
ATOM     15  C   UNL     1      -0.190   9.813  22.429  0.00  0.00    +0.000 C 
ATOM     16  C   UNL     1       1.283   9.275  22.440  0.00  0.00    +0.000 C 
BRANCH  15  17
ATOM     17  C   UNL     1      -0.559  11.142  21.604  0.00  0.00    +0.000 A 
ATOM     18  C   UNL     1      -0.962  11.058  20.254  0.00  0.00    +0.000 A 
ATOM     19  C   UNL     1      -1.243  12.193  19.486  0.00  0.00    +0.000 A 
ATOM     20  C   UNL     1      -1.140  13.456  20.055  0.00  0.00    +0.000 A 
ATOM     21  C   UNL     1      -0.757  13.580  21.386  0.00  0.00    +0.000 A 
ATOM     22  C   UNL     1      -0.475  12.439  22.144  0.00  0.00    +0.000 A 
ENDBRANCH  15  17
ENDBRANCH   3  13
TORSDOF 2
ENDMDL
MODEL 7
REMARK VINA RESULT:      -6.6      3.657      8.117
REMARK  Name = 
REMARK  2 active torsions:
REMARK  status: ('A' for Active; 'I' for Inactive)
REMARK    1  A    between atoms: N_3  and  C_4
REMARK    2  A    between atoms: C_6  and  C_7
REMARK                            x       y       z     vdW  Elec       q    Type
REMARK                         _______ _______ _______ _____ _____    ______ ____
ROOT
ATOM      1  O   UNL     1       2.275   6.520  18.771  0.00  0.00    +0.000 OA
ATOM      2  C   UNL     1       3.118   6.967  17.999  0.00  0.00    +0.000 C 
ATOM      3  N   UNL     1       3.021   8.232  17.465  0.00  0.00    +0.000 N 
ATOM      4  N   UNL     1       4.237   6.239  17.629  0.00  0.00    +0.000 N 
ATOM      5  C   UNL     1       4.348   4.853  18.112  0.00  0.00    +0.000 C 
ATOM      6  C   UNL     1       5.482   4.681  19.103  0.00  0.00    +0.000 C 
ATOM      7  S   UNL     1       7.008   5.171  18.348  0.00  0.00    +0.000 S 
ATOM      8  O   UNL     1       8.016   5.286  19.386  0.00  0.00    +0.000 OA
ATOM      9  O   UNL     1       7.245   4.335  17.183  0.00  0.00    +0.000 OA
ATOM     10  C   UNL     1       6.623   6.810  17.787  0.00  0.00    +0.000 C 
ATOM     11  C   UNL     1       5.397   6.764  16.902  0.00  0.00    +0.000 C 
ATOM     12  H   UNL     1       3.401   8.324  16.534  0.00  0.00    +0.000 HD
ENDROOT
BRANCH   3  13
ATOM     13  C   UNL     1       1.832   9.049  17.771  0.00  0.00    +0.000 C 
ATOM     14  C   UNL     1       1.424   9.055  19.265  0.00  0.00    +0.000 C 
ATOM     15  C   UNL     1       0.915  10.511  19.018  0.00  0.00    +0.000 C 
ATOM     16  C   UNL     1       2.052  10.571  17.939  0.00  0.00    +0.000 C 
BRANCH  15  17
ATOM     17  C   UNL     1      -0.625  10.636  18.577  0.00  0.00    +0.000 A 
ATOM     18  C   UNL     1      -1.471  11.587  19.187  0.00  0.00    +0.000 A 
ATOM     19  C   UNL     1      -2.828  11.692  18.868  0.00  0.00    +0.000 A 
ATOM     20  C   UNL     1      -3.383  10.851  17.912  0.00  0.00    +0.000 A 
ATOM     21  C   UNL     1      -2.580   9.909  17.280  0.00  0.00    +0.000 A 
ATOM     22  C   UNL     1      -1.224   9.807  17.609  0.00  0.00    +0.000 A 
ENDBRANCH  15  17
ENDBRANCH   3  13
TORSDOF 2
ENDMDL
MODEL 8
REMARK VINA RESULT:      -6.6      3.637      8.392
REMARK  Name = 
REMARK  2 active torsions:
REMARK  status: ('A' for Active; 'I' for Inactive)
REMARK    1  A    between atoms: N_3  and  C_4
REMARK    2  A    between atoms: C_6  and  C_7
REMARK                            x       y       z     vdW  Elec       q    Type
REMARK                         _______ _______ _______ _____ _____    ______ ____
ROOT
ATOM      1  O   UNL     1       2.029   8.099  19.066  0.00  0.00    +0.000 OA
ATOM      2  C   UNL     1       1.960   7.314  20.006  0.00  0.00    +0.000 C 
ATOM      3  N   UNL     1       1.442   7.681  21.227  0.00  0.00    +0.000 N 
ATOM      4  N   UNL     1       2.377   5.998  19.898  0.00  0.00    +0.000 N 
ATOM      5  C   UNL     1       3.009   5.576  18.638  0.00  0.00    +0.000 C 
ATOM      6  C   UNL     1       2.154   4.587  17.871  0.00  0.00    +0.000 C 
ATOM      7  S   UNL     1       1.840   3.167  18.881  0.00  0.00    +0.000 S 
ATOM      8  O   UNL     1       0.790   2.383  18.257  0.00  0.00    +0.000 OA
ATOM      9  O   UNL     1       3.109   2.549  19.230  0.00  0.00    +0.000 OA
ATOM     10  C   UNL     1       1.162   3.907  20.345  0.00  0.00    +0.000 C 
ATOM     11  C   UNL     1       2.130   4.939  20.882  0.00  0.00    +0.000 C 
ATOM     12  H   UNL     1       1.863   7.217  22.018  0.00  0.00    +0.000 HD
ENDROOT
BRANCH   3  13
ATOM     13  C   UNL     1       1.024   9.080  21.436  0.00  0.00    +0.000 C 
ATOM     14  C   UNL     1      -0.342   9.443  20.802  0.00  0.00    +0.000 C 
ATOM     15  C   UNL     1      -0.515  10.445  21.989  0.00  0.00    +0.000 C 
ATOM     16  C   UNL     1       0.360   9.419  22.791  0.00  0.00    +0.000 C 
BRANCH  15  17
ATOM     17  C   UNL     1       0.028  11.932  21.719  0.00  0.00    +0.000 A 
ATOM     18  C   UNL     1      -0.527  13.034  22.405  0.00  0.00    +0.000 A 
ATOM     19  C   UNL     1      -0.118  14.349  22.162  0.00  0.00    +0.000 A 
ATOM     20  C   UNL     1       0.876  14.603  21.226  0.00  0.00    +0.000 A 
ATOM     21  C   UNL     1       1.457  13.543  20.538  0.00  0.00    +0.000 A 
ATOM     22  C   UNL     1       1.037  12.232  20.785  0.00  0.00    +0.000 A 
ENDBRANCH  15  17
ENDBRANCH   3  13
TORSDOF 2
ENDMDL
MODEL 9
REMARK VINA RESULT:      -6.5      3.671      8.149
REMARK  Name = 
REMARK  2 active torsions:
REMARK  status: ('A' for Active; 'I' for Inactive)
REMARK    1  A    between atoms: N_3  and  C_4
REMARK    2  A    between atoms: C_6  and  C_7
REMARK                            x       y       z     vdW  Elec       q    Type
REMARK                         _______ _______ _______ _____ _____    ______ ____
ROOT
ATOM      1  O   UNL     1       2.260   6.412  18.552  0.00  0.00    +0.000 OA
ATOM      2  C   UNL     1       3.137   6.924  17.863  0.00  0.00    +0.000 C 
ATOM      3  N   UNL     1       3.070   8.235  17.451  0.00  0.00    +0.000 N 
ATOM      4  N   UNL     1       4.267   6.224  17.471  0.00  0.00    +0.000 N 
ATOM      5  C   UNL     1       4.350   4.797  17.821  0.00  0.00    +0.000 C 
ATOM      6  C   UNL     1       5.440   4.519  18.837  0.00  0.00    +0.000 C 
ATOM      7  S   UNL     1       6.999   5.065  18.198  0.00  0.00    +0.000 S 
ATOM      8  O   UNL     1       7.963   5.070  19.283  0.00  0.00    +0.000 OA
ATOM      9  O   UNL     1       7.281   4.345  16.967  0.00  0.00    +0.000 OA
ATOM     10  C   UNL     1       6.647   6.755  17.783  0.00  0.00    +0.000 C 
ATOM     11  C   UNL     1       5.459   6.807  16.848  0.00  0.00    +0.000 C 
ATOM     12  H   UNL     1       3.489   8.414  16.551  0.00  0.00    +0.000 HD
ENDROOT
BRANCH   3  13
ATOM     13  C   UNL     1       1.873   9.030  17.786  0.00  0.00    +0.000 C 
ATOM     14  C   UNL     1       1.482   9.002  19.284  0.00  0.00    +0.000 C 
ATOM     15  C   UNL     1       0.950  10.456  19.071  0.00  0.00    +0.000 C 
ATOM     16  C   UNL     1       2.074  10.551  17.981  0.00  0.00    +0.000 C 
BRANCH  15  17
ATOM     17  C   UNL     1      -0.597  10.567  18.649  0.00  0.00    +0.000 A 
ATOM     18  C   UNL     1      -1.118   9.756  17.618  0.00  0.00    +0.000 A 
ATOM     19  C   UNL     1      -2.444   9.858  17.187  0.00  0.00    +0.000 A 
ATOM     20  C   UNL     1      -3.299  10.773  17.786  0.00  0.00    +0.000 A 
ATOM     21  C   UNL     1      -2.826  11.583  18.813  0.00  0.00    +0.000 A 
ATOM     22  C   UNL     1      -1.497  11.476  19.235  0.00  0.00    +0.000 A 
ENDBRANCH  15  17
ENDBRANCH   3  13
TORSDOF 2
ENDMDL
