MODEL 1
REMARK VINA RESULT:      -9.2      0.000      0.000
REMARK  Name = 
REMARK  6 active torsions:
REMARK  status: ('A' for Active; 'I' for Inactive)
REMARK    1  A    between atoms: C_1  and  C_2
REMARK    2  A    between atoms: C_4  and  C_5
REMARK    3  A    between atoms: N_7  and  C_8
REMARK    4  A    between atoms: C_8  and  C_9
REMARK    5  A    between atoms: C_12  and  O_13
REMARK    6  A    between atoms: O_13  and  C_14
REMARK                            x       y       z     vdW  Elec       q    Type
REMARK                         _______ _______ _______ _____ _____    ______ ____
ROOT
ATOM      1  C   UNL     1       3.557   4.405  19.014  0.00  0.00    +0.000 C 
ATOM      2  C   UNL     1       3.252   5.621  18.132  0.00  0.00    +0.000 C 
ATOM      3  C   UNL     1       3.068   6.832  19.038  0.00  0.00    +0.000 C 
ATOM      4  C   UNL     1       1.819   6.651  19.918  0.00  0.00    +0.000 C 
ATOM      5  C   UNL     1       1.997   5.371  20.767  0.00  0.00    +0.000 C 
ATOM      6  C   UNL     1       2.314   4.136  19.894  0.00  0.00    +0.000 C 
ENDROOT
BRANCH   1   7
ATOM      7  C   UNL     1       4.047   3.198  18.194  0.00  0.00    +0.000 C 
BRANCH   7  10
ATOM      8  C   UNL     1       6.021   4.125  16.980  0.00  0.00    +0.000 C 
ATOM      9  O   UNL     1       6.667   4.277  18.023  0.00  0.00    +0.000 OA
ATOM     10  N   UNL     1       4.739   3.600  16.969  0.00  0.00    +0.000 N 
ATOM     11  H   UNL     1       4.275   3.533  16.068  0.00  0.00    +0.000 HD
BRANCH   8  15
ATOM     12  C   UNL     1       7.226   4.493  12.045  0.00  0.00    +0.000 C 
ATOM     13  C   UNL     1       7.042   4.582  13.508  0.00  0.00    +0.000 A 
ATOM     14  C   UNL     1       6.227   3.953  14.411  0.00  0.00    +0.000 A 
ATOM     15  C   UNL     1       6.591   4.492  15.674  0.00  0.00    +0.000 A 
ATOM     16  N   UNL     1       7.561   5.417  15.531  0.00  0.00    +0.000 NA
ATOM     17  O   UNL     1       7.839   5.463  14.172  0.00  0.00    +0.000 OA
ENDBRANCH   8  15
ENDBRANCH   7  10
ENDBRANCH   1   7
BRANCH   4  18
ATOM     18  O   UNL     1       1.624   7.780  20.789  0.00  0.00    +0.000 OA
BRANCH  18  19
ATOM     19  C   UNL     1       1.034   8.908  20.248  0.00  0.00    +0.000 A 
ATOM     20  C   UNL     1       1.192   9.289  18.918  0.00  0.00    +0.000 A 
ATOM     21  C   UNL     1       0.618  10.464  18.492  0.00  0.00    +0.000 A 
ATOM     22  N   UNL     1      -0.145  11.243  19.272  0.00  0.00    +0.000 NA
ATOM     23  C   UNL     1      -0.342  10.885  20.559  0.00  0.00    +0.000 A 
ATOM     24  C   UNL     1      -1.163  11.660  21.388  0.00  0.00    +0.000 A 
ATOM     25 BR   UNL     1      -2.090  13.179  20.697  0.00  0.00    +0.000 Br
ATOM     26  C   UNL     1      -1.364  11.354  22.736  0.00  0.00    +0.000 A 
ATOM     27  C   UNL     1      -0.742  10.241  23.285  0.00  0.00    +0.000 A 
ATOM     28  C   UNL     1       0.056   9.429  22.478  0.00  0.00    +0.000 A 
ATOM     29  C   UNL     1       0.263   9.728  21.110  0.00  0.00    +0.000 A 
ENDBRANCH  18  19
ENDBRANCH   4  18
TORSDOF 5
ENDMDL
MODEL 2
REMARK VINA RESULT:      -9.1      1.481      2.045
REMARK  Name = 
REMARK  6 active torsions:
REMARK  status: ('A' for Active; 'I' for Inactive)
REMARK    1  A    between atoms: C_1  and  C_2
REMARK    2  A    between atoms: C_4  and  C_5
REMARK    3  A    between atoms: N_7  and  C_8
REMARK    4  A    between atoms: C_8  and  C_9
REMARK    5  A    between atoms: C_12  and  O_13
REMARK    6  A    between atoms: O_13  and  C_14
REMARK                            x       y       z     vdW  Elec       q    Type
REMARK                         _______ _______ _______ _____ _____    ______ ____
ROOT
ATOM      1  C   UNL     1       3.005   6.552  19.244  0.00  0.00    +0.000 C 
ATOM      2  C   UNL     1       2.462   7.245  17.990  0.00  0.00    +0.000 C 
ATOM      3  C   UNL     1       2.269   8.723  18.309  0.00  0.00    +0.000 C 
ATOM      4  C   UNL     1       1.171   8.897  19.371  0.00  0.00    +0.000 C 
ATOM      5  C   UNL     1       1.592   8.127  20.644  0.00  0.00    +0.000 C 
ATOM      6  C   UNL     1       1.923   6.647  20.344  0.00  0.00    +0.000 C 
ENDROOT
BRANCH   1   7
ATOM      7  C   UNL     1       3.510   5.128  18.951  0.00  0.00    +0.000 C 
BRANCH   7  10
ATOM      8  C   UNL     1       5.594   5.059  17.579  0.00  0.00    +0.000 C 
ATOM      9  O   UNL     1       6.323   5.144  18.574  0.00  0.00    +0.000 OA
ATOM     10  N   UNL     1       4.213   5.038  17.670  0.00  0.00    +0.000 N 
ATOM     11  H   UNL     1       3.693   4.990  16.799  0.00  0.00    +0.000 HD
BRANCH   8  15
ATOM     12  C   UNL     1       6.647   3.906  12.731  0.00  0.00    +0.000 C 
ATOM     13  C   UNL     1       6.538   4.407  14.117  0.00  0.00    +0.000 A 
ATOM     14  C   UNL     1       5.667   4.185  15.150  0.00  0.00    +0.000 A 
ATOM     15  C   UNL     1       6.165   4.967  16.227  0.00  0.00    +0.000 A 
ATOM     16  N   UNL     1       7.268   5.644  15.847  0.00  0.00    +0.000 NA
ATOM     17  O   UNL     1       7.495   5.283  14.527  0.00  0.00    +0.000 OA
ENDBRANCH   8  15
ENDBRANCH   7  10
ENDBRANCH   1   7
BRANCH   4  18
ATOM     18  O   UNL     1       0.972  10.285  19.696  0.00  0.00    +0.000 OA
BRANCH  18  19
ATOM     19  C   UNL     1      -0.276  10.825  19.444  0.00  0.00    +0.000 A 
ATOM     20  C   UNL     1      -0.885  10.790  18.193  0.00  0.00    +0.000 A 
ATOM     21  C   UNL     1      -2.100  11.412  18.028  0.00  0.00    +0.000 A 
ATOM     22  N   UNL     1      -2.771  12.008  19.025  0.00  0.00    +0.000 NA
ATOM     23  C   UNL     1      -2.220  12.034  20.258  0.00  0.00    +0.000 A 
ATOM     24  C   UNL     1      -2.912  12.616  21.326  0.00  0.00    +0.000 A 
ATOM     25 BR   UNL     1      -4.678  13.301  21.087  0.00  0.00    +0.000 Br
ATOM     26  C   UNL     1      -2.366  12.705  22.609  0.00  0.00    +0.000 A 
ATOM     27  C   UNL     1      -1.099  12.193  22.851  0.00  0.00    +0.000 A 
ATOM     28  C   UNL     1      -0.396  11.577  21.816  0.00  0.00    +0.000 A 
ATOM     29  C   UNL     1      -0.941  11.478  20.512  0.00  0.00    +0.000 A 
ENDBRANCH  18  19
ENDBRANCH   4  18
TORSDOF 5
ENDMDL
MODEL 3
REMARK VINA RESULT:      -9.0      2.556      3.755
REMARK  Name = 
REMARK  6 active torsions:
REMARK  status: ('A' for Active; 'I' for Inactive)
REMARK    1  A    between atoms: C_1  and  C_2
REMARK    2  A    between atoms: C_4  and  C_5
REMARK    3  A    between atoms: N_7  and  C_8
REMARK    4  A    between atoms: C_8  and  C_9
REMARK    5  A    between atoms: C_12  and  O_13
REMARK    6  A    between atoms: O_13  and  C_14
REMARK                            x       y       z     vdW  Elec       q    Type
REMARK                         _______ _______ _______ _____ _____    ______ ____
ROOT
ATOM      1  C   UNL     1       2.597   7.410  19.493  0.00  0.00    +0.000 C 
ATOM      2  C   UNL     1       2.141   7.768  18.074  0.00  0.00    +0.000 C 
ATOM      3  C   UNL     1       1.896   9.271  18.019  0.00  0.00    +0.000 C 
ATOM      4  C   UNL     1       0.714   9.650  18.928  0.00  0.00    +0.000 C 
ATOM      5  C   UNL     1       1.048   9.217  20.374  0.00  0.00    +0.000 C 
ATOM      6  C   UNL     1       1.429   7.721  20.458  0.00  0.00    +0.000 C 
ENDROOT
BRANCH   1   7
ATOM      7  C   UNL     1       3.150   5.977  19.583  0.00  0.00    +0.000 C 
BRANCH   7  10
ATOM      8  C   UNL     1       5.297   5.342  18.479  0.00  0.00    +0.000 C 
ATOM      9  O   UNL     1       5.926   5.385  19.542  0.00  0.00    +0.000 OA
ATOM     10  N   UNL     1       3.940   5.609  18.408  0.00  0.00    +0.000 N 
ATOM     11  H   UNL     1       3.511   5.572  17.488  0.00  0.00    +0.000 HD
BRANCH   8  15
ATOM     12  C   UNL     1       6.430   3.987  13.702  0.00  0.00    +0.000 C 
ATOM     13  C   UNL     1       6.357   4.402  15.118  0.00  0.00    +0.000 A 
ATOM     14  C   UNL     1       5.332   4.685  15.982  0.00  0.00    +0.000 A 
ATOM     15  C   UNL     1       5.966   4.991  17.217  0.00  0.00    +0.000 A 
ATOM     16  N   UNL     1       7.305   4.919  17.090  0.00  0.00    +0.000 NA
ATOM     17  O   UNL     1       7.540   4.547  15.775  0.00  0.00    +0.000 OA
ENDBRANCH   8  15
ENDBRANCH   7  10
ENDBRANCH   1   7
BRANCH   4  18
ATOM     18  O   UNL     1       0.464  11.067  18.898  0.00  0.00    +0.000 OA
BRANCH  18  19
ATOM     19  C   UNL     1      -0.826  11.491  19.162  0.00  0.00    +0.000 A 
ATOM     20  C   UNL     1      -1.176  12.206  20.305  0.00  0.00    +0.000 A 
ATOM     21  C   UNL     1      -2.497  12.526  20.508  0.00  0.00    +0.000 A 
ATOM     22  N   UNL     1      -3.474  12.241  19.634  0.00  0.00    +0.000 NA
ATOM     23  C   UNL     1      -3.162  11.575  18.502  0.00  0.00    +0.000 A 
ATOM     24  C   UNL     1      -4.153  11.295  17.553  0.00  0.00    +0.000 A 
ATOM     25 BR   UNL     1      -5.939  11.926  17.794  0.00  0.00    +0.000 Br
ATOM     26  C   UNL     1      -3.888  10.572  16.388  0.00  0.00    +0.000 A 
ATOM     27  C   UNL     1      -2.601  10.116  16.143  0.00  0.00    +0.000 A 
ATOM     28  C   UNL     1      -1.583  10.407  17.051  0.00  0.00    +0.000 A 
ATOM     29  C   UNL     1      -1.839  11.142  18.234  0.00  0.00    +0.000 A 
ENDBRANCH  18  19
ENDBRANCH   4  18
TORSDOF 5
ENDMDL
MODEL 4
REMARK VINA RESULT:      -8.7      1.607      2.530
REMARK  Name = 
REMARK  6 active torsions:
REMARK  status: ('A' for Active; 'I' for Inactive)
REMARK    1  A    between atoms: C_1  and  C_2
REMARK    2  A    between atoms: C_4  and  C_5
REMARK    3  A    between atoms: N_7  and  C_8
REMARK    4  A    between atoms: C_8  and  C_9
REMARK    5  A    between atoms: C_12  and  O_13
REMARK    6  A    between atoms: O_13  and  C_14
REMARK                            x       y       z     vdW  Elec       q    Type
REMARK                         _______ _______ _______ _____ _____    ______ ____
ROOT
ATOM      1  C   UNL     1       4.186   5.746  18.182  0.00  0.00    +0.000 C 
ATOM      2  C   UNL     1       3.746   5.736  19.650  0.00  0.00    +0.000 C 
ATOM      3  C   UNL     1       2.338   6.315  19.728  0.00  0.00    +0.000 C 
ATOM      4  C   UNL     1       2.352   7.799  19.324  0.00  0.00    +0.000 C 
ATOM      5  C   UNL     1       2.895   7.910  17.881  0.00  0.00    +0.000 C 
ATOM      6  C   UNL     1       4.270   7.221  17.723  0.00  0.00    +0.000 C 
ENDROOT
BRANCH   1   7
ATOM      7  C   UNL     1       5.463   4.920  17.950  0.00  0.00    +0.000 C 
BRANCH   7  10
ATOM      8  C   UNL     1       6.589   5.109  15.730  0.00  0.00    +0.000 C 
ATOM      9  O   UNL     1       7.372   5.976  16.134  0.00  0.00    +0.000 OA
ATOM     10  N   UNL     1       5.631   4.534  16.548  0.00  0.00    +0.000 N 
ATOM     11  H   UNL     1       5.016   3.845  16.125  0.00  0.00    +0.000 HD
BRANCH   8  15
ATOM     12  C   UNL     1       5.932   2.608  11.342  0.00  0.00    +0.000 C 
ATOM     13  C   UNL     1       6.281   3.485  12.478  0.00  0.00    +0.000 A 
ATOM     14  C   UNL     1       5.866   3.577  13.780  0.00  0.00    +0.000 A 
ATOM     15  C   UNL     1       6.641   4.629  14.341  0.00  0.00    +0.000 A 
ATOM     16  N   UNL     1       7.461   5.157  13.411  0.00  0.00    +0.000 NA
ATOM     17  O   UNL     1       7.232   4.432  12.250  0.00  0.00    +0.000 OA
ENDBRANCH   8  15
ENDBRANCH   7  10
ENDBRANCH   1   7
BRANCH   4  18
ATOM     18  O   UNL     1       1.033   8.371  19.385  0.00  0.00    +0.000 OA
BRANCH  18  19
ATOM     19  C   UNL     1       0.710   9.109  20.509  0.00  0.00    +0.000 A 
ATOM     20  C   UNL     1       0.918   8.653  21.808  0.00  0.00    +0.000 A 
ATOM     21  C   UNL     1       0.503   9.436  22.860  0.00  0.00    +0.000 A 
ATOM     22  N   UNL     1      -0.043  10.652  22.711  0.00  0.00    +0.000 NA
ATOM     23  C   UNL     1      -0.231  11.135  21.465  0.00  0.00    +0.000 A 
ATOM     24  C   UNL     1      -0.764  12.416  21.278  0.00  0.00    +0.000 A 
ATOM     25 BR   UNL     1      -1.150  13.538  22.774  0.00  0.00    +0.000 Br
ATOM     26  C   UNL     1      -1.016  12.942  20.009  0.00  0.00    +0.000 A 
ATOM     27  C   UNL     1      -0.724  12.185  18.884  0.00  0.00    +0.000 A 
ATOM     28  C   UNL     1      -0.160  10.917  19.033  0.00  0.00    +0.000 A 
ATOM     29  C   UNL     1       0.103  10.375  20.315  0.00  0.00    +0.000 A 
ENDBRANCH  18  19
ENDBRANCH   4  18
TORSDOF 5
ENDMDL
MODEL 5
REMARK VINA RESULT:      -8.6      1.767      2.540
REMARK  Name = 
REMARK  6 active torsions:
REMARK  status: ('A' for Active; 'I' for Inactive)
REMARK    1  A    between atoms: C_1  and  C_2
REMARK    2  A    between atoms: C_4  and  C_5
REMARK    3  A    between atoms: N_7  and  C_8
REMARK    4  A    between atoms: C_8  and  C_9
REMARK    5  A    between atoms: C_12  and  O_13
REMARK    6  A    between atoms: O_13  and  C_14
REMARK                            x       y       z     vdW  Elec       q    Type
REMARK                         _______ _______ _______ _____ _____    ______ ____
ROOT
ATOM      1  C   UNL     1       2.545   6.685  18.747  0.00  0.00    +0.000 C 
ATOM      2  C   UNL     1       2.288   7.245  20.150  0.00  0.00    +0.000 C 
ATOM      3  C   UNL     1       1.092   8.187  20.075  0.00  0.00    +0.000 C 
ATOM      4  C   UNL     1       1.435   9.412  19.211  0.00  0.00    +0.000 C 
ATOM      5  C   UNL     1       1.819   8.923  17.796  0.00  0.00    +0.000 C 
ATOM      6  C   UNL     1       2.947   7.867  17.833  0.00  0.00    +0.000 C 
ENDROOT
BRANCH   1   7
ATOM      7  C   UNL     1       3.536   5.508  18.761  0.00  0.00    +0.000 C 
BRANCH   7  10
ATOM      8  C   UNL     1       5.604   5.105  17.423  0.00  0.00    +0.000 C 
ATOM      9  O   UNL     1       6.304   4.973  18.433  0.00  0.00    +0.000 OA
ATOM     10  N   UNL     1       4.244   5.360  17.489  0.00  0.00    +0.000 N 
ATOM     11  H   UNL     1       3.753   5.476  16.608  0.00  0.00    +0.000 HD
BRANCH   8  15
ATOM     12  C   UNL     1       6.694   3.855  12.607  0.00  0.00    +0.000 C 
ATOM     13  C   UNL     1       6.575   4.384  13.981  0.00  0.00    +0.000 A 
ATOM     14  C   UNL     1       5.695   4.182  15.012  0.00  0.00    +0.000 A 
ATOM     15  C   UNL     1       6.185   4.986  16.076  0.00  0.00    +0.000 A 
ATOM     16  N   UNL     1       7.289   5.656  15.692  0.00  0.00    +0.000 NA
ATOM     17  O   UNL     1       7.527   5.269  14.381  0.00  0.00    +0.000 OA
ENDBRANCH   8  15
ENDBRANCH   7  10
ENDBRANCH   1   7
BRANCH   4  18
ATOM     18  O   UNL     1       0.320  10.317  19.119  0.00  0.00    +0.000 OA
BRANCH  18  19
ATOM     19  C   UNL     1       0.530  11.629  19.505  0.00  0.00    +0.000 A 
ATOM     20  C   UNL     1       1.290  12.530  18.764  0.00  0.00    +0.000 A 
ATOM     21  C   UNL     1       1.494  13.794  19.265  0.00  0.00    +0.000 A 
ATOM     22  N   UNL     1       0.950  14.237  20.408  0.00  0.00    +0.000 NA
ATOM     23  C   UNL     1       0.184  13.396  21.135  0.00  0.00    +0.000 A 
ATOM     24  C   UNL     1      -0.427  13.840  22.314  0.00  0.00    +0.000 A 
ATOM     25 BR   UNL     1      -0.266  15.660  22.869  0.00  0.00    +0.000 Br
ATOM     26  C   UNL     1      -1.194  12.997  23.121  0.00  0.00    +0.000 A 
ATOM     27  C   UNL     1      -1.374  11.672  22.749  0.00  0.00    +0.000 A 
ATOM     28  C   UNL     1      -0.807  11.205  21.563  0.00  0.00    +0.000 A 
ATOM     29  C   UNL     1      -0.030  12.053  20.736  0.00  0.00    +0.000 A 
ENDBRANCH  18  19
ENDBRANCH   4  18
TORSDOF 5
ENDMDL
MODEL 6
REMARK VINA RESULT:      -8.5      1.429      2.413
REMARK  Name = 
REMARK  6 active torsions:
REMARK  status: ('A' for Active; 'I' for Inactive)
REMARK    1  A    between atoms: C_1  and  C_2
REMARK    2  A    between atoms: C_4  and  C_5
REMARK    3  A    between atoms: N_7  and  C_8
REMARK    4  A    between atoms: C_8  and  C_9
REMARK    5  A    between atoms: C_12  and  O_13
REMARK    6  A    between atoms: O_13  and  C_14
REMARK                            x       y       z     vdW  Elec       q    Type
REMARK                         _______ _______ _______ _____ _____    ______ ____
ROOT
ATOM      1  C   UNL     1       2.713   5.803  18.527  0.00  0.00    +0.000 C 
ATOM      2  C   UNL     1       2.414   6.094  20.002  0.00  0.00    +0.000 C 
ATOM      3  C   UNL     1       1.315   7.149  20.064  0.00  0.00    +0.000 C 
ATOM      4  C   UNL     1       1.825   8.480  19.488  0.00  0.00    +0.000 C 
ATOM      5  C   UNL     1       2.258   8.247  18.022  0.00  0.00    +0.000 C 
ATOM      6  C   UNL     1       3.281   7.095  17.896  0.00  0.00    +0.000 C 
ENDROOT
BRANCH   1   7
ATOM      7  C   UNL     1       3.591   4.551  18.347  0.00  0.00    +0.000 C 
BRANCH   7  10
ATOM      8  C   UNL     1       5.717   4.747  17.054  0.00  0.00    +0.000 C 
ATOM      9  O   UNL     1       6.398   4.880  18.078  0.00  0.00    +0.000 OA
ATOM     10  N   UNL     1       4.344   4.574  17.092  0.00  0.00    +0.000 N 
ATOM     11  H   UNL     1       3.864   4.497  16.200  0.00  0.00    +0.000 HD
BRANCH   8  15
ATOM     12  C   UNL     1       6.973   3.947  12.183  0.00  0.00    +0.000 C 
ATOM     13  C   UNL     1       6.804   4.349  13.595  0.00  0.00    +0.000 A 
ATOM     14  C   UNL     1       5.896   4.047  14.574  0.00  0.00    +0.000 A 
ATOM     15  C   UNL     1       6.342   4.756  15.722  0.00  0.00    +0.000 A 
ATOM     16  N   UNL     1       7.450   5.468  15.436  0.00  0.00    +0.000 NA
ATOM     17  O   UNL     1       7.733   5.203  14.103  0.00  0.00    +0.000 OA
ENDBRANCH   8  15
ENDBRANCH   7  10
ENDBRANCH   1   7
BRANCH   4  18
ATOM     18  O   UNL     1       0.804   9.494  19.530  0.00  0.00    +0.000 OA
BRANCH  18  19
ATOM     19  C   UNL     1       0.312   9.851  20.772  0.00  0.00    +0.000 A 
ATOM     20  C   UNL     1       0.756   9.281  21.962  0.00  0.00    +0.000 A 
ATOM     21  C   UNL     1       0.157   9.657  23.142  0.00  0.00    +0.000 A 
ATOM     22  N   UNL     1      -0.799  10.593  23.224  0.00  0.00    +0.000 NA
ATOM     23  C   UNL     1      -1.231  11.186  22.090  0.00  0.00    +0.000 A 
ATOM     24  C   UNL     1      -2.203  12.193  22.148  0.00  0.00    +0.000 A 
ATOM     25 BR   UNL     1      -2.868  12.811  23.827  0.00  0.00    +0.000 Br
ATOM     26  C   UNL     1      -2.711  12.806  21.000  0.00  0.00    +0.000 A 
ATOM     27  C   UNL     1      -2.241  12.420  19.753  0.00  0.00    +0.000 A 
ATOM     28  C   UNL     1      -1.249  11.444  19.662  0.00  0.00    +0.000 A 
ATOM     29  C   UNL     1      -0.723  10.819  20.819  0.00  0.00    +0.000 A 
ENDBRANCH  18  19
ENDBRANCH   4  18
TORSDOF 5
ENDMDL
MODEL 7
REMARK VINA RESULT:      -8.5      0.661      1.144
REMARK  Name = 
REMARK  6 active torsions:
REMARK  status: ('A' for Active; 'I' for Inactive)
REMARK    1  A    between atoms: C_1  and  C_2
REMARK    2  A    between atoms: C_4  and  C_5
REMARK    3  A    between atoms: N_7  and  C_8
REMARK    4  A    between atoms: C_8  and  C_9
REMARK    5  A    between atoms: C_12  and  O_13
REMARK    6  A    between atoms: O_13  and  C_14
REMARK                            x       y       z     vdW  Elec       q    Type
REMARK                         _______ _______ _______ _____ _____    ______ ____
ROOT
ATOM      1  C   UNL     1       3.230   4.520  18.966  0.00  0.00    +0.000 C 
ATOM      2  C   UNL     1       2.986   4.541  20.479  0.00  0.00    +0.000 C 
ATOM      3  C   UNL     1       1.723   5.350  20.746  0.00  0.00    +0.000 C 
ATOM      4  C   UNL     1       1.942   6.821  20.355  0.00  0.00    +0.000 C 
ATOM      5  C   UNL     1       2.307   6.881  18.853  0.00  0.00    +0.000 C 
ATOM      6  C   UNL     1       3.509   5.971  18.512  0.00  0.00    +0.000 C 
ENDROOT
BRANCH   1   7
ATOM      7  C   UNL     1       4.304   3.494  18.562  0.00  0.00    +0.000 C 
BRANCH   7  10
ATOM      8  C   UNL     1       6.182   4.280  17.118  0.00  0.00    +0.000 C 
ATOM      9  O   UNL     1       6.920   4.489  18.087  0.00  0.00    +0.000 OA
ATOM     10  N   UNL     1       4.894   3.789  17.256  0.00  0.00    +0.000 N 
ATOM     11  H   UNL     1       4.351   3.671  16.406  0.00  0.00    +0.000 HD
BRANCH   8  15
ATOM     12  C   UNL     1       6.995   4.227  12.090  0.00  0.00    +0.000 C 
ATOM     13  C   UNL     1       6.923   4.442  13.550  0.00  0.00    +0.000 A 
ATOM     14  C   UNL     1       6.191   3.885  14.565  0.00  0.00    +0.000 A 
ATOM     15  C   UNL     1       6.643   4.538  15.745  0.00  0.00    +0.000 A 
ATOM     16  N   UNL     1       7.580   5.458  15.445  0.00  0.00    +0.000 NA
ATOM     17  O   UNL     1       7.751   5.388  14.070  0.00  0.00    +0.000 OA
ENDBRANCH   8  15
ENDBRANCH   7  10
ENDBRANCH   1   7
BRANCH   4  18
ATOM     18  O   UNL     1       0.761   7.609  20.592  0.00  0.00    +0.000 OA
BRANCH  18  19
ATOM     19  C   UNL     1       0.797   8.939  20.217  0.00  0.00    +0.000 A 
ATOM     20  C   UNL     1       1.382   9.384  19.034  0.00  0.00    +0.000 A 
ATOM     21  C   UNL     1       1.424  10.735  18.782  0.00  0.00    +0.000 A 
ATOM     22  N   UNL     1       0.876  11.658  19.585  0.00  0.00    +0.000 NA
ATOM     23  C   UNL     1       0.275  11.257  20.726  0.00  0.00    +0.000 A 
ATOM     24  C   UNL     1      -0.337  12.193  21.567  0.00  0.00    +0.000 A 
ATOM     25 BR   UNL     1      -0.416  14.038  21.078  0.00  0.00    +0.000 Br
ATOM     26  C   UNL     1      -0.935  11.832  22.776  0.00  0.00    +0.000 A 
ATOM     27  C   UNL     1      -0.938  10.501  23.168  0.00  0.00    +0.000 A 
ATOM     28  C   UNL     1      -0.365   9.537  22.337  0.00  0.00    +0.000 A 
ATOM     29  C   UNL     1       0.240   9.892  21.107  0.00  0.00    +0.000 A 
ENDBRANCH  18  19
ENDBRANCH   4  18
TORSDOF 5
ENDMDL
MODEL 8
REMARK VINA RESULT:      -8.4      1.470      2.319
REMARK  Name = 
REMARK  6 active torsions:
REMARK  status: ('A' for Active; 'I' for Inactive)
REMARK    1  A    between atoms: C_1  and  C_2
REMARK    2  A    between atoms: C_4  and  C_5
REMARK    3  A    between atoms: N_7  and  C_8
REMARK    4  A    between atoms: C_8  and  C_9
REMARK    5  A    between atoms: C_12  and  O_13
REMARK    6  A    between atoms: O_13  and  C_14
REMARK                            x       y       z     vdW  Elec       q    Type
REMARK                         _______ _______ _______ _____ _____    ______ ____
ROOT
ATOM      1  C   UNL     1       3.112   6.127  19.083  0.00  0.00    +0.000 C 
ATOM      2  C   UNL     1       2.534   6.917  17.903  0.00  0.00    +0.000 C 
ATOM      3  C   UNL     1       2.408   8.377  18.324  0.00  0.00    +0.000 C 
ATOM      4  C   UNL     1       1.368   8.516  19.449  0.00  0.00    +0.000 C 
ATOM      5  C   UNL     1       1.822   7.652  20.648  0.00  0.00    +0.000 C 
ATOM      6  C   UNL     1       2.087   6.185  20.239  0.00  0.00    +0.000 C 
ENDROOT
BRANCH   1   7
ATOM      7  C   UNL     1       3.553   4.711  18.675  0.00  0.00    +0.000 C 
BRANCH   7  10
ATOM      8  C   UNL     1       5.638   4.898  17.316  0.00  0.00    +0.000 C 
ATOM      9  O   UNL     1       6.342   5.094  18.312  0.00  0.00    +0.000 OA
ATOM     10  N   UNL     1       4.271   4.695  17.400  0.00  0.00    +0.000 N 
ATOM     11  H   UNL     1       3.768   4.565  16.527  0.00  0.00    +0.000 HD
BRANCH   8  15
ATOM     12  C   UNL     1       6.731   3.969  12.429  0.00  0.00    +0.000 C 
ATOM     13  C   UNL     1       6.615   4.401  13.836  0.00  0.00    +0.000 A 
ATOM     14  C   UNL     1       5.724   4.148  14.845  0.00  0.00    +0.000 A 
ATOM     15  C   UNL     1       6.226   4.862  15.967  0.00  0.00    +0.000 A 
ATOM     16  N   UNL     1       7.348   5.530  15.637  0.00  0.00    +0.000 NA
ATOM     17  O   UNL     1       7.586   5.232  14.303  0.00  0.00    +0.000 OA
ENDBRANCH   8  15
ENDBRANCH   7  10
ENDBRANCH   1   7
BRANCH   4  18
ATOM     18  O   UNL     1       1.232   9.885  19.870  0.00  0.00    +0.000 OA
BRANCH  18  19
ATOM     19  C   UNL     1       0.504  10.129  21.021  0.00  0.00    +0.000 A 
ATOM     20  C   UNL     1       0.740   9.474  22.226  0.00  0.00    +0.000 A 
ATOM     21  C   UNL     1      -0.081   9.739  23.297  0.00  0.00    +0.000 A 
ATOM     22  N   UNL     1      -1.070  10.644  23.268  0.00  0.00    +0.000 NA
ATOM     23  C   UNL     1      -1.305  11.318  22.122  0.00  0.00    +0.000 A 
ATOM     24  C   UNL     1      -2.307  12.295  22.072  0.00  0.00    +0.000 A 
ATOM     25 BR   UNL     1      -3.295  12.760  23.639  0.00  0.00    +0.000 Br
ATOM     26  C   UNL     1      -2.615  12.988  20.899  0.00  0.00    +0.000 A 
ATOM     27  C   UNL     1      -1.907  12.717  19.737  0.00  0.00    +0.000 A 
ATOM     28  C   UNL     1      -0.880  11.772  19.761  0.00  0.00    +0.000 A 
ATOM     29  C   UNL     1      -0.557  11.067  20.945  0.00  0.00    +0.000 A 
ENDBRANCH  18  19
ENDBRANCH   4  18
TORSDOF 5
ENDMDL
MODEL 9
REMARK VINA RESULT:      -8.4      1.789      2.773
REMARK  Name = 
REMARK  6 active torsions:
REMARK  status: ('A' for Active; 'I' for Inactive)
REMARK    1  A    between atoms: C_1  and  C_2
REMARK    2  A    between atoms: C_4  and  C_5
REMARK    3  A    between atoms: N_7  and  C_8
REMARK    4  A    between atoms: C_8  and  C_9
REMARK    5  A    between atoms: C_12  and  O_13
REMARK    6  A    between atoms: O_13  and  C_14
REMARK                            x       y       z     vdW  Elec       q    Type
REMARK                         _______ _______ _______ _____ _____    ______ ____
ROOT
ATOM      1  C   UNL     1       4.079   5.834  18.181  0.00  0.00    +0.000 C 
ATOM      2  C   UNL     1       3.615   5.902  19.640  0.00  0.00    +0.000 C 
ATOM      3  C   UNL     1       2.216   6.507  19.666  0.00  0.00    +0.000 C 
ATOM      4  C   UNL     1       2.261   7.969  19.191  0.00  0.00    +0.000 C 
ATOM      5  C   UNL     1       2.829   8.001  17.754  0.00  0.00    +0.000 C 
ATOM      6  C   UNL     1       4.195   7.283  17.654  0.00  0.00    +0.000 C 
ENDROOT
BRANCH   1   7
ATOM      7  C   UNL     1       5.346   4.978  18.012  0.00  0.00    +0.000 C 
BRANCH   7  10
ATOM      8  C   UNL     1       6.579   5.194  15.853  0.00  0.00    +0.000 C 
ATOM      9  O   UNL     1       7.335   6.062  16.302  0.00  0.00    +0.000 OA
ATOM     10  N   UNL     1       5.586   4.605  16.618  0.00  0.00    +0.000 N 
ATOM     11  H   UNL     1       4.997   3.917  16.158  0.00  0.00    +0.000 HD
BRANCH   8  15
ATOM     12  C   UNL     1       6.185   2.706  11.426  0.00  0.00    +0.000 C 
ATOM     13  C   UNL     1       6.458   3.586  12.581  0.00  0.00    +0.000 A 
ATOM     14  C   UNL     1       5.988   3.653  13.866  0.00  0.00    +0.000 A 
ATOM     15  C   UNL     1       6.703   4.727  14.464  0.00  0.00    +0.000 A 
ATOM     16  N   UNL     1       7.541   5.290  13.571  0.00  0.00    +0.000 NA
ATOM     17  O   UNL     1       7.383   4.567  12.397  0.00  0.00    +0.000 OA
ENDBRANCH   8  15
ENDBRANCH   7  10
ENDBRANCH   1   7
BRANCH   4  18
ATOM     18  O   UNL     1       0.950   8.564  19.200  0.00  0.00    +0.000 OA
BRANCH  18  19
ATOM     19  C   UNL     1       0.683   9.499  20.183  0.00  0.00    +0.000 A 
ATOM     20  C   UNL     1       0.171   9.166  21.435  0.00  0.00    +0.000 A 
ATOM     21  C   UNL     1      -0.122  10.176  22.321  0.00  0.00    +0.000 A 
ATOM     22  N   UNL     1       0.111  11.473  22.074  0.00  0.00    +0.000 NA
ATOM     23  C   UNL     1       0.634  11.826  20.880  0.00  0.00    +0.000 A 
ATOM     24  C   UNL     1       0.924  13.168  20.606  0.00  0.00    +0.000 A 
ATOM     25 BR   UNL     1       0.673  14.511  21.940  0.00  0.00    +0.000 Br
ATOM     26  C   UNL     1       1.426  13.587  19.372  0.00  0.00    +0.000 A 
ATOM     27  C   UNL     1       1.660  12.650  18.375  0.00  0.00    +0.000 A 
ATOM     28  C   UNL     1       1.414  11.300  18.626  0.00  0.00    +0.000 A 
ATOM     29  C   UNL     1       0.909  10.864  19.875  0.00  0.00    +0.000 A 
ENDBRANCH  18  19
ENDBRANCH   4  18
TORSDOF 5
ENDMDL
