MODEL 1
REMARK VINA RESULT:      -6.5      0.000      0.000
REMARK  Name = 
REMARK  4 active torsions:
REMARK  status: ('A' for Active; 'I' for Inactive)
REMARK    1  A    between atoms: C_5  and  N_6
REMARK    2  A    between atoms: C_7  and  S_8
REMARK    3  A    between atoms: N_9  and  N_10
REMARK    4  A    between atoms: C_11  and  C_12
REMARK                            x       y       z     vdW  Elec       q    Type
REMARK                         _______ _______ _______ _____ _____    ______ ____
ROOT
ATOM      1  N   UNL     1       3.709   4.064  19.080  0.00  0.00    +0.000 N 
ATOM      2  C   UNL     1       2.995   5.007  19.773  0.00  0.00    +0.000 C 
ATOM      3  N   UNL     1       2.941   6.285  19.537  0.00  0.00    +0.000 NA
ATOM      4  H   UNL     1       3.509   3.108  19.339  0.00  0.00    +0.000 HD
ENDROOT
BRANCH   1   9
ATOM      5  F   UNL     1       7.514   4.647  15.089  0.00  0.00    +0.000 F 
ATOM      6  C   UNL     1       6.583   4.510  16.044  0.00  0.00    +0.000 A 
ATOM      7  C   UNL     1       5.279   4.189  15.691  0.00  0.00    +0.000 A 
ATOM      8  C   UNL     1       4.311   4.042  16.688  0.00  0.00    +0.000 A 
ATOM      9  C   UNL     1       4.630   4.229  18.039  0.00  0.00    +0.000 A 
ATOM     10  C   UNL     1       5.961   4.544  18.366  0.00  0.00    +0.000 A 
ATOM     11  C   UNL     1       6.934   4.685  17.373  0.00  0.00    +0.000 A 
ENDBRANCH   1   9
BRANCH   2  12
ATOM     12  S   UNL     1       2.080   4.224  21.080  0.00  0.00    +0.000 S 
ATOM     13  H   UNL     1       2.891   3.164  21.181  0.00  0.00    +0.000 HD
ENDBRANCH   2  12
BRANCH   3  14
ATOM     14  N   UNL     1       2.121   6.999  20.399  0.00  0.00    +0.000 NA
ATOM     15  C   UNL     1       1.840   8.191  19.972  0.00  0.00    +0.000 C 
BRANCH  15  16
ATOM     16  C   UNL     1       0.937   9.064  20.749  0.00  0.00    +0.000 A 
ATOM     17  C   UNL     1       0.770   8.848  22.113  0.00  0.00    +0.000 A 
ATOM     18  C   UNL     1      -0.117   9.661  22.808  0.00  0.00    +0.000 A 
ATOM     19  C   UNL     1      -0.801  10.656  22.120  0.00  0.00    +0.000 A 
ATOM     20  C   UNL     1      -0.562  10.803  20.759  0.00  0.00    +0.000 A 
ATOM     21  N   UNL     1       0.291  10.029  20.051  0.00  0.00    +0.000 NA
ENDBRANCH  15  16
ENDBRANCH   3  14
TORSDOF 4
ENDMDL
MODEL 2
REMARK VINA RESULT:      -6.5      0.671      1.569
REMARK  Name = 
REMARK  4 active torsions:
REMARK  status: ('A' for Active; 'I' for Inactive)
REMARK    1  A    between atoms: C_5  and  N_6
REMARK    2  A    between atoms: C_7  and  S_8
REMARK    3  A    between atoms: N_9  and  N_10
REMARK    4  A    between atoms: C_11  and  C_12
REMARK                            x       y       z     vdW  Elec       q    Type
REMARK                         _______ _______ _______ _____ _____    ______ ____
ROOT
ATOM      1  N   UNL     1       3.832   3.936  19.178  0.00  0.00    +0.000 N 
ATOM      2  C   UNL     1       3.017   4.848  19.797  0.00  0.00    +0.000 C 
ATOM      3  N   UNL     1       2.862   6.102  19.490  0.00  0.00    +0.000 NA
ATOM      4  H   UNL     1       3.705   2.982  19.483  0.00  0.00    +0.000 HD
ENDROOT
BRANCH   1   9
ATOM      5  F   UNL     1       7.393   4.761  15.009  0.00  0.00    +0.000 F 
ATOM      6  C   UNL     1       6.544   4.558  16.026  0.00  0.00    +0.000 A 
ATOM      7  C   UNL     1       6.981   4.737  17.331  0.00  0.00    +0.000 A 
ATOM      8  C   UNL     1       6.094   4.528  18.391  0.00  0.00    +0.000 A 
ATOM      9  C   UNL     1       4.772   4.127  18.158  0.00  0.00    +0.000 A 
ATOM     10  C   UNL     1       4.356   3.965  16.825  0.00  0.00    +0.000 A 
ATOM     11  C   UNL     1       5.238   4.178  15.762  0.00  0.00    +0.000 A 
ENDBRANCH   1   9
BRANCH   2  12
ATOM     12  S   UNL     1       2.127   4.057  21.117  0.00  0.00    +0.000 S 
ATOM     13  H   UNL     1       3.041   4.321  22.057  0.00  0.00    +0.000 HD
ENDBRANCH   2  12
BRANCH   3  14
ATOM     14  N   UNL     1       1.954   6.786  20.287  0.00  0.00    +0.000 NA
ATOM     15  C   UNL     1       1.953   8.067  20.082  0.00  0.00    +0.000 C 
BRANCH  15  16
ATOM     16  C   UNL     1       1.008   8.934  20.814  0.00  0.00    +0.000 A 
ATOM     17  C   UNL     1       0.256   9.877  20.122  0.00  0.00    +0.000 A 
ATOM     18  C   UNL     1      -0.595  10.705  20.845  0.00  0.00    +0.000 A 
ATOM     19  C   UNL     1      -0.665  10.560  22.225  0.00  0.00    +0.000 A 
ATOM     20  C   UNL     1       0.117   9.584  22.828  0.00  0.00    +0.000 A 
ATOM     21  N   UNL     1       0.956   8.763  22.157  0.00  0.00    +0.000 NA
ENDBRANCH  15  16
ENDBRANCH   3  14
TORSDOF 4
ENDMDL
MODEL 3
REMARK VINA RESULT:      -6.5      0.651      1.106
REMARK  Name = 
REMARK  4 active torsions:
REMARK  status: ('A' for Active; 'I' for Inactive)
REMARK    1  A    between atoms: C_5  and  N_6
REMARK    2  A    between atoms: C_7  and  S_8
REMARK    3  A    between atoms: N_9  and  N_10
REMARK    4  A    between atoms: C_11  and  C_12
REMARK                            x       y       z     vdW  Elec       q    Type
REMARK                         _______ _______ _______ _____ _____    ______ ____
ROOT
ATOM      1  N   UNL     1       3.785   4.034  19.078  0.00  0.00    +0.000 N 
ATOM      2  C   UNL     1       3.046   4.959  19.769  0.00  0.00    +0.000 C 
ATOM      3  N   UNL     1       2.946   6.232  19.521  0.00  0.00    +0.000 NA
ATOM      4  H   UNL     1       3.620   3.075  19.348  0.00  0.00    +0.000 HD
ENDROOT
BRANCH   1   9
ATOM      5  F   UNL     1       7.532   4.700  15.045  0.00  0.00    +0.000 F 
ATOM      6  C   UNL     1       6.615   4.543  16.010  0.00  0.00    +0.000 A 
ATOM      7  C   UNL     1       5.306   4.231  15.670  0.00  0.00    +0.000 A 
ATOM      8  C   UNL     1       4.352   4.065  16.678  0.00  0.00    +0.000 A 
ATOM      9  C   UNL     1       4.692   4.221  18.027  0.00  0.00    +0.000 A 
ATOM     10  C   UNL     1       6.028   4.527  18.342  0.00  0.00    +0.000 A 
ATOM     11  C   UNL     1       6.986   4.689  17.338  0.00  0.00    +0.000 A 
ENDBRANCH   1   9
BRANCH   2  12
ATOM     12  S   UNL     1       2.170   4.158  21.091  0.00  0.00    +0.000 S 
ATOM     13  H   UNL     1       1.665   5.285  21.606  0.00  0.00    +0.000 HD
ENDBRANCH   2  12
BRANCH   3  14
ATOM     14  N   UNL     1       2.109   6.926  20.384  0.00  0.00    +0.000 NA
ATOM     15  C   UNL     1       1.859   8.138  19.995  0.00  0.00    +0.000 C 
BRANCH  15  16
ATOM     16  C   UNL     1       0.944   8.995  20.775  0.00  0.00    +0.000 A 
ATOM     17  C   UNL     1       0.230  10.004  20.139  0.00  0.00    +0.000 A 
ATOM     18  C   UNL     1      -0.593  10.819  20.908  0.00  0.00    +0.000 A 
ATOM     19  C   UNL     1      -0.674  10.595  22.277  0.00  0.00    +0.000 A 
ATOM     20  C   UNL     1       0.071   9.556  22.823  0.00  0.00    +0.000 A 
ATOM     21  N   UNL     1       0.882   8.747  22.105  0.00  0.00    +0.000 NA
ENDBRANCH  15  16
ENDBRANCH   3  14
TORSDOF 4
ENDMDL
MODEL 4
REMARK VINA RESULT:      -6.4      0.292      1.140
REMARK  Name = 
REMARK  4 active torsions:
REMARK  status: ('A' for Active; 'I' for Inactive)
REMARK    1  A    between atoms: C_5  and  N_6
REMARK    2  A    between atoms: C_7  and  S_8
REMARK    3  A    between atoms: N_9  and  N_10
REMARK    4  A    between atoms: C_11  and  C_12
REMARK                            x       y       z     vdW  Elec       q    Type
REMARK                         _______ _______ _______ _____ _____    ______ ____
ROOT
ATOM      1  N   UNL     1       3.289   4.047  18.908  0.00  0.00    +0.000 N 
ATOM      2  C   UNL     1       2.634   5.010  19.631  0.00  0.00    +0.000 C 
ATOM      3  N   UNL     1       2.841   6.294  19.603  0.00  0.00    +0.000 NA
ATOM      4  H   UNL     1       2.886   3.123  18.973  0.00  0.00    +0.000 HD
ENDROOT
BRANCH   1   9
ATOM      5  F   UNL     1       7.546   4.604  15.399  0.00  0.00    +0.000 F 
ATOM      6  C   UNL     1       6.527   4.465  16.259  0.00  0.00    +0.000 A 
ATOM      7  C   UNL     1       6.755   4.596  17.621  0.00  0.00    +0.000 A 
ATOM      8  C   UNL     1       5.690   4.454  18.516  0.00  0.00    +0.000 A 
ATOM      9  C   UNL     1       4.397   4.167  18.060  0.00  0.00    +0.000 A 
ATOM     10  C   UNL     1       4.195   4.050  16.674  0.00  0.00    +0.000 A 
ATOM     11  C   UNL     1       5.256   4.197  15.775  0.00  0.00    +0.000 A 
ENDBRANCH   1   9
BRANCH   2  12
ATOM     12  S   UNL     1       1.380   4.253  20.637  0.00  0.00    +0.000 S 
ATOM     13  H   UNL     1       1.644   3.001  20.244  0.00  0.00    +0.000 HD
ENDBRANCH   2  12
BRANCH   3  14
ATOM     14  N   UNL     1       2.013   7.032  20.437  0.00  0.00    +0.000 NA
ATOM     15  C   UNL     1       1.806   8.241  20.015  0.00  0.00    +0.000 C 
BRANCH  15  16
ATOM     16  C   UNL     1       0.905   9.143  20.761  0.00  0.00    +0.000 A 
ATOM     17  C   UNL     1       0.672   8.922  22.115  0.00  0.00    +0.000 A 
ATOM     18  C   UNL     1      -0.211   9.765  22.780  0.00  0.00    +0.000 A 
ATOM     19  C   UNL     1      -0.824  10.793  22.074  0.00  0.00    +0.000 A 
ATOM     20  C   UNL     1      -0.521  10.941  20.726  0.00  0.00    +0.000 A 
ATOM     21  N   UNL     1       0.330  10.140  20.047  0.00  0.00    +0.000 NA
ENDBRANCH  15  16
ENDBRANCH   3  14
TORSDOF 4
ENDMDL
MODEL 5
REMARK VINA RESULT:      -6.4      4.447      8.410
REMARK  Name = 
REMARK  4 active torsions:
REMARK  status: ('A' for Active; 'I' for Inactive)
REMARK    1  A    between atoms: C_5  and  N_6
REMARK    2  A    between atoms: C_7  and  S_8
REMARK    3  A    between atoms: N_9  and  N_10
REMARK    4  A    between atoms: C_11  and  C_12
REMARK                            x       y       z     vdW  Elec       q    Type
REMARK                         _______ _______ _______ _____ _____    ______ ____
ROOT
ATOM      1  N   UNL     1       4.947   5.216  19.446  0.00  0.00    +0.000 N 
ATOM      2  C   UNL     1       5.289   5.348  18.125  0.00  0.00    +0.000 C 
ATOM      3  N   UNL     1       4.615   4.937  17.092  0.00  0.00    +0.000 NA
ATOM      4  H   UNL     1       5.539   5.723  20.088  0.00  0.00    +0.000 HD
ENDROOT
BRANCH   1   9
ATOM      5  F   UNL     1       0.565   2.616  21.633  0.00  0.00    +0.000 F 
ATOM      6  C   UNL     1       1.634   3.234  21.111  0.00  0.00    +0.000 A 
ATOM      7  C   UNL     1       2.797   2.514  20.878  0.00  0.00    +0.000 A 
ATOM      8  C   UNL     1       3.909   3.160  20.330  0.00  0.00    +0.000 A 
ATOM      9  C   UNL     1       3.875   4.527  20.026  0.00  0.00    +0.000 A 
ATOM     10  C   UNL     1       2.679   5.227  20.264  0.00  0.00    +0.000 A 
ATOM     11  C   UNL     1       1.562   4.585  20.806  0.00  0.00    +0.000 A 
ENDBRANCH   1   9
BRANCH   2  12
ATOM     12  S   UNL     1       6.830   6.224  17.991  0.00  0.00    +0.000 S 
ATOM     13  H   UNL     1       7.587   5.126  17.880  0.00  0.00    +0.000 HD
ENDBRANCH   2  12
BRANCH   3  14
ATOM     14  N   UNL     1       5.202   5.222  15.867  0.00  0.00    +0.000 NA
ATOM     15  C   UNL     1       5.763   4.191  15.314  0.00  0.00    +0.000 C 
BRANCH  15  16
ATOM     16  C   UNL     1       6.390   4.314  13.982  0.00  0.00    +0.000 A 
ATOM     17  C   UNL     1       6.022   3.443  12.962  0.00  0.00    +0.000 A 
ATOM     18  C   UNL     1       6.659   3.559  11.732  0.00  0.00    +0.000 A 
ATOM     19  C   UNL     1       7.633   4.535  11.566  0.00  0.00    +0.000 A 
ATOM     20  C   UNL     1       7.927   5.366  12.640  0.00  0.00    +0.000 A 
ATOM     21  N   UNL     1       7.330   5.280  13.850  0.00  0.00    +0.000 NA
ENDBRANCH  15  16
ENDBRANCH   3  14
TORSDOF 4
ENDMDL
MODEL 6
REMARK VINA RESULT:      -6.4      4.330      8.397
REMARK  Name = 
REMARK  4 active torsions:
REMARK  status: ('A' for Active; 'I' for Inactive)
REMARK    1  A    between atoms: C_5  and  N_6
REMARK    2  A    between atoms: C_7  and  S_8
REMARK    3  A    between atoms: N_9  and  N_10
REMARK    4  A    between atoms: C_11  and  C_12
REMARK                            x       y       z     vdW  Elec       q    Type
REMARK                         _______ _______ _______ _____ _____    ______ ____
ROOT
ATOM      1  N   UNL     1       4.551   5.568  19.249  0.00  0.00    +0.000 N 
ATOM      2  C   UNL     1       4.920   5.608  17.930  0.00  0.00    +0.000 C 
ATOM      3  N   UNL     1       4.335   5.017  16.930  0.00  0.00    +0.000 NA
ATOM      4  H   UNL     1       5.056   6.205  19.848  0.00  0.00    +0.000 HD
ENDROOT
BRANCH   1   9
ATOM      5  F   UNL     1       0.738   2.482  21.832  0.00  0.00    +0.000 F 
ATOM      6  C   UNL     1       1.648   3.236  21.201  0.00  0.00    +0.000 A 
ATOM      7  C   UNL     1       1.322   4.530  20.819  0.00  0.00    +0.000 A 
ATOM      8  C   UNL     1       2.274   5.316  20.164  0.00  0.00    +0.000 A 
ATOM      9  C   UNL     1       3.549   4.815  19.873  0.00  0.00    +0.000 A 
ATOM     10  C   UNL     1       3.853   3.504  20.282  0.00  0.00    +0.000 A 
ATOM     11  C   UNL     1       2.907   2.716  20.942  0.00  0.00    +0.000 A 
ENDBRANCH   1   9
BRANCH   2  12
ATOM     12  S   UNL     1       6.349   6.647  17.739  0.00  0.00    +0.000 S 
ATOM     13  H   UNL     1       7.099   5.717  17.137  0.00  0.00    +0.000 HD
ENDBRANCH   2  12
BRANCH   3  14
ATOM     14  N   UNL     1       4.926   5.247  15.695  0.00  0.00    +0.000 NA
ATOM     15  C   UNL     1       5.675   4.268  15.292  0.00  0.00    +0.000 C 
BRANCH  15  16
ATOM     16  C   UNL     1       6.337   4.333  13.974  0.00  0.00    +0.000 A 
ATOM     17  C   UNL     1       5.947   3.464  12.960  0.00  0.00    +0.000 A 
ATOM     18  C   UNL     1       6.616   3.524  11.743  0.00  0.00    +0.000 A 
ATOM     19  C   UNL     1       7.643   4.446  11.583  0.00  0.00    +0.000 A 
ATOM     20  C   UNL     1       7.955   5.280  12.650  0.00  0.00    +0.000 A 
ATOM     21  N   UNL     1       7.328   5.247  13.846  0.00  0.00    +0.000 NA
ENDBRANCH  15  16
ENDBRANCH   3  14
TORSDOF 4
ENDMDL
MODEL 7
REMARK VINA RESULT:      -6.3      2.182      3.100
REMARK  Name = 
REMARK  4 active torsions:
REMARK  status: ('A' for Active; 'I' for Inactive)
REMARK    1  A    between atoms: C_5  and  N_6
REMARK    2  A    between atoms: C_7  and  S_8
REMARK    3  A    between atoms: N_9  and  N_10
REMARK    4  A    between atoms: C_11  and  C_12
REMARK                            x       y       z     vdW  Elec       q    Type
REMARK                         _______ _______ _______ _____ _____    ______ ____
ROOT
ATOM      1  N   UNL     1       5.567   3.692  16.601  0.00  0.00    +0.000 N 
ATOM      2  C   UNL     1       4.720   4.430  17.386  0.00  0.00    +0.000 C 
ATOM      3  N   UNL     1       4.131   5.547  17.075  0.00  0.00    +0.000 NA
ATOM      4  H   UNL     1       5.810   2.787  16.978  0.00  0.00    +0.000 HD
ENDROOT
BRANCH   1   9
ATOM      5  F   UNL     1       7.474   4.829  11.521  0.00  0.00    +0.000 F 
ATOM      6  C   UNL     1       7.027   4.558  12.755  0.00  0.00    +0.000 A 
ATOM      7  C   UNL     1       7.625   5.164  13.851  0.00  0.00    +0.000 A 
ATOM      8  C   UNL     1       7.155   4.882  15.136  0.00  0.00    +0.000 A 
ATOM      9  C   UNL     1       6.098   3.985  15.339  0.00  0.00    +0.000 A 
ATOM     10  C   UNL     1       5.506   3.395  14.209  0.00  0.00    +0.000 A 
ATOM     11  C   UNL     1       5.969   3.678  12.921  0.00  0.00    +0.000 A 
ENDBRANCH   1   9
BRANCH   2  12
ATOM     12  S   UNL     1       4.490   3.617  18.949  0.00  0.00    +0.000 S 
ATOM     13  H   UNL     1       4.072   2.459  18.425  0.00  0.00    +0.000 HD
ENDBRANCH   2  12
BRANCH   3  14
ATOM     14  N   UNL     1       3.314   6.068  18.069  0.00  0.00    +0.000 NA
ATOM     15  C   UNL     1       3.099   7.341  17.943  0.00  0.00    +0.000 C 
BRANCH  15  16
ATOM     16  C   UNL     1       2.209   8.040  18.892  0.00  0.00    +0.000 A 
ATOM     17  C   UNL     1       2.006   7.516  20.164  0.00  0.00    +0.000 A 
ATOM     18  C   UNL     1       1.131   8.176  21.020  0.00  0.00    +0.000 A 
ATOM     19  C   UNL     1       0.497   9.330  20.577  0.00  0.00    +0.000 A 
ATOM     20  C   UNL     1       0.770   9.783  19.292  0.00  0.00    +0.000 A 
ATOM     21  N   UNL     1       1.612   9.166  18.433  0.00  0.00    +0.000 NA
ENDBRANCH  15  16
ENDBRANCH   3  14
TORSDOF 4
ENDMDL
MODEL 8
REMARK VINA RESULT:      -6.3      1.247      2.040
REMARK  Name = 
REMARK  4 active torsions:
REMARK  status: ('A' for Active; 'I' for Inactive)
REMARK    1  A    between atoms: C_5  and  N_6
REMARK    2  A    between atoms: C_7  and  S_8
REMARK    3  A    between atoms: N_9  and  N_10
REMARK    4  A    between atoms: C_11  and  C_12
REMARK                            x       y       z     vdW  Elec       q    Type
REMARK                         _______ _______ _______ _____ _____    ______ ____
ROOT
ATOM      1  N   UNL     1       3.835   4.629  18.893  0.00  0.00    +0.000 N 
ATOM      2  C   UNL     1       3.040   5.677  19.279  0.00  0.00    +0.000 C 
ATOM      3  N   UNL     1       2.973   6.857  18.735  0.00  0.00    +0.000 NA
ATOM      4  H   UNL     1       3.639   3.756  19.361  0.00  0.00    +0.000 HD
ENDROOT
BRANCH   1   9
ATOM      5  F   UNL     1       7.666   4.519  14.886  0.00  0.00    +0.000 F 
ATOM      6  C   UNL     1       6.751   4.542  15.865  0.00  0.00    +0.000 A 
ATOM      7  C   UNL     1       7.148   4.796  17.170  0.00  0.00    +0.000 A 
ATOM      8  C   UNL     1       6.192   4.823  18.189  0.00  0.00    +0.000 A 
ATOM      9  C   UNL     1       4.839   4.583  17.918  0.00  0.00    +0.000 A 
ATOM     10  C   UNL     1       4.466   4.338  16.584  0.00  0.00    +0.000 A 
ATOM     11  C   UNL     1       5.417   4.316  15.561  0.00  0.00    +0.000 A 
ENDBRANCH   1   9
BRANCH   2  12
ATOM     12  S   UNL     1       2.037   5.189  20.662  0.00  0.00    +0.000 S 
ATOM     13  H   UNL     1       2.638   4.007  20.841  0.00  0.00    +0.000 HD
ENDBRANCH   2  12
BRANCH   3  14
ATOM     14  N   UNL     1       2.062   7.718  19.332  0.00  0.00    +0.000 NA
ATOM     15  C   UNL     1       1.755   8.736  18.589  0.00  0.00    +0.000 C 
BRANCH  15  16
ATOM     16  C   UNL     1       0.760   9.723  19.056  0.00  0.00    +0.000 A 
ATOM     17  C   UNL     1      -0.282  10.105  18.218  0.00  0.00    +0.000 A 
ATOM     18  C   UNL     1      -1.179  11.064  18.673  0.00  0.00    +0.000 A 
ATOM     19  C   UNL     1      -1.005  11.602  19.942  0.00  0.00    +0.000 A 
ATOM     20  C   UNL     1       0.060  11.152  20.711  0.00  0.00    +0.000 A 
ATOM     21  N   UNL     1       0.952  10.223  20.300  0.00  0.00    +0.000 NA
ENDBRANCH  15  16
ENDBRANCH   3  14
TORSDOF 4
ENDMDL
MODEL 9
REMARK VINA RESULT:      -6.3      4.535      8.399
REMARK  Name = 
REMARK  4 active torsions:
REMARK  status: ('A' for Active; 'I' for Inactive)
REMARK    1  A    between atoms: C_5  and  N_6
REMARK    2  A    between atoms: C_7  and  S_8
REMARK    3  A    between atoms: N_9  and  N_10
REMARK    4  A    between atoms: C_11  and  C_12
REMARK                            x       y       z     vdW  Elec       q    Type
REMARK                         _______ _______ _______ _____ _____    ______ ____
ROOT
ATOM      1  N   UNL     1       3.161   5.608  18.603  0.00  0.00    +0.000 N 
ATOM      2  C   UNL     1       4.141   5.400  17.668  0.00  0.00    +0.000 C 
ATOM      3  N   UNL     1       4.651   4.261  17.301  0.00  0.00    +0.000 NA
ATOM      4  H   UNL     1       2.811   6.555  18.644  0.00  0.00    +0.000 HD
ENDROOT
BRANCH   1   9
ATOM      5  F   UNL     1       0.739   2.141  22.188  0.00  0.00    +0.000 F 
ATOM      6  C   UNL     1       1.321   2.969  21.310  0.00  0.00    +0.000 A 
ATOM      7  C   UNL     1       0.944   2.930  19.975  0.00  0.00    +0.000 A 
ATOM      8  C   UNL     1       1.550   3.797  19.062  0.00  0.00    +0.000 A 
ATOM      9  C   UNL     1       2.545   4.696  19.468  0.00  0.00    +0.000 A 
ATOM     10  C   UNL     1       2.899   4.719  20.829  0.00  0.00    +0.000 A 
ATOM     11  C   UNL     1       2.291   3.858  21.747  0.00  0.00    +0.000 A 
ENDBRANCH   1   9
BRANCH   2  12
ATOM     12  S   UNL     1       4.634   6.954  16.960  0.00  0.00    +0.000 S 
ATOM     13  H   UNL     1       5.704   7.115  17.747  0.00  0.00    +0.000 HD
ENDBRANCH   2  12
BRANCH   3  14
ATOM     14  N   UNL     1       5.626   4.352  16.317  0.00  0.00    +0.000 NA
ATOM     15  C   UNL     1       5.162   4.186  15.117  0.00  0.00    +0.000 C 
BRANCH  15  16
ATOM     16  C   UNL     1       6.062   4.303  13.952  0.00  0.00    +0.000 A 
ATOM     17  C   UNL     1       5.849   3.507  12.831  0.00  0.00    +0.000 A 
ATOM     18  C   UNL     1       6.736   3.613  11.766  0.00  0.00    +0.000 A 
ATOM     19  C   UNL     1       7.797   4.505  11.858  0.00  0.00    +0.000 A 
ATOM     20  C   UNL     1       7.923   5.265  13.015  0.00  0.00    +0.000 A 
ATOM     21  N   UNL     1       7.081   5.187  14.069  0.00  0.00    +0.000 NA
ENDBRANCH  15  16
ENDBRANCH   3  14
TORSDOF 4
ENDMDL
